### 
### Created by X-TOOL on Mon Sep 10 21:13:23 2018
### 

@<TRIPOS>MOLECULE
5dtj_ligand
   35    36     1     0     0
SMALL
GAST_HUCK


@<TRIPOS>ATOM
      1 C1          5.2850  -18.3870    7.5310 C.ar      1 5G8         0.1059
      2 C2          5.4160  -16.9930    7.5220 C.ar      1 5G8         0.0685
      3 C3          6.4920  -16.4290    6.8510 C.ar      1 5G8        -0.0426
      4 C4          7.4060  -17.2460    6.1870 C.ar      1 5G8         0.0291
      5 C5          7.2550  -18.6340    6.2000 C.ar      1 5G8        -0.0565
      6 C6          6.1830  -19.2180    6.8710 C.ar      1 5G8        -0.0317
      7 C7          4.0650  -20.3030    8.2270 C.3       1 5G8         0.0708
      8 C8          2.8780  -20.5180    9.1540 C.3       1 5G8        -0.0249
      9 CL2         4.2270  -15.9330    8.3860 Cl        1 5G8        -0.0787
     10 CL4         8.7560  -16.5280    5.3420 Cl        1 5G8        -0.0810
     11 O1          4.2100  -18.8790    8.2010 O.3       1 5G8        -0.3168
     12 C9          2.5380  -21.9710    9.3980 C.3       1 5G8        -0.0480
     13 C10         1.2980  -22.0180   10.2890 C.3       1 5G8        -0.0244
     14 C11         0.9790  -23.4740   10.5290 C.3       1 5G8         0.0584
     15 N12        -0.2200  -23.6540   11.3400 N.pl3     1 5G8        -0.2521
     16 C16        -0.7550  -22.8240   12.2200 C.2       1 5G8         0.0363
     17 C15        -1.8480  -23.4250   12.6870 C.2       1 5G8        -0.0236
     18 N14        -1.9950  -24.6090   12.1050 N.2       1 5G8        -0.3302
     19 C13        -0.9780  -24.7460   11.2620 C.2       1 5G8         0.0974
     20 H1          6.6218  -15.3528    6.8432 H         1 5G8         0.0601
     21 H2          7.9752  -19.2599    5.6856 H         1 5G8         0.0597
     22 H3          6.0522  -20.2941    6.8783 H         1 5G8         0.0543
     23 H4          3.8555  -20.6960    7.2212 H         1 5G8         0.0614
     24 H5          4.9697  -20.7838    8.6275 H         1 5G8         0.0614
     25 H6          1.9994  -20.0281    8.7090 H         1 5G8         0.0291
     26 H7          3.1074  -20.0500   10.1227 H         1 5G8         0.0291
     27 H8          3.3785  -22.4727    9.9000 H         1 5G8         0.0267
     28 H9          2.3303  -22.4723    8.4412 H         1 5G8         0.0267
     29 H10         0.4532  -21.5245    9.7863 H         1 5G8         0.0293
     30 H11         1.5011  -21.5136   11.2452 H         1 5G8         0.0293
     31 H12         1.8294  -23.9413   11.0472 H         1 5G8         0.0625
     32 H13         0.8257  -23.9669    9.5576 H         1 5G8         0.0625
     33 H14        -0.3768  -21.8436   12.5060 H         1 5G8         0.0860
     34 H15        -2.5207  -23.0074   13.4347 H         1 5G8         0.0444
     35 H16        -0.7953  -25.6044   10.6173 H         1 5G8         0.1215
@<TRIPOS>BOND
     1    1    2 ar 
     2    1    6 ar 
     3   11    1 1  
     4    2    3 ar 
     5    2    9 1  
     6    3    4 ar 
     7    5    4 ar 
     8    4   10 1  
     9    6    5 ar 
    10    7    8 1  
    11    7   11 1  
    12    8   12 1  
    13   12   13 1  
    14   13   14 1  
    15   14   15 1  
    16   15   16 1  
    17   15   19 1  
    18   16   17 2  
    19   17   18 1  
    20   18   19 2  
    21    3   20 1  
    22    5   21 1  
    23    6   22 1  
    24    7   23 1  
    25    7   24 1  
    26    8   25 1  
    27    8   26 1  
    28   12   27 1  
    29   12   28 1  
    30   13   29 1  
    31   13   30 1  
    32   14   31 1  
    33   14   32 1  
    34   16   33 1  
    35   17   34 1  
    36   19   35 1  
@<TRIPOS>SUBSTRUCTURE
     1 5G8         1

