### 
### Created by X-TOOL on Mon Sep 10 21:13:26 2018
### 

@<TRIPOS>MOLECULE
5dtk_ligand
   32    34     1     0     0
SMALL
GAST_HUCK


@<TRIPOS>ATOM
      1 C11         7.6630   39.1950  147.4080 C.2       1 5F3         0.0638
      2 C12         5.7120   39.1090  142.8560 C.ar      1 5F3         0.0019
      3 C7          6.6040   38.4990  143.8700 C.ar      1 5F3        -0.0030
      4 C8          6.8600   39.1610  145.0630 C.ar      1 5F3        -0.0353
      5 C9          7.5980   38.5620  146.0720 C.ar      1 5F3         0.0150
      6 C10         8.1640   37.3140  145.8600 C.ar      1 5F3        -0.0353
      7 C2          8.8150   32.9870  144.9420 C.ar      1 5F3         0.0102
      8 N1          4.1660   40.4730  140.9590 N.ar      1 5F3        -0.2988
      9 C6          7.1590   37.2320  143.6850 C.ar      1 5F3        -0.0379
     10 C5          7.9560   36.6330  144.6640 C.ar      1 5F3        -0.0030
     11 C4          8.5850   35.3110  144.4380 C.ar      1 5F3         0.0019
     12 O           7.0100   40.1910  147.6720 O.co2     1 5F3        -0.5605
     13 O1          8.3620   38.5470  148.2810 O.co2     1 5F3        -0.5605
     14 C3          8.1250   34.1710  145.0860 C.ar      1 5F3        -0.0271
     15 N           9.9190   32.8580  144.2010 N.ar      1 5F3        -0.2988
     16 C1         10.3480   33.9540  143.5670 C.ar      1 5F3         0.0102
     17 C           9.7210   35.1800  143.6510 C.ar      1 5F3        -0.0271
     18 C16         4.5910   39.8460  143.2280 C.ar      1 5F3        -0.0271
     19 C15         3.8670   40.5110  142.2590 C.ar      1 5F3         0.0102
     20 C14         5.2270   39.7410  140.6060 C.ar      1 5F3         0.0102
     21 C13         6.0160   39.0540  141.5030 C.ar      1 5F3        -0.0271
     22 H1          6.4759   40.1642  145.2081 H         1 5F3         0.0686
     23 H2          8.7750   36.8639  146.6340 H         1 5F3         0.0686
     24 H3          8.4409   32.1109  145.4592 H         1 5F3         0.0820
     25 H4          6.9673   36.7001  142.7601 H         1 5F3         0.0681
     26 H5          7.2319   34.2128  145.6989 H         1 5F3         0.0712
     27 H6         11.2378   33.8750  142.9529 H         1 5F3         0.0820
     28 H7         10.1117   36.0328  143.1077 H         1 5F3         0.0712
     29 H8          4.2898   39.8971  144.2681 H         1 5F3         0.0712
     30 H9          3.0092   41.0957  142.5709 H         1 5F3         0.0820
     31 H10         5.4815   39.6844  139.5538 H         1 5F3         0.0820
     32 H11         6.8651   38.4767  141.1554 H         1 5F3         0.0712
@<TRIPOS>BOND
     1    5    1 1  
     2    1   12 ar 
     3    1   13 ar 
     4    2    3 1  
     5   18    2 ar 
     6    2   21 ar 
     7    3    4 ar 
     8    3    9 ar 
     9    4    5 ar 
    10    5    6 ar 
    11   10    6 ar 
    12   14    7 ar 
    13    7   15 ar 
    14   19    8 ar 
    15    8   20 ar 
    16    9   10 ar 
    17   10   11 1  
    18   11   14 ar 
    19   11   17 ar 
    20   16   15 ar 
    21   17   16 ar 
    22   18   19 ar 
    23   20   21 ar 
    24    4   22 1  
    25    6   23 1  
    26    7   24 1  
    27    9   25 1  
    28   14   26 1  
    29   16   27 1  
    30   17   28 1  
    31   18   29 1  
    32   19   30 1  
    33   20   31 1  
    34   21   32 1  
@<TRIPOS>SUBSTRUCTURE
     1 5F3         1

