### 
### Created by X-TOOL on Mon Sep 10 21:13:27 2018
### 

@<TRIPOS>MOLECULE
5dtm_ligand
   29    30     1     0     0
SMALL
GAST_HUCK


@<TRIPOS>ATOM
      1 C1        -24.7280  -22.6290   10.1300 C.2       1 5F4         0.0245
      2 C2        -24.7080  -24.1120   10.0310 C.2       1 5F4         0.1378
      3 C3        -24.7590  -21.7990   11.3520 C.2       1 5F4        -0.0431
      4 C11       -24.7090  -19.3000   11.7820 C.2       1 5F4         0.2173
      5 C12       -23.8410  -25.3270    6.4970 C.ar      1 5F4        -0.0422
      6 C14       -26.2110  -25.5780    6.8020 C.ar      1 5F4        -0.0422
      7 C18       -25.1050  -25.6190    5.9510 C.ar      1 5F4        -0.0566
      8 C19       -24.5660  -18.1830   13.9840 C.3       1 5F4         0.0186
      9 C4        -24.6690  -21.7530    9.1150 C.2       1 5F4         0.0466
     10 C5        -24.8390  -24.7460    8.6560 C.ar      1 5F4         0.0560
     11 O6        -24.5270  -24.7700   11.0410 O.2       1 5F4        -0.3824
     12 C7        -24.7110  -20.5190   10.9230 C.2       1 5F4         0.1289
     13 N8        -24.6620  -20.5560    9.6110 N.pl3     1 5F4        -0.2705
     14 C9        -23.7280  -24.8250    7.8180 C.ar      1 5F4         0.0589
     15 C10       -26.0800  -25.0900    8.1250 C.ar      1 5F4         0.0589
     16 CL1       -22.1760  -24.4150    8.5110 Cl        1 5F4        -0.0647
     17 CL2       -27.4630  -25.0050    9.1790 Cl        1 5F4        -0.0647
     18 N16       -24.5080  -19.3690   13.1260 N.am      1 5F4        -0.2902
     19 O17       -24.9200  -18.2240   11.2290 O.2       1 5F4        -0.3916
     20 H1        -24.8099  -22.1465   12.3828 H         1 5F4         0.0411
     21 H2        -22.9481  -25.4870    5.9036 H         1 5F4         0.0636
     22 H3        -27.1761  -25.9219    6.4479 H         1 5F4         0.0636
     23 H4        -25.2163  -25.8681    4.9019 H         1 5F4         0.0653
     24 H5        -24.3739  -18.4752   15.0269 H         1 5F4         0.0482
     25 H6        -25.5632  -17.7248   13.9094 H         1 5F4         0.0482
     26 H7        -23.8044  -17.4584   13.6600 H         1 5F4         0.0482
     27 H8        -24.6332  -22.0050    8.0562 H         1 5F4         0.0993
     28 H9        -24.6216  -19.7080    9.0277 H         1 5F4         0.2396
     29 H10       -24.3145  -20.2578   13.5414 H         1 5F4         0.1834
@<TRIPOS>BOND
     1    2    1 1  
     2    1    3 1  
     3    1    9 2  
     4   10    2 1  
     5    2   11 2  
     6    3   12 2  
     7   12    4 1  
     8    4   18 am 
     9    4   19 2  
    10    5    7 ar 
    11   14    5 ar 
    12    7    6 ar 
    13    6   15 ar 
    14   18    8 1  
    15    9   13 1  
    16   10   14 ar 
    17   10   15 ar 
    18   12   13 1  
    19   14   16 1  
    20   15   17 1  
    21    3   20 1  
    22    5   21 1  
    23    6   22 1  
    24    7   23 1  
    25    8   24 1  
    26    8   25 1  
    27    8   26 1  
    28    9   27 1  
    29   13   28 1  
    30   18   29 1  
@<TRIPOS>SUBSTRUCTURE
     1 5F4         1

