### 
### Created by X-TOOL on Mon Sep 10 21:13:27 2018
### 

@<TRIPOS>MOLECULE
5dtq_ligand
   29    31     1     0     0
SMALL
GAST_HUCK


@<TRIPOS>ATOM
      1 C1        -25.9790   25.5300   -8.8210 C.ar      1 5F6         0.0595
      2 C2        -26.1380   25.8680   -7.4600 C.ar      1 5F6        -0.0421
      3 C3        -25.0760   25.8090   -6.5470 C.ar      1 5F6        -0.0565
      4 C11       -24.7100   23.2170  -11.0970 C.ar      1 5F6         0.0399
      5 C12       -24.7650   22.2450  -10.0760 C.ar      1 5F6        -0.0393
      6 C13       -24.8030   20.8930  -10.4070 C.ar      1 5F6        -0.0359
      7 C14       -24.7710   20.4850  -11.7580 C.ar      1 5F6         0.0497
      8 C15       -24.6160   21.4550  -12.7870 C.ar      1 5F6         0.0137
      9 C16       -24.5680   22.8120  -12.4420 C.ar      1 5F6        -0.0262
     10 C18       -24.7290   18.7160  -13.3550 C.ar      1 5F6         0.0121
     11 C19       -24.6250   19.6500  -14.4180 C.ar      1 5F6        -0.0300
     12 C20       -24.5350   21.0270  -14.1330 C.ar      1 5F6        -0.0321
     13 C4        -23.8320   25.3860   -7.0140 C.ar      1 5F6        -0.0421
     14 C5        -23.6710   25.0430   -8.3800 C.ar      1 5F6         0.0595
     15 C6        -24.7210   25.1350   -9.3040 C.ar      1 5F6         0.0618
     16 CL7       -27.3280   25.6210   -9.9400 Cl        1 5F6        -0.0646
     17 CL8       -22.1230   24.5800   -9.0210 Cl        1 5F6        -0.0646
     18 C9        -24.5010   24.6710  -10.7430 C.2       1 5F6         0.1627
     19 O10       -24.0620   25.4240  -11.6060 O.2       1 5F6        -0.3668
     20 N17       -24.8380   19.1480  -12.0630 N.ar      1 5F6        -0.2933
     21 H1        -27.1138   26.1837   -7.1090 H         1 5F6         0.0636
     22 H2        -25.2176   26.0842   -5.5081 H         1 5F6         0.0653
     23 H3        -24.7777   22.5500   -9.0359 H         1 5F6         0.0687
     24 H4        -24.8576   20.1482   -9.6213 H         1 5F6         0.0647
     25 H5        -24.4205   23.5578  -13.2148 H         1 5F6         0.0727
     26 H6        -24.7220   17.6533  -13.5689 H         1 5F6         0.0877
     27 H7        -24.6148   19.3055  -15.4457 H         1 5F6         0.0698
     28 H8        -24.4057   21.7473  -14.9327 H         1 5F6         0.0785
     29 H9        -22.9902   25.3196   -6.3342 H         1 5F6         0.0636
@<TRIPOS>BOND
     1    1    2 ar 
     2   15    1 ar 
     3    1   16 1  
     4    2    3 ar 
     5   13    3 ar 
     6    4    5 ar 
     7    4    9 ar 
     8   18    4 1  
     9    5    6 ar 
    10    6    7 ar 
    11    8    7 ar 
    12    7   20 ar 
    13    9    8 ar 
    14    8   12 ar 
    15   11   10 ar 
    16   20   10 ar 
    17   12   11 ar 
    18   14   13 ar 
    19   15   14 ar 
    20   14   17 1  
    21   15   18 1  
    22   18   19 2  
    23    2   21 1  
    24    3   22 1  
    25    5   23 1  
    26    6   24 1  
    27    9   25 1  
    28   10   26 1  
    29   11   27 1  
    30   12   28 1  
    31   13   29 1  
@<TRIPOS>SUBSTRUCTURE
     1 5F6         1

