### 
### Created by X-TOOL on Mon Sep 10 21:13:27 2018
### 

@<TRIPOS>MOLECULE
5dtr_ligand
   36    38     1     0     0
SMALL
GAST_HUCK


@<TRIPOS>ATOM
      1 C1         30.0360  -14.2620   11.7400 C.ar      1 5F7        -0.0100
      2 C2         31.3280  -14.6730   12.1350 C.ar      1 5F7        -0.0095
      3 C3         32.4540  -13.9300   11.7060 C.ar      1 5F7         0.1181
      4 C12        33.9110   -8.7930    8.8610 C.ar      1 5F7         0.0889
      5 C13        33.3200   -7.9310    9.8170 C.ar      1 5F7         0.0619
      6 C14        32.8050   -6.6770    9.4650 C.ar      1 5F7        -0.0581
      7 C15        32.9300   -6.2420    8.1510 C.ar      1 5F7        -0.0730
      8 C16        33.4740   -7.0990    7.1740 C.ar      1 5F7        -0.0581
      9 C17        33.9470   -8.3740    7.5170 C.ar      1 5F7         0.0619
     10 C21        34.1470  -15.1440   13.0990 C.3       1 5F7         0.0646
     11 C22        35.6360  -10.5020    9.3290 C.3       1 5F7         0.0340
     12 C4         32.2430  -12.8180   10.8660 C.ar      1 5F7         0.0300
     13 C5         30.9100  -12.4320   10.5260 C.ar      1 5F7         0.0275
     14 N6         29.8470  -13.1790   10.9360 N.ar      1 5F7        -0.3219
     15 C7         33.3250  -12.0090   10.4640 C.ar      1 5F7        -0.0267
     16 C8         33.1420  -10.8670    9.6460 C.ar      1 5F7         0.0650
     17 C9         31.7830  -10.5210    9.3420 C.ar      1 5F7        -0.0312
     18 C10        30.6850  -11.2670    9.7750 C.ar      1 5F7        -0.0479
     19 N11        34.2220  -10.0660    9.2550 N.pl3     1 5F7        -0.2620
     20 CL1        34.6310   -9.3390    6.2440 Cl        1 5F7        -0.0801
     21 CL2        33.2570   -8.4400   11.4860 Cl        1 5F7        -0.0801
     22 O20        33.7810  -14.2610   12.0230 O.3       1 5F7        -0.3069
     23 H1         29.1742  -14.8218   12.0849 H         1 5F7         0.0781
     24 H2         31.4563  -15.5489   12.7606 H         1 5F7         0.0564
     25 H3         32.3163   -6.0551   10.2063 H         1 5F7         0.0593
     26 H4         32.6089   -5.2433    7.8778 H         1 5F7         0.0514
     27 H5         33.5277   -6.7684    6.1430 H         1 5F7         0.0593
     28 H6         35.2421  -15.2394   13.1386 H         1 5F7         0.0588
     29 H7         33.6987  -16.1341   12.9295 H         1 5F7         0.0588
     30 H8         33.7801  -14.7334   14.0512 H         1 5F7         0.0588
     31 H9         36.2882   -9.6944    8.9651 H         1 5F7         0.0529
     32 H10        35.7770  -11.3966    8.7047 H         1 5F7         0.0529
     33 H11        35.8927  -10.7386   10.3721 H         1 5F7         0.0529
     34 H12        34.3258  -12.2681   10.7901 H         1 5F7         0.0520
     35 H13        31.5993   -9.6348    8.7454 H         1 5F7         0.0609
     36 H14        29.6758  -10.9521    9.5354 H         1 5F7         0.0611
@<TRIPOS>BOND
     1    2    1 ar 
     2   14    1 ar 
     3    3    2 ar 
     4   12    3 ar 
     5    3   22 1  
     6    4    5 ar 
     7    4    9 ar 
     8   19    4 1  
     9    5    6 ar 
    10    5   21 1  
    11    6    7 ar 
    12    8    7 ar 
    13    9    8 ar 
    14    9   20 1  
    15   22   10 1  
    16   19   11 1  
    17   12   13 ar 
    18   15   12 ar 
    19   13   14 ar 
    20   13   18 ar 
    21   16   15 ar 
    22   16   17 ar 
    23   16   19 1  
    24   17   18 ar 
    25    1   23 1  
    26    2   24 1  
    27    6   25 1  
    28    7   26 1  
    29    8   27 1  
    30   10   28 1  
    31   10   29 1  
    32   10   30 1  
    33   11   31 1  
    34   11   32 1  
    35   11   33 1  
    36   15   34 1  
    37   17   35 1  
    38   18   36 1  
@<TRIPOS>SUBSTRUCTURE
     1 5F7         1

