### 
### Created by X-TOOL on Mon Sep 10 21:13:30 2018
### 

@<TRIPOS>MOLECULE
5dts_ligand
   23    24     1     0     0
SMALL
GAST_HUCK


@<TRIPOS>ATOM
      1 O1          6.6230  -17.5510   67.7830 O.co2     1 5F8        -0.5606
      2 C           5.4290  -17.9310   67.7160 C.2       1 5F8         0.0632
      3 O           4.4520  -17.1720   67.5130 O.co2     1 5F8        -0.5606
      4 C1          5.1500  -19.4050   67.8860 C.ar      1 5F8         0.0117
      5 C6          3.8490  -19.8690   68.0160 C.ar      1 5F8        -0.0468
      6 C5          3.6040  -21.2230   68.1550 C.ar      1 5F8        -0.0568
      7 C4          4.6550  -22.1250   68.1650 C.ar      1 5F8        -0.0498
      8 C3          5.9710  -21.6860   68.0340 C.ar      1 5F8        -0.0071
      9 C2          6.2000  -20.3170   67.9010 C.ar      1 5F8        -0.0381
     10 C7          7.1030  -22.6470   68.0080 C.ar      1 5F8         0.0102
     11 C11         8.3910  -22.2750   68.3730 C.ar      1 5F8         0.0188
     12 N           9.4480  -23.0930   68.3440 N.ar      1 5F8        -0.2963
     13 C10         9.2390  -24.3500   67.9380 C.ar      1 5F8         0.0108
     14 C9          8.0040  -24.8250   67.5580 C.ar      1 5F8        -0.0338
     15 C8          6.9260  -23.9620   67.5960 C.ar      1 5F8        -0.0349
     16 H1          3.0220  -19.1682   68.0086 H         1 5F8         0.0657
     17 H2          2.5854  -21.5797   68.2565 H         1 5F8         0.0627
     18 H3          4.4516  -23.1840   68.2759 H         1 5F8         0.0652
     19 H4          7.2178  -19.9559   67.8073 H         1 5F8         0.0666
     20 H5          8.5492  -21.2546   68.7029 H         1 5F8         0.0831
     21 H6         10.0839  -25.0284   67.9066 H         1 5F8         0.0820
     22 H7          7.8803  -25.8528   67.2363 H         1 5F8         0.0709
     23 H8          5.9420  -24.3108   67.3044 H         1 5F8         0.0741
@<TRIPOS>BOND
     1    1    2 ar 
     2    2    3 ar 
     3    2    4 1  
     4    4    5 ar 
     5    4    9 ar 
     6    5    6 ar 
     7    6    7 ar 
     8    7    8 ar 
     9    8    9 ar 
    10    8   10 1  
    11   10   11 ar 
    12   10   15 ar 
    13   11   12 ar 
    14   12   13 ar 
    15   13   14 ar 
    16   14   15 ar 
    17    5   16 1  
    18    6   17 1  
    19    7   18 1  
    20    9   19 1  
    21   11   20 1  
    22   13   21 1  
    23   14   22 1  
    24   15   23 1  
@<TRIPOS>SUBSTRUCTURE
     1 5F8         1

