### 
### Created by X-TOOL on Mon Sep 10 21:13:29 2018
### 

@<TRIPOS>MOLECULE
5dtt_ligand
   20    21     1     0     0
SMALL
GAST_HUCK


@<TRIPOS>ATOM
      1 C1         76.6320  232.1140   35.6190 C.ar      1 5F5         0.0236
      2 C2         77.7560  232.9240   35.7420 C.ar      1 5F5        -0.0443
      3 C3         79.0200  232.4010   35.5330 C.ar      1 5F5        -0.0544
      4 C4         79.1730  231.0660   35.2020 C.ar      1 5F5        -0.0447
      5 C5         78.0610  230.2410   35.0840 C.ar      1 5F5         0.0142
      6 C6         76.7910  230.7690   35.2990 C.ar      1 5F5        -0.0324
      7 C7         78.2160  228.8080   34.7130 C.2       1 5F5         0.0637
      8 C8         73.2570  233.9940   35.7710 C.2       1 5F5         0.0119
      9 O          79.4430  228.4270   34.5070 O.co2     1 5F5        -0.5606
     10 O1         77.2530  228.0600   34.6180 O.co2     1 5F5        -0.5606
     11 C          75.2820  232.6750   35.7910 C.2       1 5F5         0.1130
     12 S          74.8460  234.2380   35.1870 S.3       1 5F5        -0.0053
     13 C9         73.1610  232.7950   36.3660 C.2       1 5F5        -0.0144
     14 N          74.3070  232.0330   36.3860 N.2       1 5F5        -0.3112
     15 H1         77.6413  233.9699   36.0028 H         1 5F5         0.0674
     16 H2         79.8918  233.0381   35.6287 H         1 5F5         0.0632
     17 H3         80.1648  230.6620   35.0340 H         1 5F5         0.0674
     18 H4         75.9204  230.1284   35.2166 H         1 5F5         0.0690
     19 H5         72.4409  234.7085   35.6740 H         1 5F5         0.0760
     20 H6         72.2293  232.4448   36.8079 H         1 5F5         0.0585
@<TRIPOS>BOND
     1    1    2 ar 
     2    1    6 ar 
     3   11    1 1  
     4    2    3 ar 
     5    3    4 ar 
     6    5    4 ar 
     7    6    5 ar 
     8    5    7 1  
     9    7    9 ar 
    10    7   10 ar 
    11   12    8 1  
    12    8   13 2  
    13   11   12 1  
    14   11   14 2  
    15   13   14 1  
    16    2   15 1  
    17    3   16 1  
    18    4   17 1  
    19    6   18 1  
    20    8   19 1  
    21   13   20 1  
@<TRIPOS>SUBSTRUCTURE
     1 5F5         1

