### 
### Created by X-TOOL on Mon Sep 10 21:13:28 2018
### 

@<TRIPOS>MOLECULE
5du4_ligand
   58    61     1     0     0
SMALL
GAST_HUCK


@<TRIPOS>ATOM
      1 C1        -13.6750   11.0050   37.3260 C.3       1 5FF         0.0758
      2 C2        -14.6450   11.7700   36.4130 C.3       1 5FF         0.0198
      3 C3        -14.0930   13.1410   36.0330 C.3       1 5FF         0.1798
      4 C5        -13.3040   13.0850   38.4270 C.2       1 5FF         0.1845
      5 F58       -14.6190   15.1700   34.9510 F         1 5FF        -0.1674
      6 C13       -15.1280   14.0050   35.3220 C.3       1 5FF         0.4212
      7 F56       -16.1410   14.1940   36.1400 F         1 5FF        -0.1674
      8 F57       -15.5310   13.3700   34.2410 F         1 5FF        -0.1674
      9 C7        -14.2480    9.6810   37.6560 C.ar      1 5FF        -0.0243
     10 C8        -15.2760    9.5610   38.5840 C.ar      1 5FF        -0.0646
     11 C9        -15.8060    8.3130   38.8860 C.ar      1 5FF        -0.0668
     12 C10       -15.3190    7.1720   38.2560 C.ar      1 5FF        -0.0500
     13 C32       -15.8870    5.8070   38.5740 C.3       1 5FF        -0.0251
     14 C33       -15.7470    5.4680   40.0410 C.3       1 5FF        -0.0563
     15 C11       -14.2920    7.2940   37.3290 C.ar      1 5FF        -0.0668
     16 C12       -13.7600    8.5420   37.0290 C.ar      1 5FF        -0.0646
     17 N6        -13.3860   11.7480   38.5540 N.pl3     1 5FF        -0.2746
     18 N4        -13.6240   13.7020   37.3200 N.pl3     1 5FF        -0.1710
     19 N19       -13.4290   15.0840   37.5000 N.2       1 5FF        -0.2350
     20 C18       -12.9700   15.2890   38.7710 C.2       1 5FF        -0.0063
     21 C17       -12.8600   14.0680   39.4280 C.2       1 5FF         0.0778
     22 C20       -12.4150   13.7190   40.8030 C.2       1 5FF         0.1724
     23 O22       -12.4270   12.5550   41.1840 O.2       1 5FF        -0.4104
     24 N21       -11.9820   14.7200   41.5730 N.am      1 5FF        -0.2844
     25 C23       -11.5240   14.4900   42.9310 C.3       1 5FF         0.0579
     26 C24       -12.6540   14.8940   43.8500 C.ar      1 5FF        -0.0319
     27 C25       -12.8210   16.2300   44.1980 C.ar      1 5FF        -0.0668
     28 C26       -13.8610   16.6090   45.0390 C.ar      1 5FF        -0.0395
     29 C27       -14.7450   15.6560   45.5280 C.ar      1 5FF         0.0837
     30 O30       -15.7700   16.0420   46.3570 O.3       1 5FF        -0.3257
     31 C31       -16.8770   15.1720   46.5920 C.3       1 5FF         0.0579
     32 C28       -14.5800   14.3190   45.1760 C.ar      1 5FF        -0.0395
     33 C29       -13.5370   13.9390   44.3370 C.ar      1 5FF        -0.0668
     34 H1        -12.7305   10.8559   36.7823 H         1 5FF         0.0711
     35 H2        -15.6014   11.9034   36.9397 H         1 5FF         0.0342
     36 H3        -14.8097   11.1846   35.4964 H         1 5FF         0.0342
     37 H4        -13.2357   13.0200   35.3545 H         1 5FF         0.0757
     38 H5        -15.6659   10.4456   39.0744 H         1 5FF         0.0540
     39 H6        -16.6028    8.2276   39.6160 H         1 5FF         0.0540
     40 H7        -15.3507    5.0513   37.9813 H         1 5FF         0.0410
     41 H8        -16.9537    5.7940   38.3059 H         1 5FF         0.0410
     42 H9        -16.1711    4.4706   40.2289 H         1 5FF         0.0250
     43 H10       -16.2856    6.2147   40.6429 H         1 5FF         0.0250
     44 H11       -14.6826    5.4720   40.3183 H         1 5FF         0.0250
     45 H12       -13.9031    6.4101   36.8365 H         1 5FF         0.0540
     46 H13       -12.9603    8.6270   36.3021 H         1 5FF         0.0540
     47 H14       -13.2535   11.2760   39.4599 H         1 5FF         0.1891
     48 H15       -12.7277   16.2589   39.2028 H         1 5FF         0.0639
     49 H16       -11.9730   15.6500   41.2056 H         1 5FF         0.1852
     50 H17       -10.6320   15.0996   43.1377 H         1 5FF         0.0660
     51 H18       -11.2824   13.4264   43.0737 H         1 5FF         0.0660
     52 H19       -12.1381   16.9782   43.8123 H         1 5FF         0.0531
     53 H20       -13.9822   17.6506   45.3137 H         1 5FF         0.0525
     54 H21       -17.5862   15.6582   47.2780 H         1 5FF         0.0575
     55 H22       -16.5175   14.2341   47.0404 H         1 5FF         0.0575
     56 H23       -17.3804   14.9534   45.6387 H         1 5FF         0.0575
     57 H24       -15.2665   13.5715   45.5569 H         1 5FF         0.0525
     58 H25       -13.4136   12.8974   44.0634 H         1 5FF         0.0531
@<TRIPOS>BOND
     1    1    2 1  
     2    1    9 1  
     3    1   17 1  
     4    2    3 1  
     5    3    6 1  
     6    3   18 1  
     7   17    4 1  
     8    4   18 1  
     9    4   21 2  
    10    6    5 1  
    11    6    7 1  
    12    6    8 1  
    13    9   10 ar 
    14    9   16 ar 
    15   10   11 ar 
    16   11   12 ar 
    17   12   13 1  
    18   12   15 ar 
    19   13   14 1  
    20   15   16 ar 
    21   18   19 1  
    22   19   20 2  
    23   20   21 1  
    24   21   22 1  
    25   22   23 2  
    26   22   24 am 
    27   24   25 1  
    28   25   26 1  
    29   26   27 ar 
    30   26   33 ar 
    31   27   28 ar 
    32   28   29 ar 
    33   29   30 1  
    34   29   32 ar 
    35   30   31 1  
    36   32   33 ar 
    37    1   34 1  
    38    2   35 1  
    39    2   36 1  
    40    3   37 1  
    41   10   38 1  
    42   11   39 1  
    43   13   40 1  
    44   13   41 1  
    45   14   42 1  
    46   14   43 1  
    47   14   44 1  
    48   15   45 1  
    49   16   46 1  
    50   17   47 1  
    51   20   48 1  
    52   24   49 1  
    53   25   50 1  
    54   25   51 1  
    55   27   52 1  
    56   28   53 1  
    57   31   54 1  
    58   31   55 1  
    59   31   56 1  
    60   32   57 1  
    61   33   58 1  
@<TRIPOS>SUBSTRUCTURE
     1 5FF         1

