### 
### Created by X-TOOL on Mon Sep 10 21:13:28 2018
### 

@<TRIPOS>MOLECULE
5du6_ligand
   54    57     1     0     0
SMALL
GAST_HUCK


@<TRIPOS>ATOM
      1 O22       -19.8880   27.3610  -38.5920 O.2       1 G59        -0.4104
      2 C20       -19.3780   26.3510  -39.0790 C.2       1 G59         0.1726
      3 N21       -19.5560   26.0450  -40.5040 N.am      1 G59        -0.2834
      4 C23       -20.3450   26.9840  -41.3010 C.3       1 G59         0.0610
      5 C24       -19.3940   27.9830  -41.9530 C.ar      1 G59        -0.0250
      6 C25       -18.1710   28.3360  -41.3770 C.ar      1 G59        -0.0601
      7 C26       -17.2910   29.2450  -41.9640 C.ar      1 G59        -0.0348
      8 C29       -19.7060   28.5990  -43.1650 C.ar      1 G59        -0.0601
      9 C28       -18.8480   29.5130  -43.7770 C.ar      1 G59        -0.0348
     10 C27       -17.6420   29.8280  -43.1620 C.ar      1 G59         0.1248
     11 F30       -16.8270   30.6990  -43.7350 F         1 G59        -0.1893
     12 C17       -18.5490   25.4430  -38.1760 C.2       1 G59         0.0778
     13 C5        -18.4810   25.5030  -36.7510 C.2       1 G59         0.1842
     14 N4        -17.6250   24.5250  -36.3920 N.pl3     1 G59        -0.1801
     15 N19       -17.1350   23.8480  -37.4770 N.2       1 G59        -0.2353
     16 C18       -17.6980   24.4210  -38.5270 C.2       1 G59        -0.0063
     17 N6        -19.1070   26.3250  -35.7750 N.pl3     1 G59        -0.2746
     18 C1        -18.7300   26.1620  -34.3610 C.3       1 G59         0.0755
     19 C2        -18.2470   24.7460  -34.0600 C.3       1 G59         0.0109
     20 C3        -17.2490   24.2070  -35.0530 C.3       1 G59         0.0828
     21 C13       -17.1610   22.7220  -34.9100 C.3       1 G59        -0.0331
     22 C7        -19.8640   26.5080  -33.3940 C.ar      1 G59        -0.0243
     23 C8        -21.1760   26.0810  -33.5800 C.ar      1 G59        -0.0646
     24 C9        -22.1870   26.4020  -32.6540 C.ar      1 G59        -0.0668
     25 C10       -21.9410   27.1690  -31.4930 C.ar      1 G59        -0.0500
     26 C32       -23.0380   27.5040  -30.4900 C.3       1 G59        -0.0251
     27 C33       -24.1880   28.1950  -31.1570 C.3       1 G59        -0.0563
     28 C11       -20.6260   27.5860  -31.3220 C.ar      1 G59        -0.0668
     29 C12       -19.6240   27.2570  -32.2520 C.ar      1 G59        -0.0646
     30 H1        -19.1534   25.2264  -40.9137 H         1 G59         0.1853
     31 H2        -21.0549   27.5170  -40.6514 H         1 G59         0.0673
     32 H3        -20.8987   26.4371  -42.0783 H         1 G59         0.0673
     33 H4        -17.8938   27.8833  -40.4319 H         1 G59         0.0548
     34 H5        -16.3486   29.4882  -41.4867 H         1 G59         0.0587
     35 H6        -20.6467   28.3595  -43.6475 H         1 G59         0.0548
     36 H7        -19.1186   29.9721  -44.7210 H         1 G59         0.0587
     37 H8        -17.5090   24.1175  -39.5556 H         1 G59         0.0639
     38 H9        -19.8122   27.0227  -36.0521 H         1 G59         0.1891
     39 H10       -17.8981   26.8544  -34.1650 H         1 G59         0.0711
     40 H11       -19.1209   24.0781  -34.0528 H         1 G59         0.0339
     41 H12       -17.7775   24.7463  -33.0653 H         1 G59         0.0339
     42 H13       -16.2646   24.6513  -34.8443 H         1 G59         0.0663
     43 H14       -16.8713   22.4694  -33.8793 H         1 G59         0.0260
     44 H15       -16.4074   22.3303  -35.6091 H         1 G59         0.0260
     45 H16       -18.1394   22.2732  -35.1363 H         1 G59         0.0260
     46 H17       -21.4239   25.4902  -34.4544 H         1 G59         0.0540
     47 H18       -23.1942   26.0466  -32.8391 H         1 G59         0.0540
     48 H19       -22.6247   28.1637  -29.7129 H         1 G59         0.0410
     49 H20       -23.3980   26.5732  -30.0274 H         1 G59         0.0410
     50 H21       -24.9620   28.4235  -30.4095 H         1 G59         0.0250
     51 H22       -24.6098   27.5392  -31.9328 H         1 G59         0.0250
     52 H23       -23.8366   29.1297  -31.6183 H         1 G59         0.0250
     53 H24       -20.3671   28.1783  -30.4518 H         1 G59         0.0540
     54 H25       -18.6145   27.6060  -32.0672 H         1 G59         0.0540
@<TRIPOS>BOND
     1    1    2 2  
     2    2    3 am 
     3    2   12 1  
     4    3    4 1  
     5    4    5 1  
     6    5    6 ar 
     7    5    8 ar 
     8    6    7 ar 
     9    7   10 ar 
    10    8    9 ar 
    11    9   10 ar 
    12   10   11 1  
    13   12   13 2  
    14   12   16 1  
    15   13   14 1  
    16   13   17 1  
    17   14   15 1  
    18   14   20 1  
    19   15   16 2  
    20   17   18 1  
    21   18   19 1  
    22   18   22 1  
    23   19   20 1  
    24   20   21 1  
    25   22   23 ar 
    26   22   29 ar 
    27   23   24 ar 
    28   24   25 ar 
    29   25   26 1  
    30   25   28 ar 
    31   26   27 1  
    32   28   29 ar 
    33    3   30 1  
    34    4   31 1  
    35    4   32 1  
    36    6   33 1  
    37    7   34 1  
    38    8   35 1  
    39    9   36 1  
    40   16   37 1  
    41   17   38 1  
    42   18   39 1  
    43   19   40 1  
    44   19   41 1  
    45   20   42 1  
    46   21   43 1  
    47   21   44 1  
    48   21   45 1  
    49   23   46 1  
    50   24   47 1  
    51   26   48 1  
    52   26   49 1  
    53   27   50 1  
    54   27   51 1  
    55   27   52 1  
    56   28   53 1  
    57   29   54 1  
@<TRIPOS>SUBSTRUCTURE
     1 G59         1

