### 
### Created by X-TOOL on Mon Sep 10 21:13:29 2018
### 

@<TRIPOS>MOLECULE
5du8_ligand
   53    56     1     0     0
SMALL
GAST_HUCK


@<TRIPOS>ATOM
      1 C1        -18.5940   26.0920  -34.4540 C.3       1 5FK         0.0758
      2 C2        -17.9570   24.7380  -34.0640 C.3       1 5FK         0.0198
      3 C3        -16.9810   24.1820  -35.1120 C.3       1 5FK         0.1798
      4 C5        -18.3940   25.4680  -36.7720 C.2       1 5FK         0.1845
      5 C7        -19.6570   26.3780  -33.4650 C.ar      1 5FK        -0.0243
      6 C8        -20.9470   25.8480  -33.5780 C.ar      1 5FK        -0.0646
      7 C9        -21.9110   26.1400  -32.5940 C.ar      1 5FK        -0.0668
      8 C10       -21.5860   26.9690  -31.5010 C.ar      1 5FK        -0.0500
      9 C11       -20.2920   27.4850  -31.4070 C.ar      1 5FK        -0.0668
     10 C12       -19.3420   27.1890  -32.3800 C.ar      1 5FK        -0.0646
     11 C13       -16.8590   22.6640  -35.1080 C.3       1 5FK         0.4212
     12 C17       -18.4860   25.5100  -38.2450 C.2       1 5FK         0.0778
     13 C18       -17.5290   24.6160  -38.7000 C.2       1 5FK        -0.0063
     14 C20       -19.3950   26.4110  -38.9790 C.2       1 5FK         0.1728
     15 C23       -20.2630   27.2090  -41.1350 C.3       1 5FK         0.0763
     16 C24       -19.2740   27.9890  -41.9780 C.ar      1 5FK         0.0460
     17 C25       -19.4050   28.0220  -43.3660 C.ar      1 5FK        -0.0321
     18 C26       -18.4730   28.7330  -44.1130 C.ar      1 5FK        -0.0149
     19 C27       -17.4290   29.3840  -43.4670 C.ar      1 5FK         0.1528
     20 C28       -17.3210   29.3250  -42.0840 C.ar      1 5FK         0.0362
     21 C32       -22.5830   27.3200  -30.3950 C.3       1 5FK        -0.0251
     22 F58       -15.8920   22.2900  -35.9160 F         1 5FK        -0.1674
     23 F57       -16.5910   22.2590  -33.8910 F         1 5FK        -0.1674
     24 F56       -17.9700   22.1150  -35.5500 F         1 5FK        -0.1674
     25 C33       -23.9530   27.7250  -30.9150 C.3       1 5FK        -0.0563
     26 N6        -19.0940   26.1490  -35.8330 N.pl3     1 5FK        -0.2746
     27 N4        -17.4710   24.6100  -36.4360 N.pl3     1 5FK        -0.1710
     28 N19       -16.9220   24.0540  -37.6130 N.2       1 5FK        -0.2350
     29 O22       -20.0260   27.2230  -38.3190 O.2       1 5FK        -0.4104
     30 N21       -19.4370   26.3310  -40.3180 N.am      1 5FK        -0.2810
     31 N29       -18.2360   28.6360  -41.3850 N.ar      1 5FK        -0.2984
     32 F30       -16.5300   30.0700  -44.1840 F         1 5FK        -0.1798
     33 H1        -17.8195   26.8677  -34.3623 H         1 5FK         0.0711
     34 H2        -18.7641   24.0047  -33.9196 H         1 5FK         0.0342
     35 H3        -17.4102   24.8723  -33.1190 H         1 5FK         0.0342
     36 H4        -15.9850   24.6106  -34.9272 H         1 5FK         0.0757
     37 H5        -21.2033   25.2150  -34.4198 H         1 5FK         0.0540
     38 H6        -22.9089   25.7249  -32.6774 H         1 5FK         0.0540
     39 H7        -20.0255   28.1206  -30.5703 H         1 5FK         0.0540
     40 H8        -18.3415   27.5967  -32.2908 H         1 5FK         0.0540
     41 H9        -17.3009   24.3995  -39.7426 H         1 5FK         0.0639
     42 H10       -20.9397   26.6222  -41.7736 H         1 5FK         0.0703
     43 H11       -20.8531   27.8874  -40.5014 H         1 5FK         0.0703
     44 H12       -20.2207   27.5014  -43.8546 H         1 5FK         0.0642
     45 H13       -18.5600   28.7793  -45.1925 H         1 5FK         0.0707
     46 H14       -16.5075   29.8294  -41.5752 H         1 5FK         0.0788
     47 H15       -22.1725   28.1559  -29.8095 H         1 5FK         0.0410
     48 H16       -22.7041   26.4413  -29.7445 H         1 5FK         0.0410
     49 H17       -24.6120   27.9615  -30.0666 H         1 5FK         0.0250
     50 H18       -24.3849   26.8960  -31.4948 H         1 5FK         0.0250
     51 H19       -23.8534   28.6106  -31.5598 H         1 5FK         0.0250
     52 H20       -19.9402   26.6835  -36.0761 H         1 5FK         0.1891
     53 H21       -18.8773   25.6391  -40.7741 H         1 5FK         0.1857
@<TRIPOS>BOND
     1    1    2 1  
     2    1    5 1  
     3   26    1 1  
     4    3    2 1  
     5    3   11 1  
     6   27    3 1  
     7   12    4 2  
     8    4   26 1  
     9    4   27 1  
    10    5    6 ar 
    11    5   10 ar 
    12    6    7 ar 
    13    7    8 ar 
    14    9    8 ar 
    15    8   21 1  
    16   10    9 ar 
    17   11   22 1  
    18   11   23 1  
    19   11   24 1  
    20   12   13 1  
    21   14   12 1  
    22   13   28 2  
    23   14   29 2  
    24   30   14 am 
    25   15   16 1  
    26   15   30 1  
    27   16   17 ar 
    28   16   31 ar 
    29   17   18 ar 
    30   18   19 ar 
    31   19   20 ar 
    32   19   32 1  
    33   20   31 ar 
    34   21   25 1  
    35   27   28 1  
    36    1   33 1  
    37    2   34 1  
    38    2   35 1  
    39    3   36 1  
    40    6   37 1  
    41    7   38 1  
    42    9   39 1  
    43   10   40 1  
    44   13   41 1  
    45   15   42 1  
    46   15   43 1  
    47   17   44 1  
    48   18   45 1  
    49   20   46 1  
    50   21   47 1  
    51   21   48 1  
    52   25   49 1  
    53   25   50 1  
    54   25   51 1  
    55   26   52 1  
    56   30   53 1  
@<TRIPOS>SUBSTRUCTURE
     1 5FK         1

