### 
### Created by X-TOOL on Mon Sep 10 21:13:28 2018
### 

@<TRIPOS>MOLECULE
5duc_ligand
   57    61     1     0     0
SMALL
GAST_HUCK


@<TRIPOS>ATOM
      1 O22        -5.6660   32.4980  -37.6490 O.2       1 G51        -0.4104
      2 C20        -6.1790   33.4590  -38.2130 C.2       1 G51         0.1724
      3 N21        -5.8990   33.8220  -39.4660 N.am      1 G51        -0.2846
      4 C23        -4.9730   33.2060  -40.4030 C.3       1 G51         0.0555
      5 C24        -5.8370   32.4720  -41.4060 C.ar      1 G51        -0.0409
      6 C29        -5.4210   32.3110  -42.7420 C.ar      1 G51        -0.0782
      7 C28        -6.2230   31.6360  -43.6740 C.ar      1 G51        -0.0477
      8 C27        -7.4430   31.1400  -43.2220 C.ar      1 G51         0.1160
      9 O40        -8.3980   30.4390  -43.9100 O.3       1 G51        -0.2956
     10 C41        -9.3970   30.0020  -42.9610 C.3       1 G51         0.1854
     11 O42        -9.0750   30.6960  -41.7390 O.3       1 G51        -0.2927
     12 C26        -7.8520   31.2940  -41.9180 C.ar      1 G51         0.1170
     13 C25        -7.0690   31.9600  -40.9820 C.ar      1 G51        -0.0378
     14 C17        -7.2000   34.2640  -37.4940 C.2       1 G51         0.0778
     15 C18        -8.1930   35.1260  -37.9670 C.2       1 G51        -0.0063
     16 N19        -8.8900   35.6280  -36.8980 N.2       1 G51        -0.2350
     17 N4         -8.3370   35.0770  -35.7260 N.pl3     1 G51        -0.1710
     18 C3         -8.8850   35.4470  -34.4200 C.3       1 G51         0.1798
     19 C13        -9.2050   36.9220  -34.4880 C.3       1 G51         0.4212
     20 F57       -10.0830   37.1690  -35.4420 F         1 G51        -0.1674
     21 F56        -9.7100   37.2560  -33.3220 F         1 G51        -0.1674
     22 F58        -8.1110   37.6120  -34.7570 F         1 G51        -0.1674
     23 C5         -7.3400   34.3040  -36.0320 C.2       1 G51         0.1845
     24 N6         -6.6840   33.6370  -35.0700 N.pl3     1 G51        -0.2746
     25 C1         -7.2020   33.7240  -33.7110 C.3       1 G51         0.0758
     26 C2         -7.8190   35.0920  -33.3900 C.3       1 G51         0.0198
     27 C7         -6.1250   33.3920  -32.7560 C.ar      1 G51        -0.0243
     28 C12        -4.8220   33.8370  -32.9540 C.ar      1 G51        -0.0646
     29 C11        -3.8380   33.4990  -32.0280 C.ar      1 G51        -0.0668
     30 C10        -4.1590   32.7320  -30.9140 C.ar      1 G51        -0.0500
     31 C32        -3.1000   32.3610  -29.9060 C.3       1 G51        -0.0251
     32 C33        -1.8300   31.9520  -30.6110 C.3       1 G51        -0.0563
     33 C9         -5.4620   32.2940  -30.7300 C.ar      1 G51        -0.0668
     34 C8         -6.4420   32.6240  -31.6490 C.ar      1 G51        -0.0646
     35 H1         -6.3909   34.6236  -39.8057 H         1 G51         0.1852
     36 H2         -4.3092   32.5018  -39.8800 H         1 G51         0.0658
     37 H3         -4.3684   33.9746  -40.9068 H         1 G51         0.0658
     38 H4         -4.4652   32.7154  -43.0551 H         1 G51         0.0437
     39 H5         -5.9064   31.5060  -44.7026 H         1 G51         0.0493
     40 H6         -9.3415   28.9133  -42.8141 H         1 G51         0.0970
     41 H7        -10.4050   30.2744  -43.3069 H         1 G51         0.0970
     42 H8         -7.4016   32.0790  -39.9572 H         1 G51         0.0451
     43 H9         -8.3824   35.3607  -39.0134 H         1 G51         0.0639
     44 H10        -9.8045   34.8829  -34.2049 H         1 G51         0.0757
     45 H11        -5.8430   33.0825  -35.2850 H         1 G51         0.1891
     46 H12        -7.9972   32.9712  -33.6062 H         1 G51         0.0711
     47 H13        -8.2773   35.0577  -32.3906 H         1 G51         0.0342
     48 H14        -7.0301   35.8584  -33.4055 H         1 G51         0.0342
     49 H15        -4.5750   34.4405  -33.8199 H         1 G51         0.0540
     50 H16        -2.8182   33.8353  -32.1766 H         1 G51         0.0540
     51 H17        -3.4607   31.5228  -29.2918 H         1 G51         0.0410
     52 H18        -2.8941   33.2270  -29.2598 H         1 G51         0.0410
     53 H19        -1.0667   31.6843  -29.8655 H         1 G51         0.0250
     54 H20        -1.4654   32.7889  -31.2247 H         1 G51         0.0250
     55 H21        -2.0320   31.0846  -31.2566 H         1 G51         0.0250
     56 H22        -5.7130   31.6918  -29.8643 H         1 G51         0.0540
     57 H23        -7.4596   32.2806  -31.5019 H         1 G51         0.0540
@<TRIPOS>BOND
     1    1    2 2  
     2    2    3 am 
     3    2   14 1  
     4    3    4 1  
     5    4    5 1  
     6    5    6 ar 
     7    5   13 ar 
     8    6    7 ar 
     9    7    8 ar 
    10    8    9 1  
    11    8   12 ar 
    12    9   10 1  
    13   10   11 1  
    14   11   12 1  
    15   12   13 ar 
    16   14   15 1  
    17   14   23 2  
    18   15   16 2  
    19   16   17 1  
    20   17   18 1  
    21   17   23 1  
    22   18   19 1  
    23   18   26 1  
    24   19   20 1  
    25   19   21 1  
    26   19   22 1  
    27   23   24 1  
    28   24   25 1  
    29   25   26 1  
    30   25   27 1  
    31   27   28 ar 
    32   27   34 ar 
    33   28   29 ar 
    34   29   30 ar 
    35   30   31 1  
    36   30   33 ar 
    37   31   32 1  
    38   33   34 ar 
    39    3   35 1  
    40    4   36 1  
    41    4   37 1  
    42    6   38 1  
    43    7   39 1  
    44   10   40 1  
    45   10   41 1  
    46   13   42 1  
    47   15   43 1  
    48   18   44 1  
    49   24   45 1  
    50   25   46 1  
    51   26   47 1  
    52   26   48 1  
    53   28   49 1  
    54   29   50 1  
    55   31   51 1  
    56   31   52 1  
    57   32   53 1  
    58   32   54 1  
    59   32   55 1  
    60   33   56 1  
    61   34   57 1  
@<TRIPOS>SUBSTRUCTURE
     1 G51         1

