### 
### Created by X-TOOL on Mon Sep 10 21:13:27 2018
### 

@<TRIPOS>MOLECULE
5duf_ligand
   39    41     1     0     0
SMALL
GAST_HUCK


@<TRIPOS>ATOM
      1 O21       -46.9910   12.9330   11.5160 O.co2     1 G7A        -0.5762
      2 C20       -47.5880   11.9190   11.1190 C.2       1 G7A         0.0321
      3 O22       -48.4180   11.3260   11.8430 O.co2     1 G7A        -0.5762
      4 C17       -47.3620   11.4070    9.7370 C.2       1 G7A         0.0370
      5 C18       -47.8650   10.2690    9.1040 C.2       1 G7A        -0.0133
      6 N19       -47.4010   10.2200    7.8230 N.2       1 G7A        -0.2383
      7 N4        -46.5910   11.3530    7.6650 N.pl3     1 G7A        -0.1745
      8 C3        -45.9460   11.6440    6.3710 C.3       1 G7A         0.1790
      9 C13       -45.4380   10.3970    5.6480 C.3       1 G7A         0.4211
     10 F57       -46.4400    9.5860    5.3200 F         1 G7A        -0.1674
     11 F56       -44.8290   10.7730    4.5430 F         1 G7A        -0.1674
     12 F58       -44.5780    9.7540    6.4160 F         1 G7A        -0.1674
     13 C5        -46.5910   12.0410    8.7760 C.2       1 G7A         0.1756
     14 N6        -45.8590   13.1960    8.8740 N.pl3     1 G7A        -0.2775
     15 C1        -45.2920   13.7810    7.6460 C.3       1 G7A         0.0748
     16 C2        -44.8380   12.6490    6.7030 C.3       1 G7A         0.0195
     17 C7        -44.1390   14.6670    7.9710 C.ar      1 G7A        -0.0245
     18 C12       -43.1530   14.2830    8.8860 C.ar      1 G7A        -0.0646
     19 C11       -42.0840   15.1290    9.1800 C.ar      1 G7A        -0.0668
     20 C10       -41.9760   16.3760    8.5630 C.ar      1 G7A        -0.0500
     21 C32       -40.8190   17.2960    8.8830 C.3       1 G7A        -0.0251
     22 C33       -40.7750   17.6050   10.3640 C.3       1 G7A        -0.0563
     23 C9        -42.9550   16.7590    7.6570 C.ar      1 G7A        -0.0668
     24 C8        -44.0180   15.9170    7.3610 C.ar      1 G7A        -0.0646
     25 H1        -48.5255    9.5344    9.5623 H         1 G7A         0.0624
     26 H2        -46.6791   12.1279    5.7089 H         1 G7A         0.0756
     27 H3        -45.7083   13.6461    9.7881 H         1 G7A         0.1874
     28 H4        -46.0675   14.3779    7.1436 H         1 G7A         0.0709
     29 H5        -44.4849   13.0998    5.7638 H         1 G7A         0.0342
     30 H6        -44.0101   12.1073    7.1838 H         1 G7A         0.0342
     31 H7        -43.2207   13.3165    9.3722 H         1 G7A         0.0540
     32 H8        -41.3308   14.8153    9.8937 H         1 G7A         0.0540
     33 H9        -40.9380   18.2345    8.3218 H         1 G7A         0.0410
     34 H10       -39.8780   16.8089    8.5877 H         1 G7A         0.0410
     35 H11       -39.9276   18.2742   10.5739 H         1 G7A         0.0250
     36 H12       -40.6526   16.6699   10.9302 H         1 G7A         0.0250
     37 H13       -41.7127   18.0955   10.6643 H         1 G7A         0.0250
     38 H14       -42.8887   17.7275    7.1746 H         1 G7A         0.0540
     39 H15       -44.7666   16.2352    6.6444 H         1 G7A         0.0540
@<TRIPOS>BOND
     1    1    2 ar 
     2    2    3 ar 
     3    2    4 1  
     4    4    5 1  
     5    4   13 2  
     6    5    6 2  
     7    6    7 1  
     8    7    8 1  
     9    7   13 1  
    10    8    9 1  
    11    8   16 1  
    12    9   10 1  
    13    9   11 1  
    14    9   12 1  
    15   13   14 1  
    16   14   15 1  
    17   15   16 1  
    18   15   17 1  
    19   17   18 ar 
    20   17   24 ar 
    21   18   19 ar 
    22   19   20 ar 
    23   20   21 1  
    24   20   23 ar 
    25   21   22 1  
    26   23   24 ar 
    27    5   25 1  
    28    8   26 1  
    29   14   27 1  
    30   15   28 1  
    31   16   29 1  
    32   16   30 1  
    33   18   31 1  
    34   19   32 1  
    35   21   33 1  
    36   21   34 1  
    37   22   35 1  
    38   22   36 1  
    39   22   37 1  
    40   23   38 1  
    41   24   39 1  
@<TRIPOS>SUBSTRUCTURE
     1 G7A         1

