### 
### Created by X-TOOL on Mon Sep 10 21:13:26 2018
### 

@<TRIPOS>MOLECULE
5duw_ligand
   48    49     1     0     0
SMALL
GAST_HUCK


@<TRIPOS>ATOM
      1 C1         77.2280  -14.5460  -51.1760 C.3       1 5GO         0.1885
      2 C2         78.0330  -13.5830  -52.0260 C.3       1 5GO         0.1366
      3 C3         77.5030  -12.1600  -51.9420 C.3       1 5GO         0.1433
      4 C4         75.9780  -12.1340  -52.1070 C.3       1 5GO         0.1144
      5 C5         75.3090  -13.1660  -51.1910 C.3       1 5GO         0.1131
      6 C6         73.7960  -13.2690  -51.3640 C.3       1 5GO         0.0730
      7 O1         77.7200  -15.8380  -51.5220 O.3       1 5GO        -0.3401
      8 O2         79.3930  -13.6030  -51.5610 O.3       1 5GO        -0.3840
      9 O3         78.1520  -11.4110  -52.9640 O.3       1 5GO        -0.2570
     10 O4         75.6890  -12.4470  -53.4760 O.3       1 5GO        -0.3864
     11 O5         75.8370  -14.4710  -51.4770 O.3       1 5GO        -0.3405
     12 O6         73.2730  -14.2980  -50.5030 O.3       1 5GO        -0.3924
     13 C1'        77.2390  -19.6640  -50.0370 C.3       1 5GO         0.1854
     14 C2'        76.2230  -19.2190  -51.0870 C.3       1 5GO         0.1339
     15 C3'        76.6900  -17.9520  -51.7810 C.3       1 5GO         0.1144
     16 C4'        77.0940  -16.8790  -50.7700 C.3       1 5GO         0.1184
     17 C5'        78.0530  -17.4710  -49.7440 C.3       1 5GO         0.1134
     18 C6'        78.4680  -16.4720  -48.6740 C.3       1 5GO         0.0730
     19 O1'        76.6600  -20.7750  -49.3550 O.3       1 5GO        -0.3649
     20 O2'        76.0550  -20.2470  -52.0750 O.3       1 5GO        -0.3841
     21 O3'        75.6550  -17.4860  -52.6430 O.3       1 5GO        -0.3864
     22 O5'        77.4400  -18.5970  -49.1070 O.3       1 5GO        -0.3407
     23 O6'        77.3500  -15.9520  -47.9580 O.3       1 5GO        -0.3924
     24 S          78.4550   -9.8800  -52.6920 S.o2      1 5GO        -0.0733
     25 OS1        77.3110   -9.1320  -52.1460 O.co2     1 5GO        -0.4611
     26 OS2        78.8820   -9.3240  -54.0090 O.co2     1 5GO        -0.4611
     27 OS3        79.6020   -9.9320  -51.8090 O.co2     1 5GO        -0.4611
     28 H1         77.3852  -14.3396  -50.1070 H         1 5GO         0.0938
     29 H2         77.9959  -13.9143  -53.0743 H         1 5GO         0.0672
     30 H3         77.7564  -11.7321  -50.9608 H         1 5GO         0.0674
     31 H4         75.5964  -11.1316  -51.8628 H         1 5GO         0.0648
     32 H5         75.5296  -12.8948  -50.1480 H         1 5GO         0.0647
     33 H6         73.5646  -13.5167  -52.4105 H         1 5GO         0.0584
     34 H7         73.3328  -12.3058  -51.1041 H         1 5GO         0.0584
     35 H8         79.4231  -13.3016  -50.6605 H         1 5GO         0.2101
     36 H9         76.1047  -11.8061  -54.0408 H         1 5GO         0.2100
     37 H10        73.6720  -15.1304  -50.7277 H         1 5GO         0.2095
     38 H11        78.1920  -19.9468  -50.5079 H         1 5GO         0.0935
     39 H12        75.2592  -19.0272  -50.5928 H         1 5GO         0.0671
     40 H13        77.5718  -18.1937  -52.3925 H         1 5GO         0.0648
     41 H14        76.2052  -16.4878  -50.2533 H         1 5GO         0.0651
     42 H15        78.9569  -17.8069  -50.2733 H         1 5GO         0.0647
     43 H16        78.9990  -15.6377  -49.1555 H         1 5GO         0.0584
     44 H17        79.1412  -16.9737  -47.9633 H         1 5GO         0.0584
     45 H18        76.5246  -21.4868  -49.9694 H         1 5GO         0.2126
     46 H19        75.4076  -19.9693  -52.7124 H         1 5GO         0.2101
     47 H20        74.8929  -17.2552  -52.1249 H         1 5GO         0.2100
     48 H21        77.6541  -15.3350  -47.3028 H         1 5GO         0.2095
@<TRIPOS>BOND
     1    1    2 1  
     2    7    1 1  
     3    1   11 1  
     4    2    3 1  
     5    2    8 1  
     6    3    4 1  
     7    3    9 1  
     8    5    4 1  
     9    4   10 1  
    10    5    6 1  
    11   11    5 1  
    12    6   12 1  
    13   16    7 1  
    14    9   24 1  
    15   14   13 1  
    16   13   19 1  
    17   13   22 1  
    18   15   14 1  
    19   14   20 1  
    20   15   16 1  
    21   15   21 1  
    22   16   17 1  
    23   17   18 1  
    24   17   22 1  
    25   18   23 1  
    26   24   25 ar 
    27   24   26 ar 
    28   24   27 ar 
    29    1   28 1  
    30    2   29 1  
    31    3   30 1  
    32    4   31 1  
    33    5   32 1  
    34    6   33 1  
    35    6   34 1  
    36    8   35 1  
    37   10   36 1  
    38   12   37 1  
    39   13   38 1  
    40   14   39 1  
    41   15   40 1  
    42   16   41 1  
    43   17   42 1  
    44   18   43 1  
    45   18   44 1  
    46   19   45 1  
    47   20   46 1  
    48   21   47 1  
    49   23   48 1  
@<TRIPOS>SUBSTRUCTURE
     1 5GO         1

