### 
### Created by X-TOOL on Mon Sep 10 21:13:28 2018
### 

@<TRIPOS>MOLECULE
5dv4_ligand
   94    97     1     0     0
SMALL
GAST_HUCK


@<TRIPOS>ATOM
      1 C1        -29.6200   13.5530   11.1810 C.3       1 NMY         0.2061
      2 O1        -29.4620   14.2940   12.4020 O.3       1 NMY        -0.3347
      3 C2        -30.9310   12.8060   11.2190 C.3       1 NMY         0.0568
      4 N2        -30.7710   11.5490   10.5520 N.4       1 NMY         0.2263
      5 C3        -32.1300   13.5470   10.6170 C.3       1 NMY         0.1305
      6 O3        -33.2320   13.5190   11.4880 O.3       1 NMY        -0.3834
      7 C4        -31.7160   14.9720   10.2490 C.3       1 NMY         0.1176
      8 O4        -32.7740   15.6180    9.6010 O.3       1 NMY        -0.3862
      9 C5        -30.5480   14.9000    9.3080 C.3       1 NMY         0.1296
     10 O5        -29.4750   14.3720   10.0210 O.3       1 NMY        -0.3351
     11 C6        -30.1880   16.2950    8.7200 C.3       1 NMY        -0.0058
     12 C7        -27.3040   13.5430   15.9870 C.3       1 NMY         0.0100
     13 N7        -27.4800   14.8170   16.5310 N.4       1 NMY         0.2228
     14 C12       -28.6600   12.8540   15.7500 C.3       1 NMY         0.1264
     15 C11       -29.4380   13.6350   14.7100 C.3       1 NMY         0.1242
     16 O11       -29.4600   14.9790   15.1040 O.3       1 NMY        -0.3399
     17 C10       -28.7210   13.5570   13.3650 C.3       1 NMY         0.1330
     18 C9        -27.3670   14.1910   13.5120 C.3       1 NMY         0.0104
     19 N9        -27.5000   15.5930   13.6940 N.4       1 NMY         0.2228
     20 C8        -26.5420   13.6140   14.6660 C.3       1 NMY         0.0381
     21 C13       -30.7910   15.4580   15.2840 C.3       1 NMY         0.1885
     22 C14       -31.6890   14.4160   15.7810 C.3       1 NMY         0.1345
     23 C15       -32.2300   14.9020   17.0280 C.3       1 NMY         0.1207
     24 C16       -31.2580   15.8460   17.5240 C.3       1 NMY         0.1135
     25 O16       -30.7610   16.5280   16.3080 O.3       1 NMY        -0.3405
     26 C17       -30.1920   15.0830   18.2400 C.3       1 NMY         0.0730
     27 C21       -35.2970   18.5330   18.6740 C.3       1 NMY         0.1176
     28 C20       -36.1400   17.6060   17.8400 C.3       1 NMY         0.1305
     29 C19       -35.2910   16.8510   16.8940 C.3       1 NMY         0.0568
     30 C18       -34.1380   16.2090   17.6170 C.3       1 NMY         0.2059
     31 O18       -33.3660   15.6680   16.5810 O.3       1 NMY        -0.3377
     32 C22       -34.2450   17.7300   19.3620 C.3       1 NMY         0.1296
     33 O22       -33.4620   17.1950   18.3540 O.3       1 NMY        -0.3351
     34 C23       -33.5100   18.4790   20.4680 C.3       1 NMY        -0.0058
     35 N6        -31.2990   17.0080    8.1370 N.4       1 NMY         0.2204
     36 O14       -32.8330   14.2780   14.8830 O.3       1 NMY        -0.3841
     37 O20       -36.7250   16.7040   18.7240 O.3       1 NMY        -0.3834
     38 O21       -34.6680   19.4420   17.8400 O.3       1 NMY        -0.3862
     39 O17       -30.6760   13.7740   18.4820 O.3       1 NMY        -0.3924
     40 O12       -28.4570   11.5520   15.3370 O.3       1 NMY        -0.3835
     41 N19       -33.1110   17.5680   21.5180 N.4       1 NMY         0.2204
     42 N23       -34.7610   17.7560   15.9140 N.4       1 NMY         0.2263
     43 H1        -28.8157   12.8037   11.1423 H         1 NMY         0.0970
     44 H2        -31.1655   12.6128   12.2762 H         1 NMY         0.0927
     45 H3        -31.6431   11.0440   10.5733 H         1 NMY         0.2000
     46 H4        -30.0588   11.0093   11.0184 H         1 NMY         0.2000
     47 H5        -30.4986   11.7088    9.5948 H         1 NMY         0.2000
     48 H6        -32.4238   13.0299    9.6917 H         1 NMY         0.0679
     49 H7        -33.9593   13.9840   11.0917 H         1 NMY         0.2102
     50 H8        -31.4375   15.5278   11.1565 H         1 NMY         0.0649
     51 H9        -32.9986   15.1408    8.8109 H         1 NMY         0.2100
     52 H10       -30.7981   14.2265    8.4751 H         1 NMY         0.0678
     53 H11       -29.4255   16.1519    7.9402 H         1 NMY         0.0840
     54 H12       -29.7724   16.9117    9.5305 H         1 NMY         0.0840
     55 H13       -26.7211   12.9399   16.6987 H         1 NMY         0.0878
     56 H14       -26.5802   15.2473   16.6769 H         1 NMY         0.1998
     57 H15       -27.9635   14.7422   17.4123 H         1 NMY         0.1998
     58 H16       -28.0233   15.3812   15.8965 H         1 NMY         0.1998
     59 H17       -29.2301   12.8438   16.6906 H         1 NMY         0.0677
     60 H18       -30.4605   13.2391   14.6218 H         1 NMY         0.0653
     61 H19       -28.6204   12.5088   13.0471 H         1 NMY         0.0681
     62 H20       -26.8126   14.0111   12.5791 H         1 NMY         0.0878
     63 H21       -26.5863   16.0073   13.7914 H         1 NMY         0.1998
     64 H22       -28.0413   15.7741   14.5248 H         1 NMY         0.1998
     65 H23       -27.9667   15.9928   12.8950 H         1 NMY         0.1998
     66 H24       -26.2252   12.5968   14.3922 H         1 NMY         0.0377
     67 H25       -25.6548   14.2481   14.8101 H         1 NMY         0.0377
     68 H26       -31.1713   15.8498   14.3291 H         1 NMY         0.0938
     69 H27       -31.1591   13.4600   15.9051 H         1 NMY         0.0671
     70 H28       -32.4793   14.1126   17.7523 H         1 NMY         0.0651
     71 H29       -31.7175   16.5722   18.2106 H         1 NMY         0.0647
     72 H30       -29.9575   15.5764   19.1948 H         1 NMY         0.0584
     73 H31       -29.2854   15.0365   17.6188 H         1 NMY         0.0584
     74 H32       -35.9227   19.0583   19.4106 H         1 NMY         0.0649
     75 H33       -36.9075   18.1715   17.2912 H         1 NMY         0.0679
     76 H34       -35.8942   16.0754   16.3994 H         1 NMY         0.0927
     77 H35       -34.4816   15.4150   18.2963 H         1 NMY         0.0970
     78 H36       -34.7460   16.8880   19.8621 H         1 NMY         0.0678
     79 H37       -34.1753   19.2473   20.8889 H         1 NMY         0.0840
     80 H38       -32.6149   18.9599   20.0466 H         1 NMY         0.0840
     81 H39       -30.9796   17.8959    7.7825 H         1 NMY         0.1995
     82 H40       -32.0056   17.1613    8.8393 H         1 NMY         0.1995
     83 H41       -31.6878   16.4650    7.3820 H         1 NMY         0.1995
     84 H42       -33.2516   15.1237   14.7729 H         1 NMY         0.2101
     85 H43       -37.2743   17.1759   19.3388 H         1 NMY         0.2102
     86 H44       -34.1431   18.9737   17.2014 H         1 NMY         0.2100
     87 H45       -30.0113   13.2710   18.9378 H         1 NMY         0.2095
     88 H46       -29.2969   11.1293   15.2016 H         1 NMY         0.2102
     89 H47       -32.6272   18.0787   22.2400 H         1 NMY         0.1995
     90 H48       -32.4989   16.8635   21.1370 H         1 NMY         0.1995
     91 H49       -33.9287   17.1269   21.9089 H         1 NMY         0.1995
     92 H50       -35.5201   18.1967   15.4183 H         1 NMY         0.2000
     93 H51       -34.1853   17.2461   15.2623 H         1 NMY         0.2000
     94 H52       -34.2055   18.4608   16.3731 H         1 NMY         0.2000
@<TRIPOS>BOND
     1    2    1 1  
     2    1    3 1  
     3    1   10 1  
     4   17    2 1  
     5    3    4 1  
     6    3    5 1  
     7    5    6 1  
     8    5    7 1  
     9    7    8 1  
    10    9    7 1  
    11   10    9 1  
    12    9   11 1  
    13   11   35 1  
    14   12   13 1  
    15   14   12 1  
    16   12   20 1  
    17   15   14 1  
    18   14   40 1  
    19   16   15 1  
    20   15   17 1  
    21   21   16 1  
    22   17   18 1  
    23   18   19 1  
    24   18   20 1  
    25   22   21 1  
    26   25   21 1  
    27   23   22 1  
    28   22   36 1  
    29   23   24 1  
    30   31   23 1  
    31   24   25 1  
    32   24   26 1  
    33   26   39 1  
    34   28   27 1  
    35   27   32 1  
    36   27   38 1  
    37   29   28 1  
    38   28   37 1  
    39   30   29 1  
    40   29   42 1  
    41   30   31 1  
    42   30   33 1  
    43   32   33 1  
    44   32   34 1  
    45   34   41 1  
    46    1   43 1  
    47    3   44 1  
    48    4   45 1  
    49    4   46 1  
    50    4   47 1  
    51    5   48 1  
    52    6   49 1  
    53    7   50 1  
    54    8   51 1  
    55    9   52 1  
    56   11   53 1  
    57   11   54 1  
    58   12   55 1  
    59   13   56 1  
    60   13   57 1  
    61   13   58 1  
    62   14   59 1  
    63   15   60 1  
    64   17   61 1  
    65   18   62 1  
    66   19   63 1  
    67   19   64 1  
    68   19   65 1  
    69   20   66 1  
    70   20   67 1  
    71   21   68 1  
    72   22   69 1  
    73   23   70 1  
    74   24   71 1  
    75   26   72 1  
    76   26   73 1  
    77   27   74 1  
    78   28   75 1  
    79   29   76 1  
    80   30   77 1  
    81   32   78 1  
    82   34   79 1  
    83   34   80 1  
    84   35   81 1  
    85   35   82 1  
    86   35   83 1  
    87   36   84 1  
    88   37   85 1  
    89   38   86 1  
    90   39   87 1  
    91   40   88 1  
    92   41   89 1  
    93   41   90 1  
    94   41   91 1  
    95   42   92 1  
    96   42   93 1  
    97   42   94 1  
@<TRIPOS>SUBSTRUCTURE
     1 NMY         1

