### 
### Created by X-TOOL on Mon Sep 10 21:13:30 2018
### 

@<TRIPOS>MOLECULE
5dva_ligand
   23    24     1     0     0
SMALL
GAST_HUCK


@<TRIPOS>ATOM
      1 C1         99.4120  251.4850    6.0610 C.ar      1 5FL        -0.0271
      2 C2         98.1700  251.2210    5.4930 C.ar      1 5FL         0.0015
      3 C3         98.0200  250.0030    4.8390 C.ar      1 5FL        -0.0271
      4 C4         99.0900  249.1320    4.7740 C.ar      1 5FL         0.0102
      5 C5         97.0650  252.2100    5.5510 C.ar      1 5FL        -0.0053
      6 C6         97.3300  253.5750    5.4450 C.ar      1 5FL        -0.0368
      7 C7         96.3040  254.5130    5.4330 C.ar      1 5FL         0.0126
      8 C8         94.9890  254.0800    5.5470 C.ar      1 5FL        -0.0460
      9 O          97.8870  256.2360    5.1800 O.co2     1 5FL        -0.5606
     10 C11        96.6180  255.9600    5.2820 C.2       1 5FL         0.0634
     11 O1         95.7370  256.8100    5.2430 O.co2     1 5FL        -0.5606
     12 C9         94.7090  252.7320    5.6660 C.ar      1 5FL        -0.0559
     13 C10        95.7370  251.8040    5.6680 C.ar      1 5FL        -0.0486
     14 C         100.4230  250.5500    5.9460 C.ar      1 5FL         0.0102
     15 N         100.2840  249.3830    5.3150 N.ar      1 5FL        -0.2988
     16 H1         99.5852  252.4157    6.5890 H         1 5FL         0.0712
     17 H2         97.0719  249.7395    4.3843 H         1 5FL         0.0712
     18 H3         98.9521  248.1909    4.2540 H         1 5FL         0.0820
     19 H4         98.3577  253.9118    5.3704 H         1 5FL         0.0674
     20 H5         94.1801  254.8016    5.5426 H         1 5FL         0.0664
     21 H6         93.6813  252.3998    5.7581 H         1 5FL         0.0629
     22 H7         95.5059  250.7491    5.7617 H         1 5FL         0.0659
     23 H8        101.3835  250.7778    6.3940 H         1 5FL         0.0820
@<TRIPOS>BOND
     1    1    2 ar 
     2    1   14 ar 
     3    2    3 ar 
     4    2    5 1  
     5    3    4 ar 
     6    4   15 ar 
     7    5    6 ar 
     8    5   13 ar 
     9    6    7 ar 
    10    7    8 ar 
    11    7   10 1  
    12    8   12 ar 
    13   10    9 ar 
    14   10   11 ar 
    15   12   13 ar 
    16   14   15 ar 
    17    1   16 1  
    18    3   17 1  
    19    4   18 1  
    20    6   19 1  
    21    8   20 1  
    22   12   21 1  
    23   13   22 1  
    24   14   23 1  
@<TRIPOS>SUBSTRUCTURE
     1 5FL         1

