### 
### Created by X-TOOL on Mon Sep 10 21:13:26 2018
### 

@<TRIPOS>MOLECULE
5dw1_ligand
   61    64     1     0     0
SMALL
GAST_HUCK


@<TRIPOS>ATOM
      1 C3         22.0430   14.3500   -5.9770 C.ar      1 5GD         0.0024
      2 C5         20.7080   13.8660   -7.9200 C.2       1 5GD         0.2215
      3 C2         23.2790   14.5590   -5.4020 C.ar      1 5GD        -0.0348
      4 C1         24.4590   14.4830   -6.0730 C.ar      1 5GD         0.0796
      5 C8         18.6720   14.2090   -3.5560 C.ar      1 5GD        -0.0529
      6 C12        14.6680   13.1300   -2.1520 C.3       1 5GD         0.1091
      7 C9         17.5530   14.2530   -2.7520 C.ar      1 5GD        -0.0134
      8 C11        16.2820   14.4240   -3.2870 C.ar      1 5GD         0.1037
      9 C10        17.8630   14.1540   -1.2410 C.3       1 5GD        -0.0328
     10 C13        13.8100   13.2910   -0.8760 C.3       1 5GD        -0.0036
     11 C14        12.2610   14.7940    0.2100 C.3       1 5GD        -0.0316
     12 C19        14.7190   14.6050   -5.3110 C.3       1 5GD        -0.0328
     13 C20        17.2180   14.4720   -5.4620 C.ar      1 5GD        -0.0529
     14 C21        23.1970   14.0150   -8.0570 C.ar      1 5GD         0.0986
     15 C17        12.0850   14.3630   -2.1630 C.3       1 5GD        -0.0316
     16 C18        16.0720   14.5380   -4.6900 C.ar      1 5GD        -0.0134
     17 C22        24.4120   14.0210  -10.2140 C.3       1 5GD         0.0607
     18 O1         20.5190   13.4700   -9.1060 O.2       1 5GD        -0.3966
     19 C4         22.0400   14.0380   -7.3690 C.ar      1 5GD         0.0799
     20 O3         23.1840   13.7940   -9.4550 O.3       1 5GD        -0.3202
     21 C23        24.4340   14.1830   -7.4510 C.ar      1 5GD        -0.0062
     22 O          25.7200   14.6130   -5.6320 O.3       1 5GD        -0.3230
     23 C          25.8520   14.8910   -4.2190 C.3       1 5GD         0.0600
     24 N          19.6000   13.9610   -7.1280 N.am      1 5GD        -0.2048
     25 C6         19.7070   14.2980   -5.7880 C.2       1 5GD         0.1489
     26 N1         20.9110   14.4760   -5.2710 N.2       1 5GD        -0.3082
     27 C7         18.4830   14.3800   -4.9620 C.ar      1 5GD         0.0219
     28 O2         15.1620   14.4310   -2.4920 O.3       1 5GD        -0.3140
     29 N2         13.0300   14.5140   -1.0230 N.4       1 5GD         0.2371
     30 C16        10.6850   14.5150   -1.5910 C.3       1 5GD        -0.0077
     31 C15        10.9050   14.1890   -0.1290 C.3       1 5GD        -0.0077
     32 H1         23.3118   14.7997   -4.3456 H         1 5GD         0.0390
     33 H2         19.6591   14.0505   -3.1369 H         1 5GD         0.0544
     34 H3         14.0530   12.7331   -2.9731 H         1 5GD         0.0666
     35 H4         15.5075   12.4459   -1.9589 H         1 5GD         0.0666
     36 H5         18.9454   14.0213   -1.0967 H         1 5GD         0.0367
     37 H6         17.3278   13.2938   -0.8125 H         1 5GD         0.0367
     38 H7         17.5365   15.0764   -0.7385 H         1 5GD         0.0367
     39 H8         14.4612   13.3650    0.0074 H         1 5GD         0.0841
     40 H9         13.1373   12.4279   -0.7645 H         1 5GD         0.0841
     41 H10        12.1824   15.8751    0.3970 H         1 5GD         0.0814
     42 H11        12.7122   14.3025    1.0845 H         1 5GD         0.0814
     43 H12        14.8206   14.6902   -6.4030 H         1 5GD         0.0367
     44 H13        14.1806   15.4824   -4.9233 H         1 5GD         0.0367
     45 H14        14.1571   13.6918   -5.0653 H         1 5GD         0.0367
     46 H15        17.1021   14.4950   -6.5395 H         1 5GD         0.0544
     47 H16        12.2011   13.3706   -2.6231 H         1 5GD         0.0814
     48 H17        12.2731   15.1412   -2.9173 H         1 5GD         0.0814
     49 H18        24.2311   13.8049  -11.2773 H         1 5GD         0.0581
     50 H19        25.2049   13.3593   -9.8351 H         1 5GD         0.0581
     51 H20        24.7244   15.0696  -10.1010 H         1 5GD         0.0581
     52 H21        25.3523   14.0867   -8.0189 H         1 5GD         0.0420
     53 H22        26.9176   14.9788   -3.9606 H         1 5GD         0.0579
     54 H23        25.4007   14.0716   -3.6403 H         1 5GD         0.0579
     55 H24        25.3382   15.8341   -3.9813 H         1 5GD         0.0579
     56 H25        18.6974   13.7847   -7.5208 H         1 5GD         0.2481
     57 H26        13.6546   15.2838   -1.2053 H         1 5GD         0.2034
     58 H27         9.9838   13.8072   -2.0571 H         1 5GD         0.0319
     59 H28        10.3100   15.5411   -1.7196 H         1 5GD         0.0319
     60 H29        10.1151   14.6388    0.4905 H         1 5GD         0.0319
     61 H30        10.9176   13.1001    0.0266 H         1 5GD         0.0319
@<TRIPOS>BOND
     1    1    3 ar 
     2    1   19 ar 
     3   26    1 1  
     4    2   18 2  
     5    2   19 1  
     6   24    2 am 
     7    3    4 ar 
     8    4   21 ar 
     9    4   22 1  
    10    5    7 ar 
    11   27    5 ar 
    12    6   10 1  
    13   28    6 1  
    14    7    8 ar 
    15    7    9 1  
    16   16    8 ar 
    17    8   28 1  
    18   10   29 1  
    19   29   11 1  
    20   11   31 1  
    21   16   12 1  
    22   13   16 ar 
    23   27   13 ar 
    24   19   14 ar 
    25   14   20 1  
    26   14   21 ar 
    27   29   15 1  
    28   15   30 1  
    29   20   17 1  
    30   22   23 1  
    31   25   24 1  
    32   25   26 2  
    33   25   27 1  
    34   30   31 1  
    35    3   32 1  
    36    5   33 1  
    37    6   34 1  
    38    6   35 1  
    39    9   36 1  
    40    9   37 1  
    41    9   38 1  
    42   10   39 1  
    43   10   40 1  
    44   11   41 1  
    45   11   42 1  
    46   12   43 1  
    47   12   44 1  
    48   12   45 1  
    49   13   46 1  
    50   15   47 1  
    51   15   48 1  
    52   17   49 1  
    53   17   50 1  
    54   17   51 1  
    55   21   52 1  
    56   23   53 1  
    57   23   54 1  
    58   23   55 1  
    59   24   56 1  
    60   29   57 1  
    61   30   58 1  
    62   30   59 1  
    63   31   60 1  
    64   31   61 1  
@<TRIPOS>SUBSTRUCTURE
     1 5GD         1

