### 
### Created by X-TOOL on Mon Sep 10 21:13:25 2018
### 

@<TRIPOS>MOLECULE
5dw2_ligand
   26    26     1     0     0
SMALL
GAST_HUCK


@<TRIPOS>ATOM
      1 C3         11.7660    6.6960    1.2920 C.ar      1 5GD         0.0397
      2 C5         13.9430    5.5810    1.1680 C.2       1 5GD         0.1811
      3 C2         10.4360    6.9260    0.8240 C.ar      1 5GD        -0.0214
      4 C1          9.9710    6.1760   -0.1870 C.ar      1 5GD         0.0763
      5 C21        12.0630    4.9870   -0.3990 C.ar      1 5GD         0.0936
      6 C22        12.2720    3.0900   -1.8340 C.3       1 5GD         0.0606
      7 O1         14.8290    4.8410    0.6880 O.2       1 5GD        -0.4031
      8 C4         12.5590    5.7490    0.6360 C.ar      1 5GD         0.0834
      9 O3         12.8350    4.0050   -0.9100 O.3       1 5GD        -0.3215
     10 C23        10.7480    5.2290   -0.8300 C.ar      1 5GD        -0.0117
     11 O           8.7150    6.2870   -0.7290 O.3       1 5GD        -0.3238
     12 C           7.7840    7.2060   -0.1490 C.3       1 5GD         0.0600
     13 N          14.2440    6.3210    2.2970 N.am      1 5GD        -0.3057
     14 N1         12.1620    7.4520    2.3700 N.pl3     1 5GD        -0.3365
     15 H1          9.8151    7.6908    1.2763 H         1 5GD         0.0361
     16 H2         13.0379    2.3638   -2.1438 H         1 5GD         0.0581
     17 H3         11.9074    3.6370   -2.7159 H         1 5GD         0.0581
     18 H4         11.4337    2.5588   -1.3596 H         1 5GD         0.0581
     19 H5         10.3417    4.6731   -1.6673 H         1 5GD         0.0374
     20 H6          6.8351    7.1659   -0.7040 H         1 5GD         0.0580
     21 H7          8.1951    8.2250   -0.1990 H         1 5GD         0.0580
     22 H8          7.6060    6.9335    0.9017 H         1 5GD         0.0580
     23 H9         13.5530    6.9206    2.7007 H         1 5GD         0.1796
     24 H10        15.1526    6.2564    2.7096 H         1 5GD         0.1796
     25 H11        11.5098    8.1283    2.7922 H         1 5GD         0.1741
     26 H12        13.1108    7.3421    2.7554 H         1 5GD         0.1741
@<TRIPOS>BOND
     1    1    3 ar 
     2    8    1 ar 
     3    1   14 1  
     4    2    7 2  
     5    2    8 1  
     6    2   13 am 
     7    3    4 ar 
     8    4   10 ar 
     9    4   11 1  
    10    8    5 ar 
    11    5    9 1  
    12    5   10 ar 
    13    9    6 1  
    14   11   12 1  
    15    3   15 1  
    16    6   16 1  
    17    6   17 1  
    18    6   18 1  
    19   10   19 1  
    20   12   20 1  
    21   12   21 1  
    22   12   22 1  
    23   13   23 1  
    24   13   24 1  
    25   14   25 1  
    26   14   26 1  
@<TRIPOS>SUBSTRUCTURE
     1 5GD         1

