### 
### Created by X-TOOL on Mon Sep 10 21:13:23 2018
### 

@<TRIPOS>MOLECULE
5dwr_ligand
   56    59     1     0     0
SMALL
GAST_HUCK


@<TRIPOS>ATOM
      1 C1        -40.9660   -1.8740    4.5420 C.3       1 5H7        -0.0368
      2 C2        -40.8620   -3.0170    5.5460 C.3       1 5H7        -0.0069
      3 C3        -40.7410   -4.4010    4.8800 C.3       1 5H7        -0.0221
      4 C11       -39.0090   -2.8770    0.4690 C.ar      1 5H7         0.0967
      5 C12       -40.9940   -2.5110   -1.0020 C.2       1 5H7         0.2480
      6 C13       -42.4570   -2.2000   -0.8760 C.ar      1 5H7         0.1209
      7 C14       -43.2690   -2.2150   -2.0050 C.ar      1 5H7        -0.0176
      8 C15       -44.6380   -2.1050   -1.8270 C.ar      1 5H7        -0.0041
      9 C16       -45.1360   -1.9630   -0.5540 C.ar      1 5H7         0.1710
     10 C17       -44.2610   -1.9200    0.5320 C.ar      1 5H7         0.0920
     11 C18       -44.7350   -1.7710    1.9400 C.ar      1 5H7         0.0691
     12 C19       -45.6500   -0.7960    2.3210 C.ar      1 5H7         0.1427
     13 C20       -46.1530   -0.6720    3.5920 C.ar      1 5H7        -0.0297
     14 C21       -45.7270   -1.5680    4.5600 C.ar      1 5H7        -0.0640
     15 C22       -44.8000   -2.5500    4.2510 C.ar      1 5H7        -0.0297
     16 C23       -44.3300   -2.6200    2.9600 C.ar      1 5H7         0.1427
     17 F2        -43.3970   -3.5570    2.6630 F         1 5H7        -0.1814
     18 F1        -46.0540    0.0830    1.3780 F         1 5H7        -0.1814
     19 F         -46.4730   -1.8840   -0.3750 F         1 5H7        -0.1699
     20 N3        -42.9350   -2.0310    0.3670 N.ar      1 5H7        -0.2759
     21 O         -40.5010   -2.8530   -2.0760 O.2       1 5H7        -0.3689
     22 N2        -40.3140   -2.4310    0.1650 N.am      1 5H7        -0.2277
     23 C10       -37.9850   -2.8640   -0.4850 C.ar      1 5H7         0.0231
     24 N1        -36.7290   -3.2430   -0.2500 N.ar      1 5H7        -0.3230
     25 C9        -36.4530   -3.6660    0.9820 C.ar      1 5H7        -0.0132
     26 C8        -37.3800   -3.7140    2.0020 C.ar      1 5H7        -0.0458
     27 C7        -38.6900   -3.3130    1.7630 C.ar      1 5H7         0.0020
     28 C5        -39.7190   -3.2860    2.8850 C.3       1 5H7         0.0014
     29 C4        -39.5270   -4.3670    3.9490 C.3       1 5H7         0.0026
     30 N         -40.5840   -5.4540    5.8860 N.4       1 5H7         0.2209
     31 C6        -39.7900   -1.9210    3.5720 C.3       1 5H7        -0.0376
     32 C         -41.0440   -0.5240    5.2440 C.3       1 5H7        -0.0621
     33 H1        -41.8925   -2.0091    3.9647 H         1 5H7         0.0302
     34 H2        -41.7626   -3.0106    6.1776 H         1 5H7         0.0322
     35 H3        -39.9733   -2.8519    6.1729 H         1 5H7         0.0322
     36 H4        -41.6484   -4.6036    4.2922 H         1 5H7         0.0852
     37 H5        -42.8421   -2.3102   -2.9969 H         1 5H7         0.0735
     38 H6        -45.3071   -2.1305   -2.6795 H         1 5H7         0.0726
     39 H7        -46.8663    0.1079    3.8330 H         1 5H7         0.0574
     40 H8        -46.1224   -1.4998    5.5670 H         1 5H7         0.0609
     41 H9        -44.4539   -3.2454    5.0071 H         1 5H7         0.0574
     42 H10       -40.8049   -1.9943    0.9189 H         1 5H7         0.2259
     43 H11       -38.2304   -2.5221   -1.4840 H         1 5H7         0.0679
     44 H12       -35.4413   -3.9914    1.1956 H         1 5H7         0.0671
     45 H13       -37.0887   -4.0629    2.9861 H         1 5H7         0.0601
     46 H14       -40.6958   -3.4691    2.4136 H         1 5H7         0.0461
     47 H15       -39.4152   -5.3455    3.4591 H         1 5H7         0.0344
     48 H16       -38.6233   -4.1452    4.5356 H         1 5H7         0.0344
     49 H17       -41.3904   -5.4638    6.4908 H         1 5H7         0.1997
     50 H18       -39.7562   -5.2757    6.4327 H         1 5H7         0.1997
     51 H19       -40.4975   -6.3472    5.4269 H         1 5H7         0.1997
     52 H20       -38.8561   -1.7452    4.1260 H         1 5H7         0.0292
     53 H21       -39.9173   -1.1380    2.8099 H         1 5H7         0.0292
     54 H22       -41.8994   -0.5193    5.9356 H         1 5H7         0.0232
     55 H23       -41.1733    0.2716    4.4955 H         1 5H7         0.0232
     56 H24       -40.1157   -0.3497    5.8078 H         1 5H7         0.0232
@<TRIPOS>BOND
     1    2    1 1  
     2    1   31 1  
     3    1   32 1  
     4    3    2 1  
     5   29    3 1  
     6    3   30 1  
     7    4   22 1  
     8    4   23 ar 
     9   27    4 ar 
    10    5    6 1  
    11    5   21 2  
    12   22    5 am 
    13    6    7 ar 
    14    6   20 ar 
    15    7    8 ar 
    16    8    9 ar 
    17   10    9 ar 
    18    9   19 1  
    19   10   11 1  
    20   20   10 ar 
    21   11   12 ar 
    22   11   16 ar 
    23   12   13 ar 
    24   12   18 1  
    25   13   14 ar 
    26   15   14 ar 
    27   16   15 ar 
    28   16   17 1  
    29   23   24 ar 
    30   25   24 ar 
    31   26   25 ar 
    32   27   26 ar 
    33   28   27 1  
    34   28   29 1  
    35   28   31 1  
    36    1   33 1  
    37    2   34 1  
    38    2   35 1  
    39    3   36 1  
    40    7   37 1  
    41    8   38 1  
    42   13   39 1  
    43   14   40 1  
    44   15   41 1  
    45   22   42 1  
    46   23   43 1  
    47   25   44 1  
    48   26   45 1  
    49   28   46 1  
    50   29   47 1  
    51   29   48 1  
    52   30   49 1  
    53   30   50 1  
    54   30   51 1  
    55   31   52 1  
    56   31   53 1  
    57   32   54 1  
    58   32   55 1  
    59   32   56 1  
@<TRIPOS>SUBSTRUCTURE
     1 5H7         1

