### 
### Created by X-TOOL on Mon Sep 10 21:13:29 2018
### 

@<TRIPOS>MOLECULE
5dx4_ligand
   45    48     1     0     0
SMALL
GAST_HUCK


@<TRIPOS>ATOM
      1 CAO        -8.6490    5.5150    3.7430 C.3       1 E0C        -0.0402
      2 CAN        -9.2730    6.7530    4.3090 C.3       1 E0C         0.0481
      3 NAA        -9.0270    7.8630    3.3220 N.am      1 E0C        -0.2329
      4 CAE        -9.8070    8.1750    2.2750 C.2       1 E0C         0.2227
      5 OAM       -10.8650    7.6110    1.9570 O.2       1 E0C        -0.3789
      6 CAD        -9.2720    9.2050    1.6100 C.ar      1 E0C         0.0487
      7 CAL        -9.6250    9.8900    0.5210 C.ar      1 E0C        -0.0470
      8 CAK        -8.8140   10.9430    0.0780 C.ar      1 E0C        -0.0578
      9 CAJ        -7.6450   11.2680    0.7770 C.ar      1 E0C        -0.0530
     10 CAI        -7.3130   10.5180    1.9100 C.ar      1 E0C         0.0032
     11 CAC        -8.1550    9.5260    2.2660 C.ar      1 E0C         0.0088
     12 CAB        -7.9880    8.7130    3.3170 C.ar      1 E0C         0.0584
     13 CAF        -6.9150    8.8790    4.1050 C.ar      1 E0C        -0.0611
     14 CAG        -5.9860    9.8960    3.8130 C.ar      1 E0C        -0.0596
     15 CAH        -6.1700   10.7310    2.6990 C.ar      1 E0C         0.0650
     16 NAP        -5.3110   11.7360    2.3780 N.am      1 E0C        -0.1900
     17 SAQ        -3.8010   11.3390    1.7120 S.o2      1 E0C         0.0884
     18 OAR        -3.1660   10.2460    2.5750 O.2       1 E0C        -0.1460
     19 OAS        -2.9160   12.5770    1.6170 O.2       1 E0C        -0.1460
     20 CAT        -4.0050   10.6530    0.0830 C.ar      1 E0C         0.1451
     21 CAU        -3.7130    9.2990   -0.1130 C.ar      1 E0C        -0.0338
     22 CAV        -3.8440    8.7160   -1.3660 C.ar      1 E0C         0.0031
     23 BRA        -3.4610    6.8680   -1.5810 Br        1 E0C        -0.0599
     24 CAW        -4.2680    9.4890   -2.4360 C.ar      1 E0C        -0.0610
     25 CAX        -4.5520   10.8490   -2.2580 C.ar      1 E0C        -0.0282
     26 CAY        -4.4200   11.4490   -0.9970 C.ar      1 E0C         0.1210
     27 OBA        -4.6840   12.7810   -0.7090 O.3       1 E0C        -0.3172
     28 CBB        -5.3070   13.5980   -1.7250 C.3       1 E0C         0.0602
     29 H1         -8.8062    4.6754    4.4361 H         1 E0C         0.0253
     30 H2         -7.5702    5.6787    3.6042 H         1 E0C         0.0253
     31 H3         -9.1122    5.2814    2.7730 H         1 E0C         0.0253
     32 H4         -8.8119    6.9995    5.2768 H         1 E0C         0.0576
     33 H5        -10.3540    6.6022    4.4456 H         1 E0C         0.0576
     34 H6        -10.5311    9.6342   -0.0162 H         1 E0C         0.0678
     35 H7         -9.0914   11.5061   -0.8058 H         1 E0C         0.0592
     36 H8         -7.0111   12.0831    0.4472 H         1 E0C         0.0677
     37 H9         -6.7639    8.2332    4.9625 H         1 E0C         0.0445
     38 H10        -5.1222   10.0355    4.4529 H         1 E0C         0.0386
     39 H11        -5.5645   12.6911    2.5316 H         1 E0C         0.2174
     40 H12        -3.3800    8.6970    0.7247 H         1 E0C         0.0635
     41 H13        -4.3803    9.0385   -3.4155 H         1 E0C         0.0615
     42 H14        -4.8772   11.4441   -3.1037 H         1 E0C         0.0550
     43 H15        -5.4459   14.6191   -1.3401 H         1 E0C         0.0579
     44 H16        -6.2849   13.1702   -1.9909 H         1 E0C         0.0579
     45 H17        -4.6645   13.6268   -2.6173 H         1 E0C         0.0579
@<TRIPOS>BOND
     1    1    2 1  
     2    2    3 1  
     3    3    4 am 
     4    3   12 1  
     5    4    5 2  
     6    4    6 1  
     7    6    7 ar 
     8    6   11 ar 
     9    7    8 ar 
    10    8    9 ar 
    11    9   10 ar 
    12   10   11 ar 
    13   10   15 ar 
    14   11   12 ar 
    15   12   13 ar 
    16   13   14 ar 
    17   14   15 ar 
    18   15   16 1  
    19   16   17 am 
    20   17   18 2  
    21   17   19 2  
    22   17   20 1  
    23   20   21 ar 
    24   20   26 ar 
    25   21   22 ar 
    26   22   23 1  
    27   22   24 ar 
    28   24   25 ar 
    29   25   26 ar 
    30   26   27 1  
    31   27   28 1  
    32    1   29 1  
    33    1   30 1  
    34    1   31 1  
    35    2   32 1  
    36    2   33 1  
    37    7   34 1  
    38    8   35 1  
    39    9   36 1  
    40   13   37 1  
    41   14   38 1  
    42   16   39 1  
    43   21   40 1  
    44   24   41 1  
    45   25   42 1  
    46   28   43 1  
    47   28   44 1  
    48   28   45 1  
@<TRIPOS>SUBSTRUCTURE
     1 E0C         1

