### 
### Created by X-TOOL on Mon Sep 10 21:13:27 2018
### 

@<TRIPOS>MOLECULE
5dxh_ligand
   48    52     1     0     0
SMALL
GAST_HUCK


@<TRIPOS>ATOM
      1 C7         -0.9830    0.3700    1.0860 C.ar      1 5H2        -0.0502
      2 C9          1.4540    0.4860    0.9700 C.ar      1 5H2         0.0068
      3 C10         1.3810    1.8250    0.4760 C.ar      1 5H2         0.0902
      4 O4         -3.9460    0.9970    0.1140 O.2       1 5H2        -0.3662
      5 N5         -2.2000    2.4360    0.4410 N.am      1 5H2        -0.2098
      6 C6         -1.0380    1.6970    0.6590 C.ar      1 5H2         0.0616
      7 C1         -3.8270    4.5620   -0.1680 C.3       1 5H2         0.0668
      8 O2         -4.3390    3.1700   -0.1090 O.3       1 5H2        -0.2620
      9 C3         -3.5000    2.1260    0.1460 C.2       1 5H2         0.3513
     10 C8          0.2680   -0.2290    1.2440 C.ar      1 5H2        -0.0735
     11 O11         2.5050    2.5610    0.2440 O.3       1 5H2        -0.3171
     12 C12         3.5760    2.0860   -0.5640 C.3       1 5H2         0.0773
     13 C13         4.5950    1.4600    0.3530 C.3       1 5H2        -0.0020
     14 C14         4.0770    0.1170    0.8190 C.2       1 5H2        -0.0449
     15 C15         2.7530   -0.2250    1.1210 C.2       1 5H2         0.0285
     16 S16         2.7100   -1.8620    1.6150 S.3       1 5H2        -0.0419
     17 C17         4.4390   -2.0710    1.4730 C.2       1 5H2         0.0765
     18 C18         4.9660   -0.9070    1.0320 C.2       1 5H2        -0.0570
     19 C19         5.1860   -3.2910    1.8350 C.2       1 5H2         0.1713
     20 N20         6.4990   -3.4580    1.7360 N.2       1 5H2        -0.2599
     21 N21         6.8100   -4.6380    2.1560 N.2       1 5H2        -0.2562
     22 C22         5.7410   -5.2800    2.5400 C.2       1 5H2         0.1327
     23 N23         4.6700   -4.4480    2.3820 N.pl3     1 5H2        -0.1756
     24 C24         3.3390   -4.7390    2.7250 C.ar      1 5H2         0.1160
     25 C25         2.4880   -5.3560    1.8170 C.ar      1 5H2        -0.0266
     26 C26         1.1730   -5.6410    2.1770 C.ar      1 5H2        -0.0661
     27 C27         0.6890   -5.3080    3.4360 C.ar      1 5H2        -0.0685
     28 C28         1.5240   -4.6870    4.3530 C.ar      1 5H2        -0.0522
     29 C29         2.8400   -4.4160    3.9930 C.ar      1 5H2         0.0740
     30 CL          3.8560   -3.6400    5.1500 Cl        1 5H2        -0.0744
     31 C31         0.1290    2.4050    0.3680 C.ar      1 5H2        -0.0112
     32 H1         -1.8920   -0.1840    1.2907 H         1 5H2         0.0429
     33 H2         -2.0483    3.4214    0.5181 H         1 5H2         0.2293
     34 H3         -4.6581    5.2495   -0.3839 H         1 5H2         0.0575
     35 H4         -3.0701    4.6410   -0.9622 H         1 5H2         0.0575
     36 H5         -3.3735    4.8272    0.7984 H         1 5H2         0.0575
     37 H6          0.3296   -1.2572    1.5817 H         1 5H2         0.0545
     38 H7          4.0306    2.9229   -1.1143 H         1 5H2         0.0634
     39 H8          3.2036    1.3368   -1.2781 H         1 5H2         0.0634
     40 H9          4.7602    2.1136    1.2222 H         1 5H2         0.0406
     41 H10         5.5430    1.3224   -0.1878 H         1 5H2         0.0406
     42 H11         6.0341   -0.7885    0.8559 H         1 5H2         0.0471
     43 H12         5.7087   -6.3001    2.9198 H         1 5H2         0.1316
     44 H13         2.8474   -5.6158    0.8279 H         1 5H2         0.0582
     45 H14         0.5179   -6.1295    1.4648 H         1 5H2         0.0601
     46 H15        -0.3379   -5.5328    3.7008 H         1 5H2         0.0555
     47 H16         1.1563   -4.4167    5.3362 H         1 5H2         0.0605
     48 H17         0.0527    3.4380    0.0485 H         1 5H2         0.0422
@<TRIPOS>BOND
     1    6    1 ar 
     2    1   10 ar 
     3    3    2 ar 
     4   10    2 ar 
     5    2   15 1  
     6    3   11 1  
     7   31    3 ar 
     8    9    4 2  
     9    5    6 1  
    10    9    5 am 
    11    6   31 ar 
    12    8    7 1  
    13    8    9 1  
    14   11   12 1  
    15   12   13 1  
    16   13   14 1  
    17   14   15 2  
    18   14   18 1  
    19   15   16 1  
    20   16   17 1  
    21   17   18 2  
    22   17   19 1  
    23   19   20 2  
    24   19   23 1  
    25   20   21 1  
    26   21   22 2  
    27   22   23 1  
    28   23   24 1  
    29   24   25 ar 
    30   24   29 ar 
    31   25   26 ar 
    32   26   27 ar 
    33   27   28 ar 
    34   28   29 ar 
    35   29   30 1  
    36    1   32 1  
    37    5   33 1  
    38    7   34 1  
    39    7   35 1  
    40    7   36 1  
    41   10   37 1  
    42   12   38 1  
    43   12   39 1  
    44   13   40 1  
    45   13   41 1  
    46   18   42 1  
    47   22   43 1  
    48   25   44 1  
    49   26   45 1  
    50   27   46 1  
    51   28   47 1  
    52   31   48 1  
@<TRIPOS>SUBSTRUCTURE
     1 5H2         1

