### 
### Created by X-TOOL on Mon Sep 10 21:13:29 2018
### 

@<TRIPOS>MOLECULE
5dxt_ligand
   50    53     1     0     0
SMALL
GAST_HUCK


@<TRIPOS>ATOM
      1 C2        -21.0250   16.0860   31.7730 C.2       1 5H5         0.2075
      2 C4        -19.9520   15.9740   32.8340 C.3       1 5H5         0.1669
      3 C6        -20.2950   16.8850   34.0170 C.3       1 5H5        -0.0164
      4 C8        -17.9960   15.5810   31.3580 C.ar      1 5H5         0.0902
      5 C12       -14.3530   15.9060   28.3420 C.3       1 5H5         0.0999
      6 C15       -14.4050   12.4630   26.9250 C.2       1 5H5         0.0628
      7 C16       -15.4750   11.6310   27.0290 C.2       1 5H5         0.0764
      8 C18       -15.8180   13.2900   28.4110 C.2       1 5H5         0.1318
      9 C19       -16.5140   14.1300   29.4360 C.ar      1 5H5         0.0489
     10 C21       -18.5140   14.4200   30.7710 C.ar      1 5H5        -0.0392
     11 C24       -15.2660    8.8040   24.8360 C.2       1 5H5         0.0528
     12 C27       -17.7900    9.3700   27.3350 C.3       1 5H5         0.0773
     13 N1        -20.8830   16.9490   30.7480 N.am      1 5H5        -0.2984
     14 O3        -22.0030   15.3680   31.8240 O.2       1 5H5        -0.3940
     15 O7        -18.6620   16.3320   32.2980 O.3       1 5H5        -0.2949
     16 C9        -16.7250   16.0100   30.9710 C.ar      1 5H5         0.0001
     17 C10       -15.9770   15.3150   30.0290 C.ar      1 5H5         0.1015
     18 O11       -14.7570   15.7890   29.7010 O.3       1 5H5        -0.3130
     19 C13       -13.6640   14.6120   27.9530 C.3       1 5H5         0.0878
     20 N14       -14.6000   13.5060   27.7720 N.pl3     1 5H5        -0.2381
     21 N17       -16.2950   12.1750   27.9360 N.2       1 5H5        -0.3159
     22 C20       -17.7880   13.7170   29.8350 C.ar      1 5H5        -0.0621
     23 C22       -15.6690   10.3700   26.2800 C.2       1 5H5         0.1530
     24 N23       -14.8600    9.9660   25.3250 N.2       1 5H5        -0.2975
     25 N25       -16.3440    8.4330   25.4680 N.2       1 5H5        -0.1984
     26 N26       -16.6370    9.4220   26.4210 N.pl3     1 5H5        -0.1802
     27 C28       -17.7190    8.1050   28.1920 C.3       1 5H5        -0.0333
     28 C29       -19.0700    9.3280   26.5000 C.3       1 5H5        -0.0333
     29 H1        -19.9110   14.9327   33.1861 H         1 5H5         0.0894
     30 H2        -19.5119   16.7995   34.7847 H         1 5H5         0.0283
     31 H3        -21.2622   16.5823   34.4446 H         1 5H5         0.0283
     32 H4        -20.3571   17.9274   33.6712 H         1 5H5         0.0283
     33 H5        -13.6564   16.7498   28.2295 H         1 5H5         0.0646
     34 H6        -15.2328   16.0690   27.7022 H         1 5H5         0.0646
     35 H7        -13.5426   12.3183   26.2760 H         1 5H5         0.1007
     36 H8        -19.4993   14.0699   31.0569 H         1 5H5         0.0468
     37 H9        -14.7785    8.2488   24.0360 H         1 5H5         0.0851
     38 H10       -17.7921   10.2586   27.9833 H         1 5H5         0.0661
     39 H11       -21.5959   17.0181   30.0501 H         1 5H5         0.1815
     40 H12       -20.0647   17.5204   30.6852 H         1 5H5         0.1815
     41 H13       -16.3116   16.9076   31.4166 H         1 5H5         0.0471
     42 H14       -12.9497   14.3421   28.7448 H         1 5H5         0.0651
     43 H15       -13.1221   14.7720   27.0092 H         1 5H5         0.0651
     44 H16       -18.2152   12.8219   29.3974 H         1 5H5         0.0591
     45 H17       -18.5833    8.0736   28.8717 H         1 5H5         0.0260
     46 H18       -16.7898    8.1125   28.7806 H         1 5H5         0.0260
     47 H19       -17.7329    7.2191   27.5401 H         1 5H5         0.0260
     48 H20       -19.9427    9.2888   27.1685 H         1 5H5         0.0260
     49 H21       -19.0597    8.4350   25.8578 H         1 5H5         0.0260
     50 H22       -19.1286   10.2299   25.8730 H         1 5H5         0.0260
@<TRIPOS>BOND
     1    2    1 1  
     2    1   13 am 
     3    1   14 2  
     4    2    3 1  
     5   15    2 1  
     6   10    4 ar 
     7    4   15 1  
     8   16    4 ar 
     9    5   18 1  
    10   19    5 1  
    11    7    6 2  
    12    6   20 1  
    13    7   21 1  
    14   23    7 1  
    15    8    9 1  
    16    8   20 1  
    17   21    8 2  
    18    9   17 ar 
    19    9   22 ar 
    20   22   10 ar 
    21   24   11 1  
    22   11   25 2  
    23   26   12 1  
    24   12   27 1  
    25   12   28 1  
    26   17   16 ar 
    27   17   18 1  
    28   20   19 1  
    29   23   24 2  
    30   23   26 1  
    31   25   26 1  
    32    2   29 1  
    33    3   30 1  
    34    3   31 1  
    35    3   32 1  
    36    5   33 1  
    37    5   34 1  
    38    6   35 1  
    39   10   36 1  
    40   11   37 1  
    41   12   38 1  
    42   13   39 1  
    43   13   40 1  
    44   16   41 1  
    45   19   42 1  
    46   19   43 1  
    47   22   44 1  
    48   27   45 1  
    49   27   46 1  
    50   27   47 1  
    51   28   48 1  
    52   28   49 1  
    53   28   50 1  
@<TRIPOS>SUBSTRUCTURE
     1 5H5         1

