### 
### Created by X-TOOL on Mon Sep 10 21:13:30 2018
### 

@<TRIPOS>MOLECULE
5dxu_ligand
   50    53     1     0     0
SMALL
GAST_HUCK


@<TRIPOS>ATOM
      1 C2         41.0870   15.4630   35.6970 C.2       1 5H5         0.2075
      2 C4         40.8670   16.6280   34.7660 C.3       1 5H5         0.1669
      3 C6         41.6150   17.8390   35.3320 C.3       1 5H5        -0.0164
      4 C8         38.4550   16.2430   34.1970 C.ar      1 5H5         0.0902
      5 C12        33.7500   16.5550   33.9040 C.3       1 5H5         0.0999
      6 C15        33.0070   13.4050   32.0910 C.2       1 5H5         0.0628
      7 C16        33.8840   12.3790   31.9860 C.2       1 5H5         0.0764
      8 C18        35.0080   14.0860   32.7460 C.2       1 5H5         0.1318
      9 C19        36.1750   14.8670   33.2520 C.ar      1 5H5         0.0489
     10 C21        38.5170   14.8730   33.9150 C.ar      1 5H5        -0.0392
     11 C24        32.4420    9.2650   30.9490 C.2       1 5H5         0.0528
     12 C27        35.9290   10.1710   30.9730 C.3       1 5H5         0.0773
     13 N1         40.5010   15.4760   36.9050 N.am      1 5H5        -0.2984
     14 O3         41.7690   14.5150   35.3520 O.2       1 5H5        -0.3940
     15 O7         39.4850   17.0090   34.6710 O.3       1 5H5        -0.2949
     16 C9         37.2480   16.9090   34.0060 C.ar      1 5H5         0.0001
     17 C10        36.1200   16.2560   33.5440 C.ar      1 5H5         0.1015
     18 O11        34.9950   16.9700   33.3730 O.3       1 5H5        -0.3130
     19 C13        33.0590   15.7760   32.8050 C.3       1 5H5         0.0878
     20 N14        33.6830   14.4790   32.5670 N.pl3     1 5H5        -0.2381
     21 N17        35.0720   12.8370   32.3990 N.2       1 5H5        -0.3159
     22 C20        37.3960   14.2030   33.4500 C.ar      1 5H5        -0.0621
     23 C22        33.5820   11.0180   31.5080 C.2       1 5H5         0.1530
     24 N23        32.3720   10.5050   31.4190 N.2       1 5H5        -0.2975
     25 N25        33.6910    8.9650   30.7260 N.2       1 5H5        -0.1984
     26 N26        34.4640   10.0840   31.0750 N.pl3     1 5H5        -0.1802
     27 C28        36.5550    9.3230   32.0800 C.3       1 5H5        -0.0333
     28 C29        36.3900    9.6710   29.6030 C.3       1 5H5        -0.0333
     29 H1         41.2485   16.3715   33.7667 H         1 5H5         0.0894
     30 H2         41.4687   18.7035   34.6678 H         1 5H5         0.0283
     31 H3         42.6881   17.6075   35.4015 H         1 5H5         0.0283
     32 H4         41.2253   18.0757   36.3330 H         1 5H5         0.0283
     33 H5         33.1465   17.4295   34.1885 H         1 5H5         0.0646
     34 H6         33.9057   15.9147   34.7848 H         1 5H5         0.0646
     35 H7         31.9482   13.3731   31.8383 H         1 5H5         0.1007
     36 H8         39.4459   14.3337   34.0610 H         1 5H5         0.0468
     37 H9         31.5929    8.6050   30.7775 H         1 5H5         0.0851
     38 H10        36.2408   11.2186   31.0971 H         1 5H5         0.0661
     39 H11        40.6366   14.7111   37.5347 H         1 5H5         0.1815
     40 H12        39.9290   16.2506   37.1749 H         1 5H5         0.1815
     41 H13        37.1905   17.9690   34.2255 H         1 5H5         0.0471
     42 H14        33.0998   16.3636   31.8760 H         1 5H5         0.0651
     43 H15        32.0092   15.6158   33.0917 H         1 5H5         0.0651
     44 H16        37.4637   13.1428   33.2345 H         1 5H5         0.0591
     45 H17        37.6513    9.3820   32.0115 H         1 5H5         0.0260
     46 H18        36.2363    8.2765   31.9649 H         1 5H5         0.0260
     47 H19        36.2280    9.7002   33.0602 H         1 5H5         0.0260
     48 H20        37.4858    9.7402   29.5372 H         1 5H5         0.0260
     49 H21        35.9356   10.2895   28.8150 H         1 5H5         0.0260
     50 H22        36.0802    8.6237   29.4716 H         1 5H5         0.0260
@<TRIPOS>BOND
     1    2    1 1  
     2    1   13 am 
     3    1   14 2  
     4    2    3 1  
     5   15    2 1  
     6   10    4 ar 
     7    4   15 1  
     8   16    4 ar 
     9    5   18 1  
    10   19    5 1  
    11    7    6 2  
    12    6   20 1  
    13    7   21 1  
    14   23    7 1  
    15    8    9 1  
    16    8   20 1  
    17   21    8 2  
    18    9   17 ar 
    19    9   22 ar 
    20   22   10 ar 
    21   24   11 1  
    22   11   25 2  
    23   26   12 1  
    24   12   27 1  
    25   12   28 1  
    26   17   16 ar 
    27   17   18 1  
    28   20   19 1  
    29   23   24 2  
    30   23   26 1  
    31   25   26 1  
    32    2   29 1  
    33    3   30 1  
    34    3   31 1  
    35    3   32 1  
    36    5   33 1  
    37    5   34 1  
    38    6   35 1  
    39   10   36 1  
    40   11   37 1  
    41   12   38 1  
    42   13   39 1  
    43   13   40 1  
    44   16   41 1  
    45   19   42 1  
    46   19   43 1  
    47   22   44 1  
    48   27   45 1  
    49   27   46 1  
    50   27   47 1  
    51   28   48 1  
    52   28   49 1  
    53   28   50 1  
@<TRIPOS>SUBSTRUCTURE
     1 5H5         1

