### 
### Created by X-TOOL on Mon Sep 10 21:13:28 2018
### 

@<TRIPOS>MOLECULE
5dy5_ligand
   66    70     1     0     0
SMALL
GAST_HUCK


@<TRIPOS>ATOM
      1 C1          2.3090    2.5260   24.1620 C.3       1 5GR         0.1102
      2 C2          1.9150   -0.1700   24.7320 C.ar      1 5GR         0.1493
      3 C6          1.5660   -2.2470   25.5910 C.ar      1 5GR         0.0267
      4 C9          7.6430    0.6510   22.4520 C.2       1 5GR        -0.0491
      5 C12         8.4400    0.8040   19.1210 C.ar      1 5GR        -0.0418
      6 C15         8.1410   -0.7580   16.8150 C.ar      1 5GR        -0.0398
      7 C18         5.4660    0.2010   14.7980 C.2       1 5GR         0.0673
      8 C21         6.8610    3.8090   12.4660 C.ar      1 5GR        -0.0101
      9 C27         7.1740    0.5660   18.5870 C.ar      1 5GR        -0.0304
     10 O           3.7500    3.5880   22.5680 O.2       1 5GR        -0.3799
     11 C           3.5930    2.6730   23.3710 C.2       1 5GR         0.2260
     12 S           1.1160    1.1640   23.9230 S.3       1 5GR        -0.0371
     13 N1          1.0860   -1.2160   24.8730 N.ar      1 5GR        -0.2660
     14 C7          0.6420   -3.4060   25.8100 C.3       1 5GR        -0.0129
     15 C5          2.8470   -2.2210   26.1180 C.ar      1 5GR        -0.0162
     16 C3          3.6290   -1.1000   25.9020 C.ar      1 5GR         0.0267
     17 C4          5.0480   -1.0190   26.3780 C.3       1 5GR        -0.0129
     18 N           3.1620   -0.0440   25.2140 N.ar      1 5GR        -0.2660
     19 N2          4.5640    1.7610   23.6750 N.am      1 5GR        -0.1979
     20 C8          5.7220    1.5700   22.9460 C.2       1 5GR         0.1989
     21 S1          6.1540    2.4510   21.5210 S.3       1 5GR         0.0199
     22 C10         7.6080    1.5210   21.4210 C.2       1 5GR         0.0234
     23 N3          6.5830    0.6670   23.3220 N.2       1 5GR        -0.3375
     24 C11         8.6110    1.7110   20.3210 C.3       1 5GR         0.0155
     25 C16         7.0310   -0.2120   17.4470 C.ar      1 5GR         0.0866
     26 C14         9.3960   -0.5340   17.3560 C.ar      1 5GR        -0.0770
     27 C13         9.5430    0.2350   18.4990 C.ar      1 5GR        -0.0697
     28 O1          5.7080   -0.2650   17.0830 O.3       1 5GR        -0.3110
     29 C17         5.2950   -0.8420   15.8460 C.3       1 5GR         0.1050
     30 N6          4.4620    1.0560   14.4650 N.2       1 5GR        -0.2236
     31 N5          4.8980    1.8970   13.5560 N.2       1 5GR        -0.0999
     32 N4          6.1760    1.5740   13.3050 N.pl3     1 5GR        -0.1699
     33 C19         6.5610    0.5320   14.0580 C.2       1 5GR         0.0743
     34 C20         6.9420    2.3110   12.2900 C.3       1 5GR         0.1089
     35 C26         6.3080    4.6140   11.4770 C.ar      1 5GR        -0.0575
     36 C25         6.2270    5.9870   11.6440 C.ar      1 5GR        -0.0685
     37 C24         6.6990    6.5740   12.8010 C.ar      1 5GR        -0.0687
     38 C23         7.2510    5.7860   13.7910 C.ar      1 5GR        -0.0685
     39 C22         7.3330    4.4130   13.6240 C.ar      1 5GR        -0.0575
     40 H1          1.7429    3.4529   23.9876 H         1 5GR         0.0657
     41 H2          2.6128    2.4750   25.2180 H         1 5GR         0.0657
     42 H3          8.4779   -0.0350   22.5875 H         1 5GR         0.0356
     43 H4          8.0268   -1.3493   15.9137 H         1 5GR         0.0486
     44 H5          6.2982    0.9904   19.0643 H         1 5GR         0.0481
     45 H6          1.1537   -4.1750   26.4073 H         1 5GR         0.0441
     46 H7          0.3498   -3.8307   24.8383 H         1 5GR         0.0441
     47 H8         -0.2558   -3.0632   26.3452 H         1 5GR         0.0441
     48 H9          3.2285   -3.0608   26.6874 H         1 5GR         0.0590
     49 H10         5.4735   -0.0440   26.0982 H         1 5GR         0.0441
     50 H11         5.6372   -1.8231   25.9131 H         1 5GR         0.0441
     51 H12         5.0747   -1.1304   27.4720 H         1 5GR         0.0441
     52 H13         4.4264    1.1900   24.4843 H         1 5GR         0.2385
     53 H14         8.5389    2.7518   19.9725 H         1 5GR         0.0573
     54 H15         9.6122    1.5333   20.7406 H         1 5GR         0.0573
     55 H16        10.2705   -0.9639   16.8812 H         1 5GR         0.0572
     56 H17        10.5321    0.3945   18.9130 H         1 5GR         0.0467
     57 H18         5.9177   -1.7180   15.6117 H         1 5GR         0.0731
     58 H19         4.2400   -1.1475   15.9058 H         1 5GR         0.0731
     59 H20         7.5391    0.0535   14.0741 H         1 5GR         0.0901
     60 H21         7.9968    2.0062   12.3565 H         1 5GR         0.0813
     61 H22         6.5475    2.0524   11.2963 H         1 5GR         0.0813
     62 H23         5.9358    4.1624   10.5645 H         1 5GR         0.0558
     63 H24         5.7920    6.6018   10.8644 H         1 5GR         0.0599
     64 H25         6.6365    7.6483   12.9314 H         1 5GR         0.0559
     65 H26         7.6214    6.2427   14.7017 H         1 5GR         0.0599
     66 H27         7.7706    3.8033   14.4062 H         1 5GR         0.0558
@<TRIPOS>BOND
     1   11    1 1  
     2    1   12 1  
     3   12    2 1  
     4    2   13 ar 
     5    2   18 ar 
     6   13    3 ar 
     7    3   14 1  
     8    3   15 ar 
     9   22    4 2  
    10    4   23 1  
    11    9    5 ar 
    12    5   24 1  
    13    5   27 ar 
    14   25    6 ar 
    15    6   26 ar 
    16    7   29 1  
    17    7   30 1  
    18   33    7 2  
    19   34    8 1  
    20    8   35 ar 
    21    8   39 ar 
    22   25    9 ar 
    23   11   10 2  
    24   19   11 am 
    25   16   15 ar 
    26   16   17 1  
    27   18   16 ar 
    28   20   19 1  
    29   21   20 1  
    30   20   23 2  
    31   22   21 1  
    32   24   22 1  
    33   28   25 1  
    34   26   27 ar 
    35   29   28 1  
    36   31   30 2  
    37   32   31 1  
    38   32   33 1  
    39   32   34 1  
    40   35   36 ar 
    41   36   37 ar 
    42   37   38 ar 
    43   38   39 ar 
    44    1   40 1  
    45    1   41 1  
    46    4   42 1  
    47    6   43 1  
    48    9   44 1  
    49   14   45 1  
    50   14   46 1  
    51   14   47 1  
    52   15   48 1  
    53   17   49 1  
    54   17   50 1  
    55   17   51 1  
    56   19   52 1  
    57   24   53 1  
    58   24   54 1  
    59   26   55 1  
    60   27   56 1  
    61   29   57 1  
    62   29   58 1  
    63   33   59 1  
    64   34   60 1  
    65   34   61 1  
    66   35   62 1  
    67   36   63 1  
    68   37   64 1  
    69   38   65 1  
    70   39   66 1  
@<TRIPOS>SUBSTRUCTURE
     1 5GR         1

