### 
### Created by X-TOOL on Mon Sep 10 21:13:27 2018
### 

@<TRIPOS>MOLECULE
5dy7_ligand
   22    23     1     0     0
SMALL
GAST_HUCK


@<TRIPOS>ATOM
      1 FAB        11.6090    2.9120   -1.5260 F         1 5GT        -0.2425
      2 CAO        11.2800    2.8350   -2.8010 C.3       1 5GT         0.3486
      3 FAC        10.6310    3.9350   -3.1410 F         1 5GT        -0.2425
      4 FAD        10.5040    1.7990   -2.9710 F         1 5GT        -0.2425
      5 CAL        12.4320    2.7200   -3.5890 C.ar      1 5GT         0.0092
      6 CAG        12.4230    2.0000   -4.7870 C.ar      1 5GT        -0.0254
      7 CAN        13.5860    1.9200   -5.5510 C.ar      1 5GT         0.1216
      8 NAJ        13.6260    1.1940   -6.7550 N.am      1 5GT        -0.2280
      9 C          14.7540    1.2390   -7.5830 C.2       1 5GT         0.2260
     10 O          14.7730    0.5580   -8.6120 O.2       1 5GT        -0.3833
     11 CA         15.8420    2.0670   -7.2880 C.3       1 5GT         0.1266
     12 N          15.9190    2.4560   -5.8660 N.pl3     1 5GT        -0.2829
     13 CAM        14.7490    2.5380   -5.1010 C.ar      1 5GT         0.1097
     14 CAF        14.7570    3.2560   -3.9100 C.ar      1 5GT        -0.0131
     15 CAE        13.5960    3.3470   -3.1560 C.ar      1 5GT        -0.0519
     16 H1         11.5169    1.5068   -5.1199 H         1 5GT         0.0613
     17 H2         12.8387    0.6386   -7.0230 H         1 5GT         0.2243
     18 H3         15.7584    2.9808   -7.8946 H         1 5GT         0.0782
     19 H4         16.7669    1.5340   -7.5534 H         1 5GT         0.0782
     20 H5         16.8316    2.6667   -5.4374 H         1 5GT         0.1929
     21 H6         15.6654    3.7419   -3.5727 H         1 5GT         0.0607
     22 H7         13.5958    3.9075   -2.2281 H         1 5GT         0.0749
@<TRIPOS>BOND
     1    1    2 1  
     2    2    3 1  
     3    2    4 1  
     4    2    5 1  
     5    5    6 ar 
     6    5   15 ar 
     7    6    7 ar 
     8    7    8 1  
     9    7   13 ar 
    10    8    9 am 
    11    9   10 2  
    12    9   11 1  
    13   11   12 1  
    14   12   13 1  
    15   13   14 ar 
    16   14   15 ar 
    17    6   16 1  
    18    8   17 1  
    19   11   18 1  
    20   11   19 1  
    21   12   20 1  
    22   14   21 1  
    23   15   22 1  
@<TRIPOS>SUBSTRUCTURE
     1 5GT         1

