### 
### Created by X-TOOL on Mon Sep 10 21:13:28 2018
### 

@<TRIPOS>MOLECULE
5dya_ligand
   27    28     1     0     0
SMALL
GAST_HUCK


@<TRIPOS>ATOM
      1 O          14.7330    0.8080   -8.6240 O.2       1 5GV        -0.3840
      2 C          14.8090    1.3990   -7.5500 C.2       1 5GV         0.2251
      3 NAI        13.6190    1.6970   -6.8760 N.am      1 5GV        -0.2359
      4 CAO        13.6250    2.3730   -5.6520 C.ar      1 5GV         0.0896
      5 CAG        12.4360    2.6280   -4.9810 C.ar      1 5GV        -0.0381
      6 CAM        12.4660    3.3060   -3.7660 C.ar      1 5GV        -0.0171
      7 CAK        11.2860    3.5770   -3.0830 C.2       1 5GV         0.0507
      8 OAD        11.3230    4.2440   -2.0250 O.co2     1 5GV        -0.5643
      9 OAB        10.1910    3.1780   -3.5360 O.co2     1 5GV        -0.5643
     10 CAE        13.6770    3.7250   -3.2250 C.ar      1 5GV        -0.0747
     11 CAF        14.8660    3.4680   -3.8980 C.ar      1 5GV        -0.0529
     12 CAN        14.8320    2.7880   -5.1090 C.ar      1 5GV         0.0667
     13 N          16.0220    2.5350   -5.7910 N.pl3     1 5GV        -0.3056
     14 CA         16.0690    1.7240   -7.0300 C.3       1 5GV         0.1281
     15 CB         16.8790    2.4610   -8.0960 C.3       1 5GV        -0.0158
     16 CAA        16.2230    3.8200   -8.3480 C.3       1 5GV        -0.0611
     17 H1         12.7462    1.4206   -7.2783 H         1 5GV         0.2218
     18 H2         11.4914    2.3013   -5.4006 H         1 5GV         0.0490
     19 H3         13.6937    4.2523   -2.2780 H         1 5GV         0.0491
     20 H4         15.8117    3.7954   -3.4814 H         1 5GV         0.0476
     21 H5         16.8997    2.9260   -5.4200 H         1 5GV         0.1757
     22 H6         16.5833    0.7817   -6.7901 H         1 5GV         0.0793
     23 H7         16.8882    1.8748   -9.0267 H         1 5GV         0.0309
     24 H8         17.9109    2.6063   -7.7439 H         1 5GV         0.0309
     25 H9         16.7933    4.3660   -9.1140 H         1 5GV         0.0232
     26 H10        16.2134    4.4013   -7.4142 H         1 5GV         0.0232
     27 H11        15.1907    3.6698   -8.6971 H         1 5GV         0.0232
@<TRIPOS>BOND
     1    1    2 2  
     2    2    3 am 
     3    2   14 1  
     4    3    4 1  
     5    4    5 ar 
     6    4   12 ar 
     7    5    6 ar 
     8    6    7 1  
     9    6   10 ar 
    10    7    8 ar 
    11    7    9 ar 
    12   10   11 ar 
    13   11   12 ar 
    14   12   13 1  
    15   13   14 1  
    16   14   15 1  
    17   15   16 1  
    18    3   17 1  
    19    5   18 1  
    20   10   19 1  
    21   11   20 1  
    22   13   21 1  
    23   14   22 1  
    24   15   23 1  
    25   15   24 1  
    26   16   25 1  
    27   16   26 1  
    28   16   27 1  
@<TRIPOS>SUBSTRUCTURE
     1 5GV         1

