### 
### Created by X-TOOL on Mon Sep 10 21:13:28 2018
### 

@<TRIPOS>MOLECULE
5dyo_ligand
   36    39     1     0     0
SMALL
GAST_HUCK


@<TRIPOS>ATOM
      1 C1         24.9750   28.4970   29.5360 C.2       1 FLU         0.0657
      2 O1         24.7760   27.5580   30.3110 O.2       1 FLU        -0.4450
      3 C2         25.6870   29.6890   29.9570 C.2       1 FLU        -0.0203
      4 C3         25.8450   30.7370   29.1050 C.2       1 FLU         0.1270
      5 O2         26.4990   31.8390   29.5960 O.3       1 FLU        -0.2389
      6 C4         26.6990   32.9560   28.8060 C.ar      1 FLU         0.1463
      7 C5         27.3660   34.0040   29.4070 C.ar      1 FLU         0.0164
      8 C6         27.5940   35.1590   28.6740 C.ar      1 FLU         0.0948
      9 O3         28.3380   36.1440   29.2550 O.3       1 FLU        -0.3270
     10 C7         27.1170   35.2750   27.3760 C.ar      1 FLU        -0.0279
     11 C8         26.4540   34.2100   26.7840 C.ar      1 FLU        -0.0500
     12 C9         26.2490   33.0160   27.4780 C.ar      1 FLU         0.0432
     13 C10        25.5700   31.8210   26.9150 C.2       1 FLU         0.0243
     14 C11        25.3580   30.7140   27.7450 C.2       1 FLU         0.0389
     15 C12        24.6620   29.5280   27.3300 C.2       1 FLU        -0.0506
     16 C13        24.4650   28.4800   28.1630 C.2       1 FLU        -0.0379
     17 C14        25.2040   31.7730   25.4540 C.ar      1 FLU         0.0186
     18 C15        24.0510   32.4520   25.0500 C.ar      1 FLU        -0.0403
     19 C16        23.5120   32.2170   23.7900 C.ar      1 FLU        -0.0511
     20 C17        24.1300   31.3390   22.9120 C.ar      1 FLU        -0.0515
     21 C18        25.3100   30.7030   23.2720 C.ar      1 FLU        -0.0397
     22 C19        25.8630   30.9210   24.5380 C.ar      1 FLU         0.0276
     23 C20        27.1400   30.2460   24.9000 C.2       1 FLU         0.0676
     24 O4         28.1760   30.8810   25.0750 O.co2     1 FLU        -0.5591
     25 O5         27.0450   28.9560   25.0890 O.co2     1 FLU        -0.5591
     26 H1         26.0983   29.7449   30.9638 H         1 FLU         0.0188
     27 H2         27.7056   33.9258   30.4335 H         1 FLU         0.0506
     28 H3         28.4193   36.8746   28.6532 H         1 FLU         0.2529
     29 H4         27.2624   36.1972   26.8251 H         1 FLU         0.0527
     30 H5         26.0897   34.3062   25.7676 H         1 FLU         0.0652
     31 H6         24.2804   29.4704   26.3117 H         1 FLU         0.0659
     32 H7         23.9177   27.6087   27.8064 H         1 FLU         0.0512
     33 H8         23.5772   33.1615   25.7187 H         1 FLU         0.0696
     34 H9         22.6016   32.7240   23.4915 H         1 FLU         0.0656
     35 H10        23.6894   31.1486   21.9401 H         1 FLU         0.0681
     36 H11        25.8027   30.0377   22.5723 H         1 FLU         0.0671
@<TRIPOS>BOND
     1    1    2 2  
     2    1    3 1  
     3    1   16 1  
     4    3    4 2  
     5    4    5 1  
     6    4   14 1  
     7    5    6 1  
     8    6    7 ar 
     9    6   12 ar 
    10    7    8 ar 
    11    8    9 1  
    12    8   10 ar 
    13   10   11 ar 
    14   11   12 ar 
    15   12   13 1  
    16   13   14 2  
    17   13   17 1  
    18   14   15 1  
    19   15   16 2  
    20   17   18 ar 
    21   17   22 ar 
    22   18   19 ar 
    23   19   20 ar 
    24   20   21 ar 
    25   21   22 ar 
    26   22   23 1  
    27   23   24 ar 
    28   23   25 ar 
    29    3   26 1  
    30    7   27 1  
    31    9   28 1  
    32   10   29 1  
    33   11   30 1  
    34   15   31 1  
    35   16   32 1  
    36   18   33 1  
    37   19   34 1  
    38   20   35 1  
    39   21   36 1  
@<TRIPOS>SUBSTRUCTURE
     1 FLU         1

