### 
### Created by X-TOOL on Mon Sep 10 21:13:27 2018
### 

@<TRIPOS>MOLECULE
5dyt_ligand
   58    61     1     0     0
SMALL
GAST_HUCK


@<TRIPOS>ATOM
      1 C10         6.0510   -9.5990  -14.5260 C.3       1 5HB        -0.0305
      2 C13         5.6850   -7.1670  -13.0750 C.ar      1 5HB         0.0014
      3 C15         5.2130   -5.2180  -14.3990 C.ar      1 5HB        -0.0684
      4 C17         7.3790   -5.4850  -13.3550 C.ar      1 5HB        -0.0684
      5 C24         2.2730  -14.1550  -15.7920 C.ar      1 5HB        -0.0345
      6 C26         1.6230  -12.6790  -17.5550 C.ar      1 5HB        -0.0178
      7 C28         0.9760  -11.1880  -19.3120 C.ar      1 5HB        -0.0612
      8 C04         4.4050  -15.3820  -12.9500 C.3       1 5HB         0.0182
      9 N05         4.3600  -13.9620  -13.3140 N.am      1 5HB        -0.2367
     10 C06         5.2460  -13.1000  -12.5080 C.3       1 5HB         0.0369
     11 C07         5.5500  -11.8190  -13.2750 C.3       1 5HB         0.0164
     12 C08         6.7090  -12.0180  -14.2630 C.3       1 5HB        -0.0391
     13 C09         6.9690  -10.7100  -15.0430 C.3       1 5HB        -0.0120
     14 N11         6.1700   -9.4510  -13.0560 N.4       1 5HB         0.2474
     15 C12         5.2900   -8.3840  -12.5460 C.3       1 5HB         0.0020
     16 C14         4.8030   -6.4320  -13.8640 C.ar      1 5HB        -0.0553
     17 C16         6.4970   -4.7510  -14.1410 C.ar      1 5HB        -0.0687
     18 C18         6.9720   -6.6980  -12.8180 C.ar      1 5HB        -0.0553
     19 C19         5.9010  -10.7060  -12.3250 C.3       1 5HB        -0.0261
     20 S20         2.8030  -13.3950  -13.2380 S.o2      1 5HB         0.0704
     21 O21         2.6340  -12.1240  -12.3940 O.2       1 5HB        -0.1501
     22 O22         1.9740  -14.5690  -12.6810 O.2       1 5HB        -0.1501
     23 C23         2.3310  -13.0740  -14.9090 C.ar      1 5HB         0.1089
     24 C25         1.9170  -13.9670  -17.1180 C.ar      1 5HB        -0.0522
     25 C27         1.2690  -12.4770  -18.8820 C.ar      1 5HB        -0.0540
     26 C29         1.0490  -10.1060  -18.4400 C.ar      1 5HB        -0.0612
     27 C30         1.4140  -10.3010  -17.1170 C.ar      1 5HB        -0.0540
     28 C31         1.6970  -11.5920  -16.6740 C.ar      1 5HB        -0.0160
     29 C32         2.0600  -11.7820  -15.3450 C.ar      1 5HB        -0.0274
     30 H1          5.0095   -9.8463  -14.7792 H         1 5HB         0.0814
     31 H2          6.3297   -8.6496  -15.0066 H         1 5HB         0.0814
     32 H3          4.5355   -4.6374  -15.0146 H         1 5HB         0.0599
     33 H4          8.3784   -5.1117  -13.1631 H         1 5HB         0.0599
     34 H5          2.5090  -15.1514  -15.4362 H         1 5HB         0.0637
     35 H6          0.6859  -11.0230  -20.3434 H         1 5HB         0.0618
     36 H7          5.4430  -15.7420  -13.0054 H         1 5HB         0.0442
     37 H8          3.7792  -15.9591  -13.6466 H         1 5HB         0.0442
     38 H9          4.0267  -15.5100  -11.9251 H         1 5HB         0.0442
     39 H10         6.1852  -13.6335  -12.2998 H         1 5HB         0.0482
     40 H11         4.7487  -12.8492  -11.5594 H         1 5HB         0.0482
     41 H12         4.6511  -11.5325  -13.8406 H         1 5HB         0.0368
     42 H13         6.4506  -12.8191  -14.9711 H         1 5HB         0.0272
     43 H14         7.6167  -12.2977  -13.7082 H         1 5HB         0.0272
     44 H15         8.0180  -10.4079  -14.9077 H         1 5HB         0.0317
     45 H16         6.7708  -10.8781  -16.1118 H         1 5HB         0.0317
     46 H17         7.1223   -9.1846  -12.8607 H         1 5HB         0.2048
     47 H18         4.2514   -8.5927  -12.8422 H         1 5HB         0.0980
     48 H19         5.3579   -8.3461  -11.4488 H         1 5HB         0.0980
     49 H20         3.8040   -6.8050  -14.0588 H         1 5HB         0.0558
     50 H21         6.8148   -3.8022  -14.5580 H         1 5HB         0.0559
     51 H22         7.6508   -7.2772  -12.2025 H         1 5HB         0.0558
     52 H23         6.7979  -10.9893  -11.7547 H         1 5HB         0.0818
     53 H24         5.0615  -10.5460  -11.6325 H         1 5HB         0.0818
     54 H25         1.8685  -14.8069  -17.8015 H         1 5HB         0.0624
     55 H26         1.2218  -13.3115  -19.5722 H         1 5HB         0.0624
     56 H27         0.8199   -9.1082  -18.7962 H         1 5HB         0.0618
     57 H28         1.4785   -9.4603  -16.4357 H         1 5HB         0.0624
     58 H29         2.1301  -10.9414  -14.6642 H         1 5HB         0.0643
@<TRIPOS>BOND
     1   13    1 1  
     2   14    1 1  
     3   15    2 1  
     4    2   16 ar 
     5    2   18 ar 
     6   16    3 ar 
     7    3   17 ar 
     8    4   17 ar 
     9   18    4 ar 
    10   23    5 ar 
    11    5   24 ar 
    12   24    6 ar 
    13    6   25 ar 
    14    6   28 ar 
    15   25    7 ar 
    16    7   26 ar 
    17    9    8 1  
    18    9   10 1  
    19   20    9 am 
    20   10   11 1  
    21   11   12 1  
    22   11   19 1  
    23   12   13 1  
    24   14   15 1  
    25   19   14 1  
    26   20   21 2  
    27   20   22 2  
    28   20   23 1  
    29   23   29 ar 
    30   26   27 ar 
    31   27   28 ar 
    32   28   29 ar 
    33    1   30 1  
    34    1   31 1  
    35    3   32 1  
    36    4   33 1  
    37    5   34 1  
    38    7   35 1  
    39    8   36 1  
    40    8   37 1  
    41    8   38 1  
    42   10   39 1  
    43   10   40 1  
    44   11   41 1  
    45   12   42 1  
    46   12   43 1  
    47   13   44 1  
    48   13   45 1  
    49   14   46 1  
    50   15   47 1  
    51   15   48 1  
    52   16   49 1  
    53   17   50 1  
    54   18   51 1  
    55   19   52 1  
    56   19   53 1  
    57   24   54 1  
    58   25   55 1  
    59   26   56 1  
    60   27   57 1  
    61   29   58 1  
@<TRIPOS>SUBSTRUCTURE
     1 5HB         1

