### 
### Created by X-TOOL on Mon Sep 10 21:13:32 2018
### 

@<TRIPOS>MOLECULE
5dyw_ligand
   65    68     1     0     0
SMALL
GAST_HUCK


@<TRIPOS>ATOM
      1 C10        -7.1780    8.8780  -13.1980 C.3       1 5HF        -0.0305
      2 C13        -6.4500    6.2770  -12.0800 C.ar      1 5HF         0.0014
      3 C15        -6.4400    4.0800  -13.2010 C.ar      1 5HF        -0.0684
      4 C17        -8.3810    4.8400  -11.9210 C.ar      1 5HF        -0.0684
      5 C24        -3.2220   13.4650  -14.2690 C.ar      1 5HF        -0.0345
      6 C26        -2.5830   12.0540  -16.2250 C.ar      1 5HF        -0.0178
      7 C28        -1.9340   10.7090  -18.1750 C.ar      1 5HF        -0.0612
      8 C01        -5.1730   14.1630   -7.5170 C.3       1 5HF         0.0365
      9 O02        -4.9400   15.1160   -8.5580 O.3       1 5HF        -0.3814
     10 C03        -5.6670   14.9590   -9.7170 C.3       1 5HF         0.0643
     11 C04        -4.9040   14.6580  -10.9990 C.3       1 5HF         0.0530
     12 N05        -5.1060   13.3420  -11.6570 N.am      1 5HF        -0.2314
     13 C06        -6.2060   12.4990  -11.0820 C.3       1 5HF         0.0373
     14 C07        -6.4060   11.2210  -11.8980 C.3       1 5HF         0.0164
     15 C08        -7.3770   11.4210  -12.9440 C.3       1 5HF        -0.0391
     16 C09        -7.4900   10.2280  -13.8100 C.3       1 5HF        -0.0120
     17 N11        -6.7170    8.7850  -11.8110 N.4       1 5HF         0.2474
     18 C12        -5.7440    7.6140  -11.7180 C.3       1 5HF         0.0020
     19 C14        -5.8090    5.2940  -12.8760 C.ar      1 5HF        -0.0553
     20 C16        -7.7320    3.8610  -12.7180 C.ar      1 5HF        -0.0687
     21 C18        -7.7580    6.0410  -11.5870 C.ar      1 5HF        -0.0553
     22 C19        -6.6900   10.0290  -11.0240 C.3       1 5HF        -0.0261
     23 S20        -3.6490   12.4820  -11.7810 S.o2      1 5HF         0.0707
     24 O21        -3.5690   11.1720  -11.0840 O.2       1 5HF        -0.1501
     25 O22        -2.6010   13.2870  -11.0950 O.2       1 5HF        -0.1501
     26 C23        -3.2410   12.3040  -13.4590 C.ar      1 5HF         0.1089
     27 C25        -2.8980   13.3370  -15.6700 C.ar      1 5HF        -0.0522
     28 C27        -2.2470   11.9430  -17.6360 C.ar      1 5HF        -0.0540
     29 C29        -1.9520    9.5590  -17.3530 C.ar      1 5HF        -0.0612
     30 C30        -2.2700    9.6610  -15.9890 C.ar      1 5HF        -0.0540
     31 C31        -2.5880   10.9400  -15.4360 C.ar      1 5HF        -0.0160
     32 C32        -2.9370   11.0640  -13.9860 C.ar      1 5HF        -0.0274
     33 H1         -6.3963    8.4208  -13.8224 H         1 5HF         0.0814
     34 H2         -8.0984    8.2795  -13.2661 H         1 5HF         0.0814
     35 H3         -5.9382    3.3358  -13.8088 H         1 5HF         0.0599
     36 H4         -9.3862    4.6487  -11.5633 H         1 5HF         0.0599
     37 H5         -3.4475   14.4361  -13.8433 H         1 5HF         0.0637
     38 H6         -1.6757   10.6235  -19.2243 H         1 5HF         0.0618
     39 H7         -4.5342   14.3999   -6.6534 H         1 5HF         0.0523
     40 H8         -4.9344   13.1537   -7.8837 H         1 5HF         0.0523
     41 H9         -6.2295   14.2026   -7.2134 H         1 5HF         0.0523
     42 H10        -6.2285   15.8906   -9.8807 H         1 5HF         0.0576
     43 H11        -6.3715   14.1304   -9.5525 H         1 5HF         0.0576
     44 H12        -3.8324   14.7420  -10.7653 H         1 5HF         0.0501
     45 H13        -5.1816   15.4315  -11.7302 H         1 5HF         0.0501
     46 H14        -7.1415   13.0777  -11.0863 H         1 5HF         0.0482
     47 H15        -5.9473   12.2278  -10.0478 H         1 5HF         0.0482
     48 H16        -5.4491   11.0124  -12.3989 H         1 5HF         0.0368
     49 H17        -7.0702   12.2809  -13.5576 H         1 5HF         0.0272
     50 H18        -8.3568   11.6266  -12.4883 H         1 5HF         0.0272
     51 H19        -8.5249   10.1888  -14.1807 H         1 5HF         0.0317
     52 H20        -6.8024   10.3711  -14.6566 H         1 5HF         0.0317
     53 H21        -7.5180    8.3651  -11.3659 H         1 5HF         0.2048
     54 H22        -4.9106    7.7819  -12.4160 H         1 5HF         0.0980
     55 H23        -5.3550    7.5495  -10.6911 H         1 5HF         0.0980
     56 H24        -4.8069    5.4832  -13.2434 H         1 5HF         0.0558
     57 H25        -8.2438    2.9350  -12.9539 H         1 5HF         0.0559
     58 H26        -8.2600    6.7749  -10.9670 H         1 5HF         0.0558
     59 H27        -7.6665   10.1662  -10.5365 H         1 5HF         0.0818
     60 H28        -5.9051    9.9513  -10.2573 H         1 5HF         0.0818
     61 H29        -2.8930   14.2155  -16.3050 H         1 5HF         0.0624
     62 H30        -2.2421   12.8266  -18.2639 H         1 5HF         0.0624
     63 H31        -1.7183    8.5901  -17.7793 H         1 5HF         0.0618
     64 H32        -2.2743    8.7774  -15.3610 H         1 5HF         0.0624
     65 H33        -2.9511   10.1847  -13.3522 H         1 5HF         0.0643
@<TRIPOS>BOND
     1   16    1 1  
     2   17    1 1  
     3   18    2 1  
     4    2   19 ar 
     5    2   21 ar 
     6   19    3 ar 
     7    3   20 ar 
     8    4   20 ar 
     9   21    4 ar 
    10   26    5 ar 
    11    5   27 ar 
    12   27    6 ar 
    13    6   28 ar 
    14    6   31 ar 
    15   28    7 ar 
    16    7   29 ar 
    17    9    8 1  
    18   10    9 1  
    19   11   10 1  
    20   12   11 1  
    21   12   13 1  
    22   23   12 am 
    23   13   14 1  
    24   14   15 1  
    25   14   22 1  
    26   15   16 1  
    27   17   18 1  
    28   22   17 1  
    29   23   24 2  
    30   23   25 2  
    31   23   26 1  
    32   26   32 ar 
    33   29   30 ar 
    34   30   31 ar 
    35   31   32 ar 
    36    1   33 1  
    37    1   34 1  
    38    3   35 1  
    39    4   36 1  
    40    5   37 1  
    41    7   38 1  
    42    8   39 1  
    43    8   40 1  
    44    8   41 1  
    45   10   42 1  
    46   10   43 1  
    47   11   44 1  
    48   11   45 1  
    49   13   46 1  
    50   13   47 1  
    51   14   48 1  
    52   15   49 1  
    53   15   50 1  
    54   16   51 1  
    55   16   52 1  
    56   17   53 1  
    57   18   54 1  
    58   18   55 1  
    59   19   56 1  
    60   20   57 1  
    61   21   58 1  
    62   22   59 1  
    63   22   60 1  
    64   27   61 1  
    65   28   62 1  
    66   29   63 1  
    67   30   64 1  
    68   32   65 1  
@<TRIPOS>SUBSTRUCTURE
     1 5HF         1

