### 
### Created by X-TOOL on Mon Sep 10 21:13:32 2018
### 

@<TRIPOS>MOLECULE
5dyy_ligand
   55    58     1     0     0
SMALL
GAST_HUCK


@<TRIPOS>ATOM
      1 C2          1.3770  -11.3970  -19.6520 C.ar      1 5HH        -0.0612
      2 C3          1.3120  -10.3470  -18.7350 C.ar      1 5HH        -0.0612
      3 C4          7.5600   -5.5250  -13.4800 C.ar      1 5HH        -0.0684
      4 C5          5.5080   -4.9170  -14.6240 C.ar      1 5HH        -0.0684
      5 C6          1.6990  -12.6870  -19.2450 C.ar      1 5HH        -0.0540
      6 C7          1.5560  -10.5950  -17.3850 C.ar      1 5HH        -0.0540
      7 C10         4.9440   -6.1330  -14.2490 C.ar      1 5HH        -0.0553
      8 C11         2.4730  -14.4420  -16.1280 C.ar      1 5HH        -0.0345
      9 C12         2.0960  -12.1160  -15.5890 C.ar      1 5HH        -0.0274
     10 C14         1.8650  -11.8790  -16.9460 C.ar      1 5HH        -0.0160
     11 C16         2.4130  -13.4150  -15.1880 C.ar      1 5HH         0.1087
     12 C18         6.1690  -12.1150  -14.1300 C.3       1 5HH        -0.0391
     13 C19         6.8460   -9.6730  -14.4960 C.3       1 5HH        -0.0305
     14 C20         5.8200  -10.4900  -12.3670 C.3       1 5HH        -0.0261
     15 C21         5.1330  -11.5440  -13.1830 C.3       1 5HH         0.0162
     16 C13         1.9360  -12.9230  -17.8850 C.ar      1 5HH        -0.0178
     17 C8          2.2430  -14.2150  -17.4740 C.ar      1 5HH        -0.0522
     18 S1          2.7210  -13.8580  -13.5060 S.o2      1 5HH         0.0683
     19 O1          1.5300  -14.6150  -12.9500 O.2       1 5HH        -0.1503
     20 O2          3.8930  -14.8360  -13.4070 O.2       1 5HH        -0.1503
     21 N2          3.0510  -12.6220  -12.6220 N.am      1 5HH        -0.2470
     22 C23         4.4960  -12.5780  -12.2640 C.3       1 5HH         0.0342
     23 C17         6.3950  -10.9890  -15.1700 C.3       1 5HH        -0.0120
     24 N1          6.1520   -9.3340  -13.2070 N.4       1 5HH         0.2474
     25 C22         5.1190   -8.2730  -13.1390 C.3       1 5HH         0.0020
     26 C15         5.6800   -7.0430  -13.4860 C.ar      1 5HH         0.0014
     27 C9          6.9880   -6.7330  -13.0980 C.ar      1 5HH        -0.0553
     28 C1          6.8180   -4.6190  -14.2370 C.ar      1 5HH        -0.0687
     29 H1          1.1731  -11.2037  -20.6990 H         1 5HH         0.0618
     30 H2          1.0731   -9.3443  -19.0705 H         1 5HH         0.0618
     31 H3          8.5776   -5.2885  -13.1909 H         1 5HH         0.0599
     32 H4          4.9365   -4.2072  -15.2110 H         1 5HH         0.0599
     33 H5          1.7653  -13.4938  -19.9659 H         1 5HH         0.0624
     34 H6          1.5046   -9.7808  -16.6712 H         1 5HH         0.0624
     35 H7          3.9310   -6.3746  -14.5498 H         1 5HH         0.0558
     36 H8          2.7064  -15.4471  -15.7958 H         1 5HH         0.0637
     37 H9          2.0308  -11.3115  -14.8655 H         1 5HH         0.0643
     38 H10         5.7919  -13.0262  -14.6174 H         1 5HH         0.0272
     39 H11         7.1022  -12.3447  -13.5949 H         1 5HH         0.0272
     40 H12         6.6657   -8.8507  -15.2041 H         1 5HH         0.0814
     41 H13         7.9238   -9.7500  -14.2902 H         1 5HH         0.0814
     42 H14         6.7444  -10.9062  -11.9402 H         1 5HH         0.0818
     43 H15         5.1530  -10.1682  -11.5536 H         1 5HH         0.0818
     44 H16         4.3326  -11.0805  -13.7785 H         1 5HH         0.0368
     45 H17         2.3009  -15.0260  -18.1910 H         1 5HH         0.0624
     46 H18         2.3778  -11.9423  -12.3306 H         1 5HH         0.1672
     47 H19         4.6188  -12.2799  -11.2123 H         1 5HH         0.0480
     48 H20         4.9576  -13.5638  -12.4221 H         1 5HH         0.0480
     49 H21         5.4543  -10.8087  -15.7109 H         1 5HH         0.0317
     50 H22         7.1708  -11.3100  -15.8806 H         1 5HH         0.0317
     51 H23         6.9068   -8.9035  -12.6961 H         1 5HH         0.2048
     52 H24         4.7205   -8.2166  -12.1153 H         1 5HH         0.0980
     53 H25         4.3035   -8.5122  -13.8373 H         1 5HH         0.0980
     54 H26         7.5559   -7.4355  -12.4989 H         1 5HH         0.0558
     55 H27         7.2615   -3.6738  -14.5285 H         1 5HH         0.0559
@<TRIPOS>BOND
     1    2    1 ar 
     2    5    1 ar 
     3    6    2 ar 
     4    3   27 ar 
     5   28    3 ar 
     6    7    4 ar 
     7    4   28 ar 
     8   16    5 ar 
     9   10    6 ar 
    10   26    7 ar 
    11   11    8 ar 
    12    8   17 ar 
    13    9   10 ar 
    14   11    9 ar 
    15   10   16 ar 
    16   18   11 1  
    17   15   12 1  
    18   23   12 1  
    19   13   23 1  
    20   24   13 1  
    21   14   15 1  
    22   24   14 1  
    23   15   22 1  
    24   17   16 ar 
    25   18   19 2  
    26   18   20 2  
    27   21   18 am 
    28   22   21 1  
    29   25   24 1  
    30   25   26 1  
    31   26   27 ar 
    32    1   29 1  
    33    2   30 1  
    34    3   31 1  
    35    4   32 1  
    36    5   33 1  
    37    6   34 1  
    38    7   35 1  
    39    8   36 1  
    40    9   37 1  
    41   12   38 1  
    42   12   39 1  
    43   13   40 1  
    44   13   41 1  
    45   14   42 1  
    46   14   43 1  
    47   15   44 1  
    48   17   45 1  
    49   21   46 1  
    50   22   47 1  
    51   22   48 1  
    52   23   49 1  
    53   23   50 1  
    54   24   51 1  
    55   25   52 1  
    56   25   53 1  
    57   27   54 1  
    58   28   55 1  
@<TRIPOS>SUBSTRUCTURE
     1 5HH         1

