### 
### Created by X-TOOL on Sun Sep  9 21:53:06 2018
### 

@<TRIPOS>MOLECULE
5e0a_ligand
   30    30     1     0     0
SMALL
GAST_HUCK


@<TRIPOS>ATOM
      1 C1        -25.0650  -33.9710  -21.6090 C.3       1 NON         0.1823
      2 C2        -24.8990  -32.4860  -21.9660 C.3       1 NON         0.1208
      3 C3        -26.2660  -31.8020  -21.8590 C.3       1 NON         0.1110
      4 C4        -27.1820  -32.5230  -22.8570 C.3       1 NON         0.1116
      5 C5        -27.3190  -34.0080  -22.4250 C.3       1 NON         0.1130
      6 C6        -28.4090  -34.8570  -23.1210 C.3       1 NON         0.0730
      7 C7        -23.3140  -30.6910  -20.9630 C.2       1 NON         0.1733
      8 C8        -21.9560  -30.6120  -20.3410 C.3       1 NON         0.0257
      9 N2        -23.7070  -31.9350  -21.2920 N.am      1 NON        -0.2766
     10 O1        -23.8170  -34.6130  -21.7160 O.3       1 NON        -0.3651
     11 O3        -26.2200  -30.4230  -22.1330 O.3       1 NON        -0.3867
     12 O4        -28.4130  -31.8350  -22.9620 O.3       1 NON        -0.3865
     13 O5        -26.0280  -34.6200  -22.4490 O.3       1 NON        -0.3410
     14 O6        -28.1830  -35.3240  -24.4490 O.3       1 NON        -0.3924
     15 O7        -23.9530  -29.6560  -21.1120 O.2       1 NON        -0.3974
     16 H1        -25.4126  -34.0422  -20.5678 H         1 NON         0.0932
     17 H2        -24.6506  -32.4412  -23.0366 H         1 NON         0.0633
     18 H3        -26.6552  -31.9357  -20.8389 H         1 NON         0.0645
     19 H4        -26.7058  -32.5042  -23.8484 H         1 NON         0.0647
     20 H5        -27.6249  -33.9772  -21.3688 H         1 NON         0.0647
     21 H6        -29.3243  -34.2475  -23.1459 H         1 NON         0.0584
     22 H7        -28.5761  -35.7440  -22.4923 H         1 NON         0.0584
     23 H8        -21.7204  -29.5633  -20.1068 H         1 NON         0.0467
     24 H9        -21.2075  -31.0079  -21.0431 H         1 NON         0.0467
     25 H10       -21.9414  -31.2065  -19.4156 H         1 NON         0.0467
     26 H11       -23.0495  -32.6382  -21.0215 H         1 NON         0.1857
     27 H12       -23.5195  -34.5763  -22.6174 H         1 NON         0.2126
     28 H13       -25.6490  -29.9955  -21.5056 H         1 NON         0.2100
     29 H14       -28.2512  -30.9377  -23.2288 H         1 NON         0.2100
     30 H15       -27.4087  -35.8742  -24.4625 H         1 NON         0.2095
@<TRIPOS>BOND
     1    2    1 1  
     2    1   10 1  
     3    1   13 1  
     4    2    3 1  
     5    9    2 1  
     6    3    4 1  
     7    3   11 1  
     8    4    5 1  
     9    4   12 1  
    10    5    6 1  
    11   13    5 1  
    12    6   14 1  
    13    7    8 1  
    14    7    9 am 
    15    7   15 2  
    16    1   16 1  
    17    2   17 1  
    18    3   18 1  
    19    4   19 1  
    20    5   20 1  
    21    6   21 1  
    22    6   22 1  
    23    8   23 1  
    24    8   24 1  
    25    8   25 1  
    26    9   26 1  
    27   10   27 1  
    28   11   28 1  
    29   12   29 1  
    30   14   30 1  
@<TRIPOS>SUBSTRUCTURE
     1 NON         1

