### 
### Created by X-TOOL on Mon Sep 10 21:13:25 2018
### 

@<TRIPOS>MOLECULE
5e0g_ligand
   62    63     1     0     0
SMALL
GAST_HUCK


@<TRIPOS>ATOM
      1 C30        18.5810  -55.1310  140.2420 C.2       1 5LG         0.1231
      2 O39        17.9500  -54.0840  140.9060 O.co2     1 5LG        -0.5646
      3 O31        19.0810  -56.0370  140.8200 O.co2     1 5LG        -0.5646
      4 N15        17.0060  -53.2820  134.1980 N.am      1 5LG        -0.2841
      5 C16        15.7130  -53.7970  133.7780 C.3       1 5LG         0.0611
      6 C17        15.6730  -55.3150  133.7570 C.3       1 5LG         0.0954
      7 N26        16.1050  -55.8310  135.0390 N.pl3     1 5LG        -0.1793
      8 O01        20.0580  -54.2780  136.6800 O.2       1 5LG        -0.3944
      9 C02        20.2510  -55.3950  137.0480 C.2       1 5LG         0.2035
     10 C22        19.4280  -56.0710  138.1390 C.3       1 5LG         0.1301
     11 C23        18.5380  -57.1910  137.5980 C.3       1 5LG         0.0204
     12 C24        17.3840  -56.6750  136.7600 C.2       1 5LG         0.0413
     13 C25        17.3460  -56.2070  135.4050 C.2       1 5LG         0.0696
     14 N27        15.3780  -56.0450  136.1110 N.2       1 5LG        -0.1019
     15 N28        16.1150  -56.5370  137.1060 N.2       1 5LG        -0.2263
     16 N29        18.6190  -55.0770  138.8040 N.am      1 5LG        -0.2862
     17 N10        21.8600  -54.0680  133.6090 N.am      1 5LG        -0.2797
     18 C11        21.2120  -53.5770  132.4130 C.3       1 5LG         0.0672
     19 C12        20.4610  -52.3010  132.7740 C.3       1 5LG        -0.0108
     20 C13        19.3600  -52.5400  133.8000 C.3       1 5LG         0.0394
     21 C14        18.0630  -53.1120  133.2400 C.2       1 5LG         0.1761
     22 O18        17.8860  -53.4140  132.0930 O.2       1 5LG        -0.3971
     23 C19        22.2750  -53.3230  131.3500 C.3       1 5LG         0.0673
     24 O20        22.9210  -54.4940  130.9610 O.3       1 5LG        -0.3927
     25 N03        21.3190  -56.1880  136.5130 N.am      1 5LG        -0.2637
     26 C04        22.1830  -55.6270  135.5020 C.3       1 5LG         0.1311
     27 C09        21.3960  -55.2600  134.2560 C.2       1 5LG         0.2020
     28 O21        20.4760  -55.8990  133.8460 O.2       1 5LG        -0.3945
     29 C05        23.2970  -56.5830  135.1140 C.3       1 5LG        -0.0101
     30 C06        24.1820  -56.9600  136.2880 C.3       1 5LG        -0.0425
     31 C07        25.2110  -57.9900  135.8250 C.3       1 5LG        -0.0625
     32 C08        24.8520  -55.7470  136.9340 C.3       1 5LG        -0.0625
     33 H1         17.1602  -53.0452  135.1572 H         1 5LG         0.1852
     34 H2         15.4960  -53.4240  132.7662 H         1 5LG         0.0550
     35 H3         14.9443  -53.4331  134.4757 H         1 5LG         0.0550
     36 H4         16.3427  -55.6878  132.9681 H         1 5LG         0.0668
     37 H5         14.6454  -55.6512  133.5548 H         1 5LG         0.0668
     38 H6         20.1217  -56.5103  138.8710 H         1 5LG         0.0795
     39 H7         18.1290  -57.7561  138.4485 H         1 5LG         0.0426
     40 H8         19.1526  -57.8583  136.9759 H         1 5LG         0.0426
     41 H9         18.2153  -56.1610  134.7507 H         1 5LG         0.0899
     42 H10        18.1104  -54.3854  138.2911 H         1 5LG         0.1741
     43 H11        22.6401  -53.5707  133.9887 H         1 5LG         0.1855
     44 H12        20.4984  -54.3259  132.0389 H         1 5LG         0.0580
     45 H13        20.0079  -51.8884  131.8606 H         1 5LG         0.0313
     46 H14        21.1770  -51.5758  133.1880 H         1 5LG         0.0313
     47 H15        19.1280  -51.5780  134.2803 H         1 5LG         0.0503
     48 H16        19.7442  -53.2430  134.5538 H         1 5LG         0.0503
     49 H17        23.0218  -52.6246  131.7557 H         1 5LG         0.0580
     50 H18        21.7941  -52.8742  130.4683 H         1 5LG         0.0580
     51 H19        23.3452  -54.8859  131.7153 H         1 5LG         0.2095
     52 H20        21.4642  -57.1226  136.8378 H         1 5LG         0.1883
     53 H21        22.6369  -54.7128  135.9122 H         1 5LG         0.0800
     54 H22        23.9195  -56.1038  134.3440 H         1 5LG         0.0315
     55 H23        22.8473  -57.4994  134.7041 H         1 5LG         0.0315
     56 H24        23.5468  -57.4309  137.0527 H         1 5LG         0.0298
     57 H25        25.8569  -58.2687  136.6707 H         1 5LG         0.0232
     58 H26        25.8254  -57.5587  135.0210 H         1 5LG         0.0232
     59 H27        24.6916  -58.8842  135.4500 H         1 5LG         0.0232
     60 H28        24.0818  -55.0296  137.2536 H         1 5LG         0.0232
     61 H29        25.5210  -55.2662  136.2052 H         1 5LG         0.0232
     62 H30        25.4352  -56.0724  137.8081 H         1 5LG         0.0232
@<TRIPOS>BOND
     1    1    2 ar 
     2    1    3 ar 
     3   16    1 am 
     4    4    5 1  
     5   21    4 am 
     6    5    6 1  
     7    6    7 1  
     8    7   13 1  
     9    7   14 1  
    10    9    8 2  
    11   10    9 1  
    12    9   25 am 
    13   11   10 1  
    14   10   16 1  
    15   12   11 1  
    16   13   12 2  
    17   15   12 1  
    18   14   15 2  
    19   18   17 1  
    20   17   27 am 
    21   19   18 1  
    22   18   23 1  
    23   20   19 1  
    24   20   21 1  
    25   21   22 2  
    26   23   24 1  
    27   25   26 1  
    28   26   27 1  
    29   26   29 1  
    30   27   28 2  
    31   29   30 1  
    32   30   31 1  
    33   30   32 1  
    34    4   33 1  
    35    5   34 1  
    36    5   35 1  
    37    6   36 1  
    38    6   37 1  
    39   10   38 1  
    40   11   39 1  
    41   11   40 1  
    42   13   41 1  
    43   16   42 1  
    44   17   43 1  
    45   18   44 1  
    46   19   45 1  
    47   19   46 1  
    48   20   47 1  
    49   20   48 1  
    50   23   49 1  
    51   23   50 1  
    52   24   51 1  
    53   25   52 1  
    54   26   53 1  
    55   29   54 1  
    56   29   55 1  
    57   30   56 1  
    58   31   57 1  
    59   31   58 1  
    60   31   59 1  
    61   32   60 1  
    62   32   61 1  
    63   32   62 1  
@<TRIPOS>SUBSTRUCTURE
     1 5LG         1

