### 
### Created by X-TOOL on Mon Sep 10 21:13:28 2018
### 

@<TRIPOS>MOLECULE
5e0h_ligand
   65    66     1     0     0
SMALL
GAST_HUCK


@<TRIPOS>ATOM
      1 C26       -22.3370   40.5260  -16.4220 C.2       1 5LH         0.1231
      2 O27       -22.7860   40.4070  -17.7960 O.co2     1 5LH        -0.5646
      3 O35       -22.0070   41.6210  -16.0570 O.co2     1 5LH        -0.5646
      4 N16       -23.2620   33.1860  -13.5200 N.am      1 5LH        -0.2869
      5 C17       -23.9030   34.0830  -12.6150 C.3       1 5LH         0.0336
      6 C18       -24.9900   34.8630  -13.5170 C.3       1 5LH        -0.0023
      7 C19       -25.6400   35.8620  -12.5810 C.3       1 5LH         0.0772
      8 N20       -24.9820   37.0490  -12.9210 N.pl3     1 5LH        -0.1812
      9 C21       -23.7530   37.4920  -12.5140 C.2       1 5LH         0.0696
     10 C22       -23.4700   38.7440  -13.1270 C.2       1 5LH         0.0412
     11 C23       -22.2720   39.6660  -13.0170 C.3       1 5LH         0.0204
     12 C24       -21.4830   39.6150  -14.2880 C.3       1 5LH         0.1301
     13 N25       -22.2890   39.3520  -15.4990 N.am      1 5LH        -0.2862
     14 C36       -20.4560   38.5310  -14.1090 C.2       1 5LH         0.2035
     15 O37       -20.5710   37.4620  -14.6910 O.2       1 5LH        -0.3944
     16 N38       -24.5820   38.9530  -13.8920 N.2       1 5LH        -0.2263
     17 N39       -25.4370   37.9660  -13.7780 N.2       1 5LH        -0.1020
     18 N11       -19.3870   38.8620  -13.2080 N.am      1 5LH        -0.2637
     19 C06       -18.3060   37.9800  -12.9350 C.3       1 5LH         0.1311
     20 C05       -18.8150   36.7870  -12.1840 C.2       1 5LH         0.2020
     21 O12       -19.7980   36.8670  -11.3870 O.2       1 5LH        -0.3945
     22 C07       -17.2740   38.6800  -12.0990 C.3       1 5LH        -0.0101
     23 C08       -16.7500   39.9610  -12.8300 C.3       1 5LH        -0.0425
     24 C10       -15.8230   39.6250  -13.9860 C.3       1 5LH        -0.0625
     25 C09       -16.0880   40.8540  -11.7960 C.3       1 5LH        -0.0625
     26 N04       -18.1270   35.5420  -12.4010 N.am      1 5LH        -0.2797
     27 C03       -18.6080   34.3830  -11.7430 C.3       1 5LH         0.0672
     28 C13       -19.3670   33.5730  -12.7500 C.3       1 5LH        -0.0108
     29 C14       -20.8480   34.1500  -12.8790 C.3       1 5LH         0.0394
     30 C15       -21.8000   33.1640  -13.7090 C.2       1 5LH         0.1760
     31 O40       -21.3690   32.3580  -14.5360 O.2       1 5LH        -0.3971
     32 C02       -17.4430   33.6090  -11.2270 C.3       1 5LH         0.0673
     33 O01       -16.8700   34.3820  -10.3390 O.3       1 5LH        -0.3927
     34 H1        -23.8251   32.5484  -14.0458 H         1 5LH         0.1850
     35 H2        -23.1756   34.7884  -12.1869 H         1 5LH         0.0521
     36 H3        -24.3975   33.5287  -11.8037 H         1 5LH         0.0521
     37 H4        -25.7389   34.1607  -13.9118 H         1 5LH         0.0314
     38 H5        -24.4971   35.3815  -14.3526 H         1 5LH         0.0314
     39 H6        -25.4654   35.5956  -11.5281 H         1 5LH         0.0648
     40 H7        -26.7217   35.9376  -12.7656 H         1 5LH         0.0648
     41 H8        -23.0925   36.9664  -11.8259 H         1 5LH         0.0899
     42 H9        -21.6372   39.3435  -12.1785 H         1 5LH         0.0426
     43 H10       -22.6169   40.6956  -12.8410 H         1 5LH         0.0426
     44 H11       -20.9757   40.5815  -14.4237 H         1 5LH         0.0795
     45 H12       -22.7512   38.4840  -15.6805 H         1 5LH         0.1741
     46 H13       -19.4041   39.7522  -12.7528 H         1 5LH         0.1883
     47 H14       -17.8517   37.6538  -13.8822 H         1 5LH         0.0800
     48 H15       -16.4311   37.9968  -11.9180 H         1 5LH         0.0315
     49 H16       -17.7235   38.9705  -11.1380 H         1 5LH         0.0315
     50 H17       -17.6144   40.4988  -13.2466 H         1 5LH         0.0298
     51 H18       -15.4830   40.5548  -14.4655 H         1 5LH         0.0232
     52 H19       -16.3619   39.0092  -14.7211 H         1 5LH         0.0232
     53 H20       -14.9530   39.0679  -13.6084 H         1 5LH         0.0232
     54 H21       -16.7999   41.0655  -10.9846 H         1 5LH         0.0232
     55 H22       -15.7808   41.7981  -12.2696 H         1 5LH         0.0232
     56 H23       -15.2037   40.3454  -11.3846 H         1 5LH         0.0232
     57 H24       -17.3288   35.4959  -13.0016 H         1 5LH         0.1855
     58 H25       -19.2687   34.6625  -10.9091 H         1 5LH         0.0580
     59 H26       -19.4083   32.5238  -12.4223 H         1 5LH         0.0313
     60 H27       -18.8627   33.6329  -13.7257 H         1 5LH         0.0313
     61 H28       -20.8081   35.1221  -13.3922 H         1 5LH         0.0503
     62 H29       -21.2669   34.2845  -11.8708 H         1 5LH         0.0503
     63 H30       -16.7432   33.3789  -12.0438 H         1 5LH         0.0580
     64 H31       -17.7813   32.6727  -10.7592 H         1 5LH         0.0580
     65 H32       -16.5920   35.1892  -10.7557 H         1 5LH         0.2095
@<TRIPOS>BOND
     1    1    2 ar 
     2    1    3 ar 
     3   13    1 am 
     4    5    4 1  
     5    4   30 am 
     6    6    5 1  
     7    7    6 1  
     8    8    7 1  
     9    9    8 1  
    10    8   17 1  
    11   10    9 2  
    12   11   10 1  
    13   10   16 1  
    14   12   11 1  
    15   12   13 1  
    16   12   14 1  
    17   14   15 2  
    18   14   18 am 
    19   16   17 2  
    20   18   19 1  
    21   19   20 1  
    22   19   22 1  
    23   20   21 2  
    24   20   26 am 
    25   22   23 1  
    26   23   24 1  
    27   23   25 1  
    28   26   27 1  
    29   27   28 1  
    30   27   32 1  
    31   28   29 1  
    32   29   30 1  
    33   30   31 2  
    34   32   33 1  
    35    4   34 1  
    36    5   35 1  
    37    5   36 1  
    38    6   37 1  
    39    6   38 1  
    40    7   39 1  
    41    7   40 1  
    42    9   41 1  
    43   11   42 1  
    44   11   43 1  
    45   12   44 1  
    46   13   45 1  
    47   18   46 1  
    48   19   47 1  
    49   22   48 1  
    50   22   49 1  
    51   23   50 1  
    52   24   51 1  
    53   24   52 1  
    54   24   53 1  
    55   25   54 1  
    56   25   55 1  
    57   25   56 1  
    58   26   57 1  
    59   27   58 1  
    60   28   59 1  
    61   28   60 1  
    62   29   61 1  
    63   29   62 1  
    64   32   63 1  
    65   32   64 1  
    66   33   65 1  
@<TRIPOS>SUBSTRUCTURE
     1 5LH         1

