### 
### Created by X-TOOL on Mon Sep 10 21:13:25 2018
### 

@<TRIPOS>MOLECULE
5e0j_ligand
   95    98     1     0     0
SMALL
GAST_HUCK


@<TRIPOS>ATOM
      1 C32        59.6680  -53.6360   23.9840 C.2       1 5LJ         0.3240
      2 O41        60.1420  -54.6270   24.4320 O.2       1 5LJ        -0.3773
      3 O33        59.2710  -52.5340   24.7760 O.3       1 5LJ        -0.2505
      4 C34        59.4020  -52.6630   26.1820 C.3       1 5LJ         0.1113
      5 C35        60.1290  -51.4040   26.7290 C.ar      1 5LJ        -0.0130
      6 C36        61.3940  -51.5340   27.3480 C.ar      1 5LJ        -0.0578
      7 C37        62.0510  -50.4040   27.8490 C.ar      1 5LJ        -0.0685
      8 C38        61.4430  -49.1220   27.7390 C.ar      1 5LJ        -0.0687
      9 C39        60.1780  -48.9900   27.1250 C.ar      1 5LJ        -0.0685
     10 C40        59.5220  -50.1200   26.6230 C.ar      1 5LJ        -0.0578
     11 N19        57.2870  -50.2320   15.6960 N.am      1 5LJ        -0.2870
     12 C20        56.2240  -49.2370   15.4140 C.3       1 5LJ         0.0309
     13 C21        55.1670  -49.3100   16.6250 C.3       1 5LJ        -0.0327
     14 C22        54.4610  -50.6660   16.6680 C.3       1 5LJ        -0.0511
     15 C23        53.9270  -51.0260   18.1440 C.3       1 5LJ        -0.0503
     16 C24        55.0250  -51.6320   18.9810 C.3       1 5LJ        -0.0225
     17 C25        55.4290  -52.9940   18.4370 C.3       1 5LJ         0.0754
     18 N26        56.2260  -53.6920   19.4370 N.pl3     1 5LJ        -0.1813
     19 C27        57.5100  -54.1740   19.3540 C.2       1 5LJ         0.0696
     20 C28        57.9020  -54.7990   20.5880 C.2       1 5LJ         0.0414
     21 C29        59.2480  -55.4950   21.0030 C.3       1 5LJ         0.0221
     22 C30        60.1850  -54.4760   21.6320 C.3       1 5LJ         0.1394
     23 N31        59.4810  -53.5340   22.5160 N.am      1 5LJ        -0.2398
     24 C42        60.8670  -53.6730   20.5520 C.2       1 5LJ         0.2054
     25 O43        60.5840  -52.5590   20.2110 O.2       1 5LJ        -0.3942
     26 N44        56.8020  -54.6420   21.3420 N.2       1 5LJ        -0.2263
     27 N45        55.8450  -54.0010   20.6660 N.2       1 5LJ        -0.1020
     28 N14        61.9490  -54.4000   19.9240 N.am      1 5LJ        -0.2636
     29 C06        62.7220  -53.7200   18.8930 C.3       1 5LJ         0.1311
     30 C05        61.9170  -53.4350   17.6930 C.2       1 5LJ         0.2020
     31 O15        61.0720  -54.0900   17.2700 O.2       1 5LJ        -0.3945
     32 C07        63.9040  -54.6080   18.4390 C.3       1 5LJ        -0.0096
     33 C08        64.9830  -54.8620   19.5610 C.3       1 5LJ        -0.0368
     34 C09        65.5220  -53.5600   20.1110 C.3       1 5LJ        -0.0500
     35 C10        66.6940  -53.7970   21.0710 C.3       1 5LJ        -0.0528
     36 C11        67.8230  -54.6050   20.4130 C.3       1 5LJ        -0.0530
     37 C12        67.2820  -55.9220   19.9020 C.3       1 5LJ        -0.0528
     38 C13        66.1140  -55.7050   18.9350 C.3       1 5LJ        -0.0500
     39 N04        62.3410  -52.1910   17.0390 N.am      1 5LJ        -0.2797
     40 C03        61.7510  -51.7400   15.7810 C.3       1 5LJ         0.0672
     41 C16        60.8890  -50.5210   15.9880 C.3       1 5LJ        -0.0108
     42 C17        59.5240  -50.9300   16.5530 C.3       1 5LJ         0.0394
     43 C18        58.5310  -49.8330   16.2800 C.2       1 5LJ         0.1760
     44 O46        58.7520  -48.6860   16.5190 O.2       1 5LJ        -0.3971
     45 C02        62.9370  -51.4630   14.8700 C.3       1 5LJ         0.0673
     46 O01        63.6970  -52.4990   14.5400 O.3       1 5LJ        -0.3927
     47 H1         59.9895  -53.5623   26.4186 H         1 5LJ         0.0776
     48 H2         58.4058  -52.7445   26.6412 H         1 5LJ         0.0776
     49 H3         61.8558  -52.5109   27.4347 H         1 5LJ         0.0557
     50 H4         63.0219  -50.5054   28.3203 H         1 5LJ         0.0599
     51 H5         61.9510  -48.2464   28.1267 H         1 5LJ         0.0559
     52 H6         59.7150  -48.0133   27.0425 H         1 5LJ         0.0599
     53 H7         58.5506  -50.0177   26.1529 H         1 5LJ         0.0557
     54 H8         57.1323  -51.1949   15.4750 H         1 5LJ         0.1850
     55 H9         55.7250  -49.4782   14.4638 H         1 5LJ         0.0520
     56 H10        56.6588  -48.2283   15.3542 H         1 5LJ         0.0520
     57 H11        54.4146  -48.5188   16.4916 H         1 5LJ         0.0285
     58 H12        55.6994  -49.1534   17.5748 H         1 5LJ         0.0285
     59 H13        55.1689  -51.4445   16.3476 H         1 5LJ         0.0266
     60 H14        53.6051  -50.6420   15.9775 H         1 5LJ         0.0266
     61 H15        53.0985  -51.7449   18.0618 H         1 5LJ         0.0266
     62 H16        53.5683  -50.1073   18.6312 H         1 5LJ         0.0266
     63 H17        54.6682  -51.7480   20.0150 H         1 5LJ         0.0294
     64 H18        55.8992  -50.9644   18.9675 H         1 5LJ         0.0294
     65 H19        56.0221  -52.8627   17.5200 H         1 5LJ         0.0648
     66 H20        54.5273  -53.5816   18.2096 H         1 5LJ         0.0648
     67 H21        58.1448  -54.0935   18.4728 H         1 5LJ         0.0899
     68 H22        59.7251  -55.9274   20.1112 H         1 5LJ         0.0428
     69 H23        59.0369  -56.2935   21.7295 H         1 5LJ         0.0428
     70 H24        60.9426  -55.0157   22.2192 H         1 5LJ         0.0817
     71 H25        58.8822  -52.8317   22.1310 H         1 5LJ         0.1900
     72 H26        62.1599  -55.3407   20.1896 H         1 5LJ         0.1883
     73 H27        63.1054  -52.7755   19.3064 H         1 5LJ         0.0800
     74 H28        64.3988  -54.1169   17.5881 H         1 5LJ         0.0315
     75 H29        63.5028  -55.5807   18.1184 H         1 5LJ         0.0315
     76 H30        64.5224  -55.4262   20.3853 H         1 5LJ         0.0303
     77 H31        64.7172  -53.0399   20.6512 H         1 5LJ         0.0268
     78 H32        65.8663  -52.9340   19.2746 H         1 5LJ         0.0268
     79 H33        66.3277  -54.3489   21.9492 H         1 5LJ         0.0265
     80 H34        67.0939  -52.8233   21.3904 H         1 5LJ         0.0265
     81 H35        68.6132  -54.7979   21.1535 H         1 5LJ         0.0265
     82 H36        68.2403  -54.0312   19.5724 H         1 5LJ         0.0265
     83 H37        66.9339  -56.5221   20.7557 H         1 5LJ         0.0265
     84 H38        68.0855  -56.4607   19.3784 H         1 5LJ         0.0265
     85 H39        66.4878  -55.1862   18.0400 H         1 5LJ         0.0268
     86 H40        65.7065  -56.6854   18.6472 H         1 5LJ         0.0268
     87 H41        63.0544  -51.6362   17.4671 H         1 5LJ         0.1855
     88 H42        61.1293  -52.5383   15.3496 H         1 5LJ         0.0580
     89 H43        60.7454  -50.0093   15.0249 H         1 5LJ         0.0313
     90 H44        61.3858  -49.8400   16.6946 H         1 5LJ         0.0313
     91 H45        59.6072  -51.0902   17.6381 H         1 5LJ         0.0503
     92 H46        59.1885  -51.8595   16.0698 H         1 5LJ         0.0503
     93 H47        63.5798  -50.7277   15.3761 H         1 5LJ         0.0580
     94 H48        62.5457  -51.0283   13.9384 H         1 5LJ         0.0580
     95 H49        64.0631  -52.8852   15.3270 H         1 5LJ         0.2095
@<TRIPOS>BOND
     1    1    2 2  
     2    1    3 1  
     3   23    1 am 
     4    3    4 1  
     5    4    5 1  
     6    5    6 ar 
     7    5   10 ar 
     8    6    7 ar 
     9    7    8 ar 
    10    9    8 ar 
    11   10    9 ar 
    12   12   11 1  
    13   11   43 am 
    14   13   12 1  
    15   14   13 1  
    16   15   14 1  
    17   16   15 1  
    18   17   16 1  
    19   18   17 1  
    20   19   18 1  
    21   18   27 1  
    22   20   19 2  
    23   21   20 1  
    24   20   26 1  
    25   22   21 1  
    26   22   23 1  
    27   22   24 1  
    28   24   25 2  
    29   24   28 am 
    30   26   27 2  
    31   28   29 1  
    32   29   30 1  
    33   29   32 1  
    34   30   31 2  
    35   30   39 am 
    36   32   33 1  
    37   33   34 1  
    38   33   38 1  
    39   34   35 1  
    40   35   36 1  
    41   36   37 1  
    42   37   38 1  
    43   39   40 1  
    44   40   41 1  
    45   40   45 1  
    46   41   42 1  
    47   42   43 1  
    48   43   44 2  
    49   45   46 1  
    50    4   47 1  
    51    4   48 1  
    52    6   49 1  
    53    7   50 1  
    54    8   51 1  
    55    9   52 1  
    56   10   53 1  
    57   11   54 1  
    58   12   55 1  
    59   12   56 1  
    60   13   57 1  
    61   13   58 1  
    62   14   59 1  
    63   14   60 1  
    64   15   61 1  
    65   15   62 1  
    66   16   63 1  
    67   16   64 1  
    68   17   65 1  
    69   17   66 1  
    70   19   67 1  
    71   21   68 1  
    72   21   69 1  
    73   22   70 1  
    74   23   71 1  
    75   28   72 1  
    76   29   73 1  
    77   32   74 1  
    78   32   75 1  
    79   33   76 1  
    80   34   77 1  
    81   34   78 1  
    82   35   79 1  
    83   35   80 1  
    84   36   81 1  
    85   36   82 1  
    86   37   83 1  
    87   37   84 1  
    88   38   85 1  
    89   38   86 1  
    90   39   87 1  
    91   40   88 1  
    92   41   89 1  
    93   41   90 1  
    94   42   91 1  
    95   42   92 1  
    96   45   93 1  
    97   45   94 1  
    98   46   95 1  
@<TRIPOS>SUBSTRUCTURE
     1 5LJ         1

