### 
### Created by X-TOOL on Mon Sep 10 21:13:25 2018
### 

@<TRIPOS>MOLECULE
5e1e_ligand
   53    56     1     0     0
SMALL
GAST_HUCK


@<TRIPOS>ATOM
      1 C1        -20.8620  -20.1420   19.4790 C.3       1 5JG         0.0562
      2 C3        -20.7310  -19.1220   17.3110 C.ar      1 5JG         0.1223
      3 C7        -21.1940  -18.5800   14.9970 C.ar      1 5JG         0.0008
      4 C8        -21.5780  -18.5610   16.3300 C.ar      1 5JG         0.1257
      5 C10       -23.7460  -17.6530   15.8540 C.3       1 5JG         0.0587
      6 C12       -17.8450  -20.3320   15.2320 C.2       1 5JG         0.1329
      7 C14       -16.1150  -21.0850   14.0970 C.ar      1 5JG         0.0809
      8 C15       -15.9510  -21.3180   15.4530 C.ar      1 5JG         0.1273
      9 C19       -14.1390  -22.0530   13.5310 C.ar      1 5JG        -0.0095
     10 C22       -15.3980  -21.8260   18.2940 C.3       1 5JG         0.0288
     11 C24       -17.2340  -22.4300   19.7490 C.3       1 5JG        -0.0078
     12 N26       -17.7590  -24.8200   20.2060 N.4       1 5JG         0.2270
     13 C27       -16.4350  -25.1930   19.6670 C.3       1 5JG        -0.0334
     14 O2        -21.1990  -19.0640   18.5970 O.3       1 5JG        -0.3260
     15 C4        -19.5210  -19.6880   16.9360 C.ar      1 5JG        -0.0236
     16 C5        -19.1290  -19.7170   15.5970 C.ar      1 5JG         0.0512
     17 C6        -19.9890  -19.1520   14.6650 C.ar      1 5JG         0.1343
     18 O9        -22.7480  -18.0320   16.8050 O.3       1 5JG        -0.3207
     19 F11       -19.6240  -19.1550   13.3680 F         1 5JG        -0.1876
     20 N13       -17.3320  -20.4480   13.9700 N.2       1 5JG        -0.3003
     21 N16       -17.0420  -20.8430   16.1550 N.pl3     1 5JG        -0.2485
     22 C17       -14.7740  -21.9670   15.8600 C.ar      1 5JG         0.0969
     23 C18       -13.8710  -22.3350   14.8610 C.ar      1 5JG         0.0700
     24 N20       -15.2530  -21.4280   13.1270 N.ar      1 5JG        -0.3263
     25 CL        -12.4030  -23.1550   15.2950 Cl        1 5JG        -0.0832
     26 N21       -14.5010  -22.2190   17.2210 N.pl3     1 5JG        -0.3155
     27 C23       -15.8320  -22.8480   19.3140 C.3       1 5JG        -0.0116
     28 C25       -17.8120  -23.4370   20.7130 C.3       1 5JG        -0.0334
     29 C28       -15.8910  -24.2200   18.6590 C.3       1 5JG        -0.0078
     30 H1        -21.3045  -19.9577   20.4691 H         1 5JG         0.0571
     31 H2        -19.7682  -20.2104   19.5733 H         1 5JG         0.0571
     32 H3        -21.2547  -21.0854   19.0718 H         1 5JG         0.0571
     33 H4        -21.8319  -18.1521   14.2321 H         1 5JG         0.0518
     34 H5        -24.6214  -17.2480   16.3829 H         1 5JG         0.0577
     35 H6        -24.0470  -18.5337   15.2676 H         1 5JG         0.0577
     36 H7        -23.3376  -16.8857   15.1799 H         1 5JG         0.0577
     37 H8        -13.4137  -22.3519   12.7829 H         1 5JG         0.0702
     38 H9        -16.3124  -21.4392   17.8204 H         1 5JG         0.0519
     39 H10       -14.8999  -21.0154   18.8461 H         1 5JG         0.0519
     40 H11       -17.8828  -22.3635   18.8632 H         1 5JG         0.0320
     41 H12       -17.1824  -21.4472   20.2404 H         1 5JG         0.0320
     42 H13       -17.9851  -25.4470   20.9621 H         1 5JG         0.2013
     43 H14       -18.4428  -24.9183   19.4720 H         1 5JG         0.2013
     44 H15       -16.5223  -26.1780   19.1852 H         1 5JG         0.0814
     45 H16       -15.7253  -25.2563   20.5050 H         1 5JG         0.0814
     46 H17       -18.8718  -20.1131   17.6929 H         1 5JG         0.0545
     47 H18       -17.1975  -20.8782   17.1726 H         1 5JG         0.2301
     48 H19       -13.6256  -22.7038   17.4650 H         1 5JG         0.1788
     49 H20       -15.1433  -22.8655   20.1715 H         1 5JG         0.0324
     50 H21       -18.8629  -23.1747   20.9049 H         1 5JG         0.0814
     51 H22       -17.2439  -23.3871   21.6536 H         1 5JG         0.0814
     52 H23       -16.5508  -24.1856   17.7795 H         1 5JG         0.0320
     53 H24       -14.8820  -24.5291   18.3486 H         1 5JG         0.0320
@<TRIPOS>BOND
     1   14    1 1  
     2    2    4 ar 
     3    2   14 1  
     4   15    2 ar 
     5    3    4 ar 
     6   17    3 ar 
     7    4   18 1  
     8   18    5 1  
     9    6   16 1  
    10    6   20 2  
    11   21    6 1  
    12    8    7 ar 
    13    7   20 1  
    14    7   24 ar 
    15    8   21 1  
    16   22    8 ar 
    17   23    9 ar 
    18    9   24 ar 
    19   26   10 1  
    20   10   27 1  
    21   27   11 1  
    22   11   28 1  
    23   12   13 1  
    24   28   12 1  
    25   13   29 1  
    26   16   15 ar 
    27   16   17 ar 
    28   17   19 1  
    29   22   23 ar 
    30   22   26 1  
    31   23   25 1  
    32   27   29 1  
    33    1   30 1  
    34    1   31 1  
    35    1   32 1  
    36    3   33 1  
    37    5   34 1  
    38    5   35 1  
    39    5   36 1  
    40    9   37 1  
    41   10   38 1  
    42   10   39 1  
    43   11   40 1  
    44   11   41 1  
    45   12   42 1  
    46   12   43 1  
    47   13   44 1  
    48   13   45 1  
    49   15   46 1  
    50   21   47 1  
    51   26   48 1  
    52   27   49 1  
    53   28   50 1  
    54   28   51 1  
    55   29   52 1  
    56   29   53 1  
@<TRIPOS>SUBSTRUCTURE
     1 5JG         1

