### 
### Created by X-TOOL on Mon Sep 10 21:13:25 2018
### 

@<TRIPOS>MOLECULE
5e1s_ligand
   78    83     1     0     0
SMALL
GAST_HUCK


@<TRIPOS>ATOM
      1 N3          5.4830   21.3110   18.1690 N.ar      1 5JA        -0.2677
      2 C5          5.6060   20.3500   15.6600 C.ar      1 5JA         0.0079
      3 C7          6.5210   21.6490   17.3990 C.ar      1 5JA         0.0398
      4 C8          6.6130   21.1720   16.0880 C.ar      1 5JA        -0.0019
      5 C10         8.3850   22.8870   15.4830 C.3       1 5JA        -0.0003
      6 C13         8.4350   23.1890   16.9390 C.2       1 5JA         0.0308
      7 C17         1.0910   19.0980   23.0840 C.3       1 5JA        -0.0020
      8 C20         7.7200   21.7570   21.1160 C.ar      1 5JA        -0.0494
      9 C21         7.2430   21.5690   22.3980 C.ar      1 5JA        -0.0598
     10 C22         6.4940   22.5350   23.0020 C.ar      1 5JA        -0.0606
     11 C24         6.6780   23.8950   21.0550 C.ar      1 5JA        -0.0494
     12 C26         8.8930   20.4960   15.3230 C.3       1 5JA        -0.0511
     13 C28         3.9680   21.3280   20.5740 C.2       1 5JA        -0.0231
     14 C1          7.4320   22.9210   20.4240 C.ar      1 5JA         0.0159
     15 C2          4.5620   20.5040   17.6420 C.ar      1 5JA         0.1912
     16 N4          3.4910   20.1350   18.4300 N.pl3     1 5JA        -0.2466
     17 N6          4.5750   19.9970   16.4130 N.ar      1 5JA        -0.2694
     18 C9          7.7750   21.5230   15.2110 C.3       1 5JA         0.0024
     19 C11         7.9460   23.1400   19.0610 C.2       1 5JA         0.1066
     20 C12         7.5600   22.5620   17.8640 C.2       1 5JA         0.0334
     21 N14         9.2480   23.9670   17.4840 N.2       1 5JA        -0.2176
     22 N15         8.9740   23.9510   18.7720 N.pl3     1 5JA        -0.2054
     23 N16        -0.1370   18.8950   23.8430 N.4       1 5JA         0.2447
     24 C18         1.1960   20.4560   22.6330 C.3       1 5JA         0.1055
     25 N19         2.2080   20.6160   21.5980 N.pl3     1 5JA        -0.2160
     26 C23         6.2100   23.6930   22.3330 C.ar      1 5JA        -0.0598
     27 C25         9.7750   24.7690   19.6670 C.3       1 5JA         0.0580
     28 C27         3.2950   21.3790   21.7410 C.2       1 5JA         0.0442
     29 C29         3.2280   20.5140   19.7220 C.2       1 5JA         0.1098
     30 N30         2.1230   20.0800   20.3590 N.2       1 5JA        -0.2126
     31 C31        -0.0150   19.4460   25.2010 C.3       1 5JA         0.0096
     32 C32        -1.2660   19.1600   26.0170 C.3       1 5JA         0.0095
     33 N33        -1.5450   17.7210   26.0430 N.4       1 5JA         0.2443
     34 C34        -1.7050   17.2240   24.6830 C.3       1 5JA         0.0095
     35 C35        -0.4460   17.4700   23.8890 C.3       1 5JA         0.0096
     36 C36        -2.7080   17.3920   26.8740 C.3       1 5JA        -0.0075
     37 C37        -2.3680   17.1270   28.3230 C.3       1 5JA         0.0871
     38 O38        -1.8910   15.8080   28.4530 O.3       1 5JA        -0.3777
     39 C39        -2.9030   14.8850   28.7570 C.3       1 5JA         0.0367
     40 H1          5.6549   19.9661   14.6474 H         1 5JA         0.0799
     41 H2          9.4083   22.9062   15.0799 H         1 5JA         0.0445
     42 H3          7.7785   23.6549   14.9806 H         1 5JA         0.0445
     43 H4          1.0901   18.4280   22.2116 H         1 5JA         0.0843
     44 H5          1.9535   18.8639   23.7253 H         1 5JA         0.0843
     45 H6          8.3241   20.9880   20.6482 H         1 5JA         0.0637
     46 H7          7.4650   20.6491   22.9267 H         1 5JA         0.0621
     47 H8          6.1246   22.3853   24.0101 H         1 5JA         0.0627
     48 H9          6.4549   24.8221   20.5395 H         1 5JA         0.0637
     49 H10         8.4884   19.4912   15.1316 H         1 5JA         0.0255
     50 H11         9.3234   20.5313   16.3347 H         1 5JA         0.0255
     51 H12         9.6751   20.7232   14.5836 H         1 5JA         0.0255
     52 H13         4.9080   21.8269   20.3430 H         1 5JA         0.0319
     53 H14         2.8070   19.4987   17.9961 H         1 5JA         0.2124
     54 H15         7.4058   21.5215   14.1748 H         1 5JA         0.0475
     55 H16        -0.8892   19.3736   23.3727 H         1 5JA         0.2039
     56 H17         1.4611   21.0939   23.4890 H         1 5JA         0.0683
     57 H18         0.2229   20.7710   22.2284 H         1 5JA         0.0683
     58 H19         5.6112   24.4583   22.8134 H         1 5JA         0.0621
     59 H20        10.5371   25.3094   19.0863 H         1 5JA         0.0595
     60 H21        10.2684   24.1248   20.4096 H         1 5JA         0.0595
     61 H22         9.1259   25.4921   20.1825 H         1 5JA         0.0595
     62 H23         3.5829   21.9364   22.6312 H         1 5JA         0.0973
     63 H24         0.1318   20.5342   25.1363 H         1 5JA         0.0868
     64 H25         0.8523   18.9880   25.6990 H         1 5JA         0.0868
     65 H26        -2.1203   19.6861   25.5661 H         1 5JA         0.0868
     66 H27        -1.1165   19.5182   27.0462 H         1 5JA         0.0868
     67 H28        -0.7451   17.2610   26.4488 H         1 5JA         0.2038
     68 H29        -2.5459   17.7449   24.2019 H         1 5JA         0.0868
     69 H30        -1.9112   16.1439   24.7124 H         1 5JA         0.0868
     70 H31         0.3900   16.9341   24.3621 H         1 5JA         0.0868
     71 H32        -0.5870   17.0975   22.8636 H         1 5JA         0.0868
     72 H33        -3.1865   16.4922   26.4601 H         1 5JA         0.0837
     73 H34        -3.4136   18.2348   26.8321 H         1 5JA         0.0837
     74 H35        -3.2685   17.2552   28.9416 H         1 5JA         0.0613
     75 H36        -1.5922   17.8331   28.6540 H         1 5JA         0.0613
     76 H37        -2.4672   13.8788   28.8448 H         1 5JA         0.0524
     77 H38        -3.6564   14.8896   27.9555 H         1 5JA         0.0524
     78 H39        -3.3788   15.1628   29.7091 H         1 5JA         0.0524
@<TRIPOS>BOND
     1    1    3 ar 
     2   15    1 ar 
     3    2    4 ar 
     4   17    2 ar 
     5    3    4 ar 
     6    3   20 1  
     7    4   18 1  
     8    6    5 1  
     9   18    5 1  
    10   20    6 1  
    11    6   21 2  
    12    7   23 1  
    13   24    7 1  
    14    8    9 ar 
    15   14    8 ar 
    16    9   10 ar 
    17   26   10 ar 
    18   14   11 ar 
    19   11   26 ar 
    20   18   12 1  
    21   28   13 2  
    22   13   29 1  
    23   19   14 1  
    24   16   15 1  
    25   15   17 ar 
    26   29   16 1  
    27   20   19 2  
    28   19   22 1  
    29   22   21 1  
    30   22   27 1  
    31   23   31 1  
    32   23   35 1  
    33   25   24 1  
    34   25   28 1  
    35   25   30 1  
    36   29   30 2  
    37   31   32 1  
    38   32   33 1  
    39   33   34 1  
    40   33   36 1  
    41   34   35 1  
    42   36   37 1  
    43   37   38 1  
    44   38   39 1  
    45    2   40 1  
    46    5   41 1  
    47    5   42 1  
    48    7   43 1  
    49    7   44 1  
    50    8   45 1  
    51    9   46 1  
    52   10   47 1  
    53   11   48 1  
    54   12   49 1  
    55   12   50 1  
    56   12   51 1  
    57   13   52 1  
    58   16   53 1  
    59   18   54 1  
    60   23   55 1  
    61   24   56 1  
    62   24   57 1  
    63   26   58 1  
    64   27   59 1  
    65   27   60 1  
    66   27   61 1  
    67   28   62 1  
    68   31   63 1  
    69   31   64 1  
    70   32   65 1  
    71   32   66 1  
    72   33   67 1  
    73   34   68 1  
    74   34   69 1  
    75   35   70 1  
    76   35   71 1  
    77   36   72 1  
    78   36   73 1  
    79   37   74 1  
    80   37   75 1  
    81   39   76 1  
    82   39   77 1  
    83   39   78 1  
@<TRIPOS>SUBSTRUCTURE
     1 5JA         1

