### 
### Created by X-TOOL on Mon Sep 10 21:13:27 2018
### 

@<TRIPOS>MOLECULE
5e28_ligand
   29    30     1     0     0
SMALL
GAST_HUCK


@<TRIPOS>ATOM
      1 S1         -5.9570    0.8810   16.5850 S.o2      1 BC5         0.0651
      2 N1         -5.4610   -0.4620   15.8480 N.am      1 BC5        -0.2611
      3 O2         -7.3410    1.0690   16.2500 O.2       1 BC5        -0.1507
      4 O3         -5.5850    0.7740   17.9680 O.2       1 BC5        -0.1507
      5 C4         -5.0520    2.2350   15.8920 C.ar      1 BC5         0.1061
      6 C5         -5.7160    3.4000   15.5260 C.ar      1 BC5        -0.0366
      7 C6         -5.0050    4.4630   14.9820 C.ar      1 BC5        -0.0554
      8 C7         -3.6300    4.3620   14.8040 C.ar      1 BC5        -0.0260
      9 C8         -2.9660    3.1970   15.1710 C.ar      1 BC5        -0.0554
     10 C9         -3.6770    2.1330   15.7150 C.ar      1 BC5        -0.0366
     11 C10        -2.8700    5.4990   14.2220 C.ar      1 BC5        -0.0300
     12 C11        -1.9610    5.2750   13.1940 C.ar      1 BC5        -0.0645
     13 C12        -1.2510    6.3380   12.6500 C.ar      1 BC5        -0.0425
     14 C13        -1.4480    7.6260   13.1340 C.ar      1 BC5         0.0373
     15 C14        -2.3570    7.8510   14.1620 C.ar      1 BC5        -0.0425
     16 C15        -3.0680    6.7870   14.7060 C.ar      1 BC5        -0.0645
     17 N2         -0.7420    8.6820   12.5940 N.pl3     1 BC5        -0.3358
     18 H1         -5.6256   -0.5852   14.8694 H         1 BC5         0.1635
     19 H2         -4.9884   -1.1728   16.3689 H         1 BC5         0.1635
     20 H3         -6.7881    3.4794   15.6649 H         1 BC5         0.0632
     21 H4         -5.5229    5.3714   14.6963 H         1 BC5         0.0606
     22 H5         -1.8937    3.1181   15.0330 H         1 BC5         0.0606
     23 H6         -3.1593    1.2245   16.0009 H         1 BC5         0.0632
     24 H7         -1.8063    4.2706   12.8169 H         1 BC5         0.0595
     25 H8         -0.5432    6.1629   11.8479 H         1 BC5         0.0522
     26 H9         -2.5113    8.8555   14.5391 H         1 BC5         0.0522
     27 H10        -3.7766    6.9619   15.5075 H         1 BC5         0.0595
     28 H11        -0.0686    8.5156   11.8326 H         1 BC5         0.1729
     29 H12        -0.8885    9.6364   12.9525 H         1 BC5         0.1729
@<TRIPOS>BOND
     1    1    2 am 
     2    1    3 2  
     3    1    4 2  
     4    1    5 1  
     5    5    6 ar 
     6    5   10 ar 
     7    6    7 ar 
     8    7    8 ar 
     9    8    9 ar 
    10    8   11 1  
    11    9   10 ar 
    12   11   12 ar 
    13   11   16 ar 
    14   12   13 ar 
    15   13   14 ar 
    16   14   15 ar 
    17   14   17 1  
    18   15   16 ar 
    19    2   18 1  
    20    2   19 1  
    21    6   20 1  
    22    7   21 1  
    23    9   22 1  
    24   10   23 1  
    25   12   24 1  
    26   13   25 1  
    27   15   26 1  
    28   16   27 1  
    29   17   28 1  
    30   17   29 1  
@<TRIPOS>SUBSTRUCTURE
     1 BC5         1

