### 
### Created by X-TOOL on Mon Sep 10 21:13:26 2018
### 

@<TRIPOS>MOLECULE
5e2k_ligand
   29    30     1     0     0
SMALL
GAST_HUCK


@<TRIPOS>ATOM
      1 S1         -5.9330    0.9240   16.6280 S.o2      1 BX4         0.0659
      2 N1         -5.4210   -0.4260   15.9150 N.am      1 BX4        -0.2609
      3 O2         -5.5600    0.8470   18.0130 O.2       1 BX4        -0.1505
      4 O3         -7.3190    1.0890   16.2900 O.2       1 BX4        -0.1505
      5 C4         -5.0450    2.2760   15.9100 C.ar      1 BX4         0.1080
      6 C5         -3.6730    2.1770   15.7080 C.ar      1 BX4        -0.0345
      7 C6         -2.9750    3.2380   15.1440 C.ar      1 BX4        -0.0524
      8 C7         -3.6480    4.3990   14.7830 C.ar      1 BX4        -0.0210
      9 C8         -5.0200    4.4980   14.9850 C.ar      1 BX4        -0.0524
     10 C9         -5.7180    3.4370   15.5480 C.ar      1 BX4        -0.0345
     11 C10        -2.9020    5.5350   14.1790 C.ar      1 BX4        -0.0299
     12 C11        -3.1380    6.8320   14.6170 C.ar      1 BX4        -0.0672
     13 C12        -2.4400    7.8940   14.0540 C.ar      1 BX4        -0.0727
     14 C13        -1.5050    7.6580   13.0520 C.ar      1 BX4        -0.0445
     15 C14        -1.2690    6.3600   12.6140 C.ar      1 BX4         0.0355
     16 C15        -1.9670    5.2980   13.1780 C.ar      1 BX4        -0.0375
     17 N2         -0.3420    6.1250   11.6190 N.pl3     1 BX4        -0.3371
     18 H1         -4.4724   -0.7220   16.0273 H         1 BX4         0.1635
     19 H2         -6.0516   -0.9684   15.3599 H         1 BX4         0.1635
     20 H3         -3.1476    1.2719   15.9905 H         1 BX4         0.0637
     21 H4         -1.9055    3.1600   14.9856 H         1 BX4         0.0625
     22 H5         -5.5452    5.4034   14.7031 H         1 BX4         0.0625
     23 H6         -6.7878    3.5146   15.7050 H         1 BX4         0.0637
     24 H7         -3.8668    7.0159   15.3981 H         1 BX4         0.0514
     25 H8         -2.6244    8.9060   14.3959 H         1 BX4         0.0584
     26 H9         -0.9604    8.4859   12.6127 H         1 BX4         0.0518
     27 H10        -1.7822    4.2857   12.8373 H         1 BX4         0.0516
     28 H11         0.1753    6.9114   11.2009 H         1 BX4         0.1717
     29 H12        -0.1674    5.1632   11.2945 H         1 BX4         0.1717
@<TRIPOS>BOND
     1    1    2 am 
     2    1    3 2  
     3    1    4 2  
     4    1    5 1  
     5    5    6 ar 
     6    5   10 ar 
     7    6    7 ar 
     8    7    8 ar 
     9    8    9 ar 
    10    8   11 1  
    11    9   10 ar 
    12   11   12 ar 
    13   11   16 ar 
    14   12   13 ar 
    15   13   14 ar 
    16   14   15 ar 
    17   15   16 ar 
    18   15   17 1  
    19    2   18 1  
    20    2   19 1  
    21    6   20 1  
    22    7   21 1  
    23    9   22 1  
    24   10   23 1  
    25   12   24 1  
    26   13   25 1  
    27   14   26 1  
    28   16   27 1  
    29   17   28 1  
    30   17   29 1  
@<TRIPOS>SUBSTRUCTURE
     1 BX4         1

