### 
### Created by X-TOOL on Mon Sep 10 21:13:26 2018
### 

@<TRIPOS>MOLECULE
5e2l_ligand
   23    23     1     0     0
SMALL
GAST_HUCK


@<TRIPOS>ATOM
      1 N          92.8700  -39.2950   13.8260 N.4       1 DPN         0.2341
      2 CA         94.0280  -39.6400   14.6970 C.3       1 DPN         0.0378
      3 C          93.6870  -40.8530   15.5150 C.2       1 DPN         0.0866
      4 O          92.8990  -41.6790   14.9920 O.co2     1 DPN        -0.5641
      5 OXT        94.1730  -40.9920   16.6360 O.co2     1 DPN        -0.5641
      6 CB         95.2770  -39.9070   13.8550 C.3       1 DPN         0.0361
      7 CG         96.5030  -39.2650   14.4710 C.ar      1 DPN        -0.0360
      8 CD1        96.4900  -37.9330   14.8890 C.ar      1 DPN        -0.0600
      9 CD2        97.6670  -40.0160   14.5920 C.ar      1 DPN        -0.0600
     10 CE1        97.6220  -37.3710   15.4510 C.ar      1 DPN        -0.0686
     11 CE2        98.8110  -39.4440   15.1610 C.ar      1 DPN        -0.0686
     12 CZ         98.7880  -38.1180   15.5890 C.ar      1 DPN        -0.0687
     13 H1         93.0946  -38.4813   13.2751 H         1 DPN         0.2012
     14 H2         92.0643  -39.1005   14.3996 H         1 DPN         0.2012
     15 H3         92.6675  -40.0697   13.2138 H         1 DPN         0.2012
     16 H4         94.2306  -38.7961   15.3729 H         1 DPN         0.1048
     17 H5         95.1246  -39.4942   12.8468 H         1 DPN         0.0500
     18 H6         95.4375  -40.9930   13.7862 H         1 DPN         0.0500
     19 H7         95.5912  -37.3382   14.7729 H         1 DPN         0.0557
     20 H8         97.6885  -41.0431   14.2461 H         1 DPN         0.0557
     21 H9         97.6007  -36.3405   15.7866 H         1 DPN         0.0599
     22 H10        99.7149  -40.0326   15.2687 H         1 DPN         0.0599
     23 H11        99.6732  -37.6710   16.0269 H         1 DPN         0.0559
@<TRIPOS>BOND
     1    1    2 1  
     2    2    3 1  
     3    2    6 1  
     4    3    4 ar 
     5    3    5 ar 
     6    6    7 1  
     7    7    8 ar 
     8    7    9 ar 
     9    8   10 ar 
    10    9   11 ar 
    11   10   12 ar 
    12   11   12 ar 
    13    1   13 1  
    14    1   14 1  
    15    1   15 1  
    16    2   16 1  
    17    6   17 1  
    18    6   18 1  
    19    8   19 1  
    20    9   20 1  
    21   10   21 1  
    22   11   22 1  
    23   12   23 1  
@<TRIPOS>SUBSTRUCTURE
     1 DPN         1

