### 
### Created by X-TOOL on Mon Sep 10 21:13:28 2018
### 

@<TRIPOS>MOLECULE
5e2m_ligand
   51    52     1     0     0
SMALL
GAST_HUCK


@<TRIPOS>ATOM
      1 F20        13.5500   34.8870   17.8670 F         1 V14        -0.1949
      2 C5         14.3590   35.6210   17.0830 C.ar      1 V14         0.1707
      3 C4         15.1720   36.5860   17.7520 C.ar      1 V14         0.1616
      4 S7         15.0650   36.8710   19.5300 S.o2      1 V14         0.0636
      5 O9         14.8400   35.5920   20.1910 O.2       1 V14        -0.1519
      6 N10        16.4730   37.5980   19.9630 N.am      1 V14        -0.2621
      7 O8         14.0080   37.9460   19.7630 O.2       1 V14        -0.1519
      8 C3         16.0070   37.3230   16.9130 C.ar      1 V14         0.1773
      9 F12        16.8320   38.2780   17.3620 F         1 V14        -0.1943
     10 C2         16.0690   37.1420   15.5670 C.ar      1 V14         0.1761
     11 F13        16.9500   37.9510   14.9060 F         1 V14        -0.1890
     12 C6         14.4480   35.4000   15.6930 C.ar      1 V14         0.0935
     13 C1         15.3320   36.1650   14.9180 C.ar      1 V14         0.1354
     14 S11        15.4900   36.1100   13.1450 S.o2      1 V14        -0.0053
     15 O16        14.6480   34.9290   12.6320 O.2       1 V14        -0.1719
     16 O17        16.9750   35.8520   12.9020 O.2       1 V14        -0.1719
     17 C15        14.9970   37.6180   12.2400 C.3       1 V14         0.0913
     18 C18        13.5060   37.9470   12.2100 C.3       1 V14         0.0637
     19 O21        12.7420   37.1530   13.0700 O.3       1 V14        -0.3934
     20 N19        13.6150   34.4250   15.0470 N.pl3     1 V14        -0.3213
     21 C14        12.1880   34.2350   15.3450 C.3       1 V14         0.0338
     22 C28        11.4040   35.5670   15.4060 C.3       1 V14        -0.0309
     23 C27         9.9040   35.2440   15.4680 C.3       1 V14        -0.0510
     24 C26         9.1020   35.9590   14.3620 C.3       1 V14        -0.0530
     25 C25         8.5480   34.9490   13.3520 C.3       1 V14        -0.0531
     26 C24         9.5320   33.8040   13.0880 C.3       1 V14        -0.0530
     27 C23        10.0130   33.1800   14.4160 C.3       1 V14        -0.0510
     28 C22        11.5520   33.1800   14.4070 C.3       1 V14        -0.0309
     29 H1         16.6325   37.8505   20.9174 H         1 V14         0.1633
     30 H2         17.1706   37.7881   19.2722 H         1 V14         0.1633
     31 H3         15.3340   37.5064   11.1989 H         1 V14         0.0524
     32 H4         15.5162   38.4694   12.7043 H         1 V14         0.0524
     33 H5         13.1381   37.8019   11.1836 H         1 V14         0.0573
     34 H6         13.3759   38.9998   12.5008 H         1 V14         0.0573
     35 H7         12.8372   36.2402   12.8247 H         1 V14         0.2095
     36 H8         14.0437   33.8216   14.3307 H         1 V14         0.1735
     37 H9         12.1384   33.8113   16.3589 H         1 V14         0.0545
     38 H10        11.6183   36.1657   14.5084 H         1 V14         0.0287
     39 H11        11.6998   36.1315   16.3026 H         1 V14         0.0287
     40 H12         9.5148   35.5603   16.4470 H         1 V14         0.0266
     41 H13         9.7716   34.1580   15.3542 H         1 V14         0.0266
     42 H14         9.7614   36.6672   13.8390 H         1 V14         0.0265
     43 H15         8.2653   36.5068   14.8201 H         1 V14         0.0265
     44 H16         8.3454   35.4690   12.4041 H         1 V14         0.0265
     45 H17         7.6114   34.5286   13.7471 H         1 V14         0.0265
     46 H18        10.4005   34.1941   12.5371 H         1 V14         0.0265
     47 H19         9.0328   33.0306   12.4857 H         1 V14         0.0265
     48 H20         9.6396   32.1489   14.5016 H         1 V14         0.0266
     49 H21         9.6440   33.7753   15.2642 H         1 V14         0.0266
     50 H22        11.8995   32.1845   14.7203 H         1 V14         0.0287
     51 H23        11.8917   33.3807   13.3802 H         1 V14         0.0287
@<TRIPOS>BOND
     1    1    2 1  
     2    2    3 ar 
     3    2   12 ar 
     4    3    4 1  
     5    3    8 ar 
     6    4    5 2  
     7    4    6 am 
     8    4    7 2  
     9    8    9 1  
    10    8   10 ar 
    11   10   11 1  
    12   10   13 ar 
    13   12   13 ar 
    14   12   20 1  
    15   13   14 1  
    16   14   15 2  
    17   14   16 2  
    18   14   17 1  
    19   17   18 1  
    20   18   19 1  
    21   20   21 1  
    22   21   22 1  
    23   21   28 1  
    24   22   23 1  
    25   23   24 1  
    26   24   25 1  
    27   25   26 1  
    28   26   27 1  
    29   27   28 1  
    30    6   29 1  
    31    6   30 1  
    32   17   31 1  
    33   17   32 1  
    34   18   33 1  
    35   18   34 1  
    36   19   35 1  
    37   20   36 1  
    38   21   37 1  
    39   22   38 1  
    40   22   39 1  
    41   23   40 1  
    42   23   41 1  
    43   24   42 1  
    44   24   43 1  
    45   25   44 1  
    46   25   45 1  
    47   26   46 1  
    48   26   47 1  
    49   27   48 1  
    50   27   49 1  
    51   28   50 1  
    52   28   51 1  
@<TRIPOS>SUBSTRUCTURE
     1 V14         1

