### 
### Created by X-TOOL on Mon Sep 10 21:13:27 2018
### 

@<TRIPOS>MOLECULE
5e2n_ligand
   51    52     1     0     0
SMALL
GAST_HUCK


@<TRIPOS>ATOM
      1 F20         9.1770   -7.4640  -25.6930 F         1 V14        -0.1949
      2 C5          9.1120   -7.2440  -24.3660 C.ar      1 V14         0.1707
      3 C4          8.0100   -7.5510  -23.6220 C.ar      1 V14         0.1616
      4 S7          6.7160   -8.3150  -24.4230 S.o2      1 V14         0.0636
      5 O9          5.6710   -7.4640  -24.1580 O.2       1 V14        -0.1519
      6 N10         6.8070   -8.3760  -26.2300 N.am      1 V14        -0.2621
      7 O8          6.1910   -9.4420  -23.7980 O.2       1 V14        -0.1519
      8 C3          7.8520   -7.3510  -22.2780 C.ar      1 V14         0.1773
      9 F12         6.6510   -7.7150  -21.7270 F         1 V14        -0.1943
     10 C2          8.9000   -6.8370  -21.5920 C.ar      1 V14         0.1761
     11 F13         8.7520   -6.6140  -20.2360 F         1 V14        -0.1890
     12 C6         10.1860   -6.6770  -23.6550 C.ar      1 V14         0.0935
     13 C1         10.0200   -6.4980  -22.2900 C.ar      1 V14         0.1354
     14 S11        11.3720   -5.8350  -21.3100 S.o2      1 V14        -0.0053
     15 O16        10.7530   -4.5590  -20.7540 O.2       1 V14        -0.1719
     16 O17        12.1690   -5.4370  -22.5690 O.2       1 V14        -0.1719
     17 C15        12.3120   -6.7360  -20.0880 C.3       1 V14         0.0913
     18 C18        11.4530   -7.7410  -19.3660 C.3       1 V14         0.0637
     19 O21        12.2250   -8.1850  -18.2930 O.3       1 V14        -0.3934
     20 N19        11.3270   -6.3360  -24.4420 N.pl3     1 V14        -0.3213
     21 C14        11.9150   -6.8970  -25.6700 C.3       1 V14         0.0338
     22 C28        11.5650   -6.2590  -27.0140 C.3       1 V14        -0.0309
     23 C27        11.6020   -4.7340  -27.0800 C.3       1 V14        -0.0510
     24 C26        12.9830   -4.0820  -26.8020 C.3       1 V14        -0.0530
     25 C25        13.4190   -3.9480  -25.2990 C.3       1 V14        -0.0531
     26 C24        13.3770   -5.1050  -24.3380 C.3       1 V14        -0.0530
     27 C23        14.3400   -6.1560  -24.8670 C.3       1 V14        -0.0510
     28 C22        13.4710   -7.2100  -25.5110 C.3       1 V14        -0.0309
     29 H1          6.0750   -8.8125  -26.7530 H         1 V14         0.1633
     30 H2          7.5893   -7.9732  -26.7051 H         1 V14         0.1633
     31 H3         12.7226   -6.0247  -19.3562 H         1 V14         0.0524
     32 H4         13.1368   -7.2642  -20.5887 H         1 V14         0.0524
     33 H5         11.2002   -8.5797  -20.0313 H         1 V14         0.0573
     34 H6         10.5280   -7.2678  -19.0048 H         1 V14         0.0573
     35 H7         11.7331   -8.8270  -17.7946 H         1 V14         0.2095
     36 H8         11.8486   -5.5278  -24.0736 H         1 V14         0.1735
     37 H9         11.4461   -7.8896  -25.7393 H         1 V14         0.0545
     38 H10        10.5469   -6.5794  -27.2799 H         1 V14         0.0287
     39 H11        12.2766   -6.6421  -27.7602 H         1 V14         0.0287
     40 H12        10.8894   -4.3461  -26.3372 H         1 V14         0.0266
     41 H13        11.2821   -4.4314  -28.0880 H         1 V14         0.0266
     42 H14        12.9653   -3.0704  -27.2337 H         1 V14         0.0265
     43 H15        13.7448   -4.6867  -27.3158 H         1 V14         0.0265
     44 H16        12.7788   -3.1664  -24.8639 H         1 V14         0.0265
     45 H17        14.4627   -3.6011  -25.3136 H         1 V14         0.0265
     46 H18        12.3584   -5.5172  -24.2870 H         1 V14         0.0265
     47 H19        13.6899   -4.7758  -23.3362 H         1 V14         0.0265
     48 H20        14.9253   -6.5907  -24.0434 H         1 V14         0.0266
     49 H21        15.0221   -5.7143  -25.6084 H         1 V14         0.0266
     50 H22        13.8727   -7.3957  -26.5180 H         1 V14         0.0287
     51 H23        13.5615   -8.1241  -24.9058 H         1 V14         0.0287
@<TRIPOS>BOND
     1    1    2 1  
     2    2    3 ar 
     3    2   12 ar 
     4    3    4 1  
     5    3    8 ar 
     6    4    5 2  
     7    4    6 am 
     8    4    7 2  
     9    8    9 1  
    10    8   10 ar 
    11   10   11 1  
    12   10   13 ar 
    13   12   13 ar 
    14   12   20 1  
    15   13   14 1  
    16   14   15 2  
    17   14   16 2  
    18   14   17 1  
    19   17   18 1  
    20   18   19 1  
    21   20   21 1  
    22   21   22 1  
    23   21   28 1  
    24   22   23 1  
    25   23   24 1  
    26   24   25 1  
    27   25   26 1  
    28   26   27 1  
    29   27   28 1  
    30    6   29 1  
    31    6   30 1  
    32   17   31 1  
    33   17   32 1  
    34   18   33 1  
    35   18   34 1  
    36   19   35 1  
    37   20   36 1  
    38   21   37 1  
    39   22   38 1  
    40   22   39 1  
    41   23   40 1  
    42   23   41 1  
    43   24   42 1  
    44   24   43 1  
    45   25   44 1  
    46   25   45 1  
    47   26   46 1  
    48   26   47 1  
    49   27   48 1  
    50   27   49 1  
    51   28   50 1  
    52   28   51 1  
@<TRIPOS>SUBSTRUCTURE
     1 V14         1

