### 
### Created by X-TOOL on Mon Sep 10 21:13:23 2018
### 

@<TRIPOS>MOLECULE
5e2o_ligand
   59    62     1     0     0
SMALL
GAST_HUCK


@<TRIPOS>ATOM
      1 N14        42.1080  -21.1080   29.8130 N.am      1 5JM        -0.2299
      2 C18        46.2810  -21.1150   30.4520 C.ar      1 5JM        -0.0055
      3 C17        45.7530  -20.5180   29.3110 C.ar      1 5JM        -0.0612
      4 C16        44.3890  -20.5170   29.0760 C.ar      1 5JM        -0.0373
      5 C15        43.5150  -21.0780   30.0030 C.ar      1 5JM         0.0697
      6 C19        45.4000  -21.6660   31.3820 C.ar      1 5JM        -0.0612
      7 C20        44.0320  -21.6460   31.1630 C.ar      1 5JM        -0.0373
      8 C21        38.0400  -17.6890   29.3210 C.3       1 5JM         0.0463
      9 C22        38.0280  -16.8770   28.2790 C.3       1 5JM        -0.0011
     10 C23        37.0770  -15.7860   27.9950 C.ar      1 5JM        -0.0007
     11 C24        37.4890  -14.7900   27.0940 C.ar      1 5JM         0.1293
     12 C11        41.9330  -24.9780   28.0390 C.ar      1 5JM        -0.0686
     13 C12        41.1740  -23.9130   27.5690 C.ar      1 5JM        -0.0601
     14 C27        35.2120  -14.3910   28.6360 C.ar      1 5JM         0.0273
     15 C1         39.1150  -18.6930   29.4900 C.2       1 5JM         0.1802
     16 N2         39.1310  -19.6990   28.5920 N.am      1 5JM        -0.2632
     17 O3         39.7460  -18.8040   30.5470 O.2       1 5JM        -0.3968
     18 C4         39.8820  -20.9100   28.8650 C.3       1 5JM         0.1464
     19 C5         41.3800  -20.6650   28.7600 C.2       1 5JM         0.2324
     20 C6         39.4880  -22.0730   27.9380 C.3       1 5JM         0.0219
     21 C7         40.1530  -23.3720   28.3410 C.ar      1 5JM        -0.0385
     22 C8         39.8840  -23.9530   29.5750 C.ar      1 5JM        -0.0601
     23 C9         40.6470  -25.0080   30.0480 C.ar      1 5JM        -0.0686
     24 C10        41.6730  -25.5200   29.2830 C.ar      1 5JM        -0.0687
     25 O13        41.8490  -20.1670   27.7410 O.2       1 5JM        -0.3815
     26 C25        36.7870  -13.5830   27.0240 C.ar      1 5JM        -0.0288
     27 C26        35.6430  -13.3840   27.7890 C.ar      1 5JM        -0.0579
     28 C28        35.9020  -15.5910   28.7420 C.ar      1 5JM        -0.0490
     29 CL2        33.7990  -14.1240   29.6260 Cl        1 5JM        -0.0782
     30 N30        38.5570  -15.0190   26.1760 N.pl3     1 5JM        -0.0984
     31 C31        38.6620  -14.9920   24.8330 C.2       1 5JM         0.1657
     32 N32        39.8720  -15.2980   24.4580 N.2       1 5JM        -0.2078
     33 N33        40.5540  -15.5380   25.6020 N.2       1 5JM        -0.1386
     34 N34        39.7900  -15.3710   26.6330 N.2       1 5JM        -0.0500
     35 C35        47.7590  -21.1220   30.6810 C.2       1 5JM         0.0528
     36 O36        48.5190  -20.4240   30.0070 O.co2     1 5JM        -0.5648
     37 O37        48.1570  -21.8030   31.7180 O.co2     1 5JM        -0.5648
     38 H1         41.5813  -21.5125   30.5606 H         1 5JM         0.2272
     39 H2         46.4190  -20.0475   28.5968 H         1 5JM         0.0611
     40 H3         43.9992  -20.0770   28.1652 H         1 5JM         0.0511
     41 H4         45.7904  -22.1157   32.2878 H         1 5JM         0.0611
     42 H5         43.3615  -22.0749   31.8989 H         1 5JM         0.0511
     43 H6         37.0921  -18.2465   29.2947 H         1 5JM         0.0524
     44 H7         38.0648  -17.0499   30.2159 H         1 5JM         0.0524
     45 H8         37.9581  -17.5430   27.4063 H         1 5JM         0.0440
     46 H9         39.0149  -16.3914   28.2916 H         1 5JM         0.0440
     47 H10        42.7309  -25.3845   27.4281 H         1 5JM         0.0599
     48 H11        41.3808  -23.4994   26.5886 H         1 5JM         0.0557
     49 H12        38.6235  -19.6100   27.7350 H         1 5JM         0.1884
     50 H13        39.6567  -21.2122   29.8984 H         1 5JM         0.0829
     51 H14        39.7889  -21.8246   26.9095 H         1 5JM         0.0474
     52 H15        38.3968  -22.2054   27.9790 H         1 5JM         0.0474
     53 H16        39.0650  -23.5748   30.1760 H         1 5JM         0.0557
     54 H17        40.4365  -25.4324   31.0230 H         1 5JM         0.0599
     55 H18        42.2723  -26.3430   29.6552 H         1 5JM         0.0559
     56 H19        37.1377  -12.7951   26.3673 H         1 5JM         0.0574
     57 H20        35.0948  -12.4511   27.7230 H         1 5JM         0.0551
     58 H21        35.5368  -16.3735   29.3973 H         1 5JM         0.0545
     59 H22        37.8468  -14.7478   24.1535 H         1 5JM         0.1420
@<TRIPOS>BOND
     1    1    5 1  
     2   19    1 am 
     3    3    2 ar 
     4    6    2 ar 
     5    2   35 1  
     6    4    3 ar 
     7    5    4 ar 
     8    5    7 ar 
     9    7    6 ar 
    10    8    9 1  
    11   15    8 1  
    12    9   10 1  
    13   10   11 ar 
    14   10   28 ar 
    15   11   26 ar 
    16   11   30 1  
    17   13   12 ar 
    18   12   24 ar 
    19   21   13 ar 
    20   14   27 ar 
    21   28   14 ar 
    22   14   29 1  
    23   16   15 am 
    24   15   17 2  
    25   18   16 1  
    26   18   19 1  
    27   20   18 1  
    28   19   25 2  
    29   20   21 1  
    30   21   22 ar 
    31   22   23 ar 
    32   23   24 ar 
    33   26   27 ar 
    34   30   31 1  
    35   30   34 1  
    36   31   32 2  
    37   32   33 1  
    38   33   34 2  
    39   35   36 ar 
    40   35   37 ar 
    41    1   38 1  
    42    3   39 1  
    43    4   40 1  
    44    6   41 1  
    45    7   42 1  
    46    8   43 1  
    47    8   44 1  
    48    9   45 1  
    49    9   46 1  
    50   12   47 1  
    51   13   48 1  
    52   16   49 1  
    53   18   50 1  
    54   20   51 1  
    55   20   52 1  
    56   22   53 1  
    57   23   54 1  
    58   24   55 1  
    59   26   56 1  
    60   27   57 1  
    61   28   58 1  
    62   31   59 1  
@<TRIPOS>SUBSTRUCTURE
     1 5JM         1

