### 
### Created by X-TOOL on Mon Sep 10 21:13:25 2018
### 

@<TRIPOS>MOLECULE
5e2p_ligand
   64    68     1     0     0
SMALL
GAST_HUCK


@<TRIPOS>ATOM
      1 C20        42.9850  -20.9830   29.3140 C.2       1 7P0         0.1983
      2 O22        43.2650  -20.7550   28.1400 O.2       1 7P0        -0.3908
      3 C21        44.0600  -21.3230   30.2960 C.ar      1 7P0         0.0410
      4 C23        43.7760  -22.0270   31.4690 C.ar      1 7P0        -0.0499
      5 C24        44.7790  -22.3370   32.3700 C.ar      1 7P0        -0.0265
      6 C27        46.1080  -21.9960   32.0960 C.ar      1 7P0         0.0961
      7 C26        46.4180  -21.3190   30.8970 C.ar      1 7P0         0.0562
      8 C25        45.3790  -20.9660   30.0190 C.ar      1 7P0        -0.0353
      9 C31        47.8270  -21.0910   30.6400 C.2       1 7P0         0.1056
     10 C30        48.7770  -21.4840   31.5270 C.2       1 7P0         0.0207
     11 C29        48.4630  -22.1270   32.7630 C.2       1 7P0         0.1871
     12 O32        49.2950  -22.4070   33.6340 O.2       1 7P0        -0.4174
     13 N28        47.1340  -22.3640   32.9750 N.am      1 7P0        -0.2311
     14 O40        48.1030  -20.5090   29.5000 O.3       1 7P0        -0.3234
     15 N19        41.7140  -20.9590   29.7740 N.am      1 7P0        -0.2650
     16 C17        40.5690  -20.7300   28.9100 C.3       1 7P0         0.1396
     17 C16        39.8590  -19.4740   29.3890 C.2       1 7P0         0.2038
     18 O39        39.9610  -19.1120   30.5600 O.2       1 7P0        -0.3943
     19 C18        39.5780  -21.9100   28.9250 C.3       1 7P0         0.0213
     20 C33        40.2400  -23.2660   28.9120 C.ar      1 7P0        -0.0386
     21 C34        40.1780  -24.0900   30.0270 C.ar      1 7P0        -0.0601
     22 C38        41.0390  -23.6540   27.8450 C.ar      1 7P0        -0.0601
     23 C35        40.9560  -25.2300   30.1120 C.ar      1 7P0        -0.0686
     24 C37        41.8090  -24.8040   27.9200 C.ar      1 7P0        -0.0686
     25 C36        41.7830  -25.5860   29.0630 C.ar      1 7P0        -0.0687
     26 C1         36.7230  -13.6350   27.2900 C.ar      1 7P0        -0.0288
     27 C2         35.6070  -13.4260   28.0880 C.ar      1 7P0        -0.0579
     28 C3         35.0990  -14.4750   28.8250 C.ar      1 7P0         0.0273
     29 C4         35.6650  -15.7320   28.7740 C.ar      1 7P0        -0.0491
     30 C5         36.7580  -15.9670   27.9450 C.ar      1 7P0        -0.0010
     31 C6         37.2950  -14.9030   27.2080 C.ar      1 7P0         0.1292
     32 CL7        33.7020  -14.2100   29.8480 Cl        1 7P0        -0.0782
     33 N8         38.4030  -15.1090   26.3310 N.pl3     1 7P0        -0.0984
     34 C9         38.4960  -15.1640   24.9930 C.2       1 7P0         0.1657
     35 N10        39.7290  -15.4170   24.6510 N.2       1 7P0        -0.2078
     36 N11        40.4210  -15.5170   25.8140 N.2       1 7P0        -0.1386
     37 N12        39.6420  -15.3330   26.8330 N.2       1 7P0        -0.0500
     38 C13        37.2650  -17.3800   27.8190 C.3       1 7P0         0.0023
     39 C14        38.3680  -17.6320   28.8050 C.3       1 7P0         0.0398
     40 N15        39.1050  -18.8460   28.4920 N.am      1 7P0        -0.2831
     41 H1         42.7571  -22.3341   31.6756 H         1 7P0         0.0662
     42 H2         44.5336  -22.8474   33.2943 H         1 7P0         0.0540
     43 H3         45.6056  -20.4100   29.1164 H         1 7P0         0.0683
     44 H4         49.8230  -21.3011   31.2856 H         1 7P0         0.0349
     45 H5         46.8755  -22.8342   33.8188 H         1 7P0         0.2372
     46 H6         48.5713  -19.6990   29.6645 H         1 7P0         0.2555
     47 H7         41.5554  -21.1051   30.7505 H         1 7P0         0.1874
     48 H8         40.9242  -20.5814   27.8796 H         1 7P0         0.0823
     49 H9         38.9327  -21.8314   28.0377 H         1 7P0         0.0474
     50 H10        38.9628  -21.8339   29.8337 H         1 7P0         0.0474
     51 H11        39.5104  -23.8364   30.8426 H         1 7P0         0.0557
     52 H12        41.0609  -23.0515   26.9441 H         1 7P0         0.0557
     53 H13        40.9173  -25.8459   31.0032 H         1 7P0         0.0599
     54 H14        42.4332  -25.0922   27.0819 H         1 7P0         0.0599
     55 H15        42.4062  -26.4701   29.1344 H         1 7P0         0.0559
     56 H16        37.1502  -12.8110   26.7299 H         1 7P0         0.0574
     57 H17        35.1397  -12.4488   28.1315 H         1 7P0         0.0551
     58 H18        35.2593  -16.5352   29.3784 H         1 7P0         0.0545
     59 H19        37.6689  -15.0195   24.2995 H         1 7P0         0.1420
     60 H20        37.6474  -17.5380   26.7998 H         1 7P0         0.0435
     61 H21        36.4389  -18.0798   28.0133 H         1 7P0         0.0435
     62 H22        37.9318  -17.7294   29.8101 H         1 7P0         0.0541
     63 H23        39.0627  -16.7793   28.7878 H         1 7P0         0.0541
     64 H24        39.0423  -19.2224   27.5677 H         1 7P0         0.1853
@<TRIPOS>BOND
     1    1    2 2  
     2    1    3 1  
     3   15    1 am 
     4    3    4 ar 
     5    3    8 ar 
     6    4    5 ar 
     7    5    6 ar 
     8    7    6 ar 
     9    6   13 1  
    10    8    7 ar 
    11    7    9 1  
    12    9   10 2  
    13    9   14 1  
    14   10   11 1  
    15   11   12 2  
    16   13   11 am 
    17   16   15 1  
    18   17   16 1  
    19   16   19 1  
    20   17   18 2  
    21   40   17 am 
    22   19   20 1  
    23   20   21 ar 
    24   20   22 ar 
    25   21   23 ar 
    26   22   24 ar 
    27   23   25 ar 
    28   24   25 ar 
    29   26   27 ar 
    30   31   26 ar 
    31   28   27 ar 
    32   29   28 ar 
    33   28   32 1  
    34   30   29 ar 
    35   30   31 ar 
    36   38   30 1  
    37   31   33 1  
    38   33   34 1  
    39   33   37 1  
    40   34   35 2  
    41   36   35 1  
    42   37   36 2  
    43   39   38 1  
    44   39   40 1  
    45    4   41 1  
    46    5   42 1  
    47    8   43 1  
    48   10   44 1  
    49   13   45 1  
    50   14   46 1  
    51   15   47 1  
    52   16   48 1  
    53   19   49 1  
    54   19   50 1  
    55   21   51 1  
    56   22   52 1  
    57   23   53 1  
    58   24   54 1  
    59   25   55 1  
    60   26   56 1  
    61   27   57 1  
    62   29   58 1  
    63   34   59 1  
    64   38   60 1  
    65   38   61 1  
    66   39   62 1  
    67   39   63 1  
    68   40   64 1  
@<TRIPOS>SUBSTRUCTURE
     1 7P0         1

