### 
### Created by X-TOOL on Mon Sep 10 21:13:27 2018
### 

@<TRIPOS>MOLECULE
5e2s_ligand
   36    37     1     0     0
SMALL
GAST_HUCK


@<TRIPOS>ATOM
      1 S1         -5.9150    0.8950   16.8260 S.o2      1 5CX         0.0654
      2 N1         -5.1920   -0.4390   16.1700 N.am      1 5CX        -0.2611
      3 O2         -7.3270    0.8820   16.7700 O.2       1 5CX        -0.1506
      4 O3         -5.3560    1.0330   18.0380 O.2       1 5CX        -0.1506
      5 C4         -5.5600    2.2520   15.7680 C.ar      1 5CX         0.1069
      6 C5         -4.4710    2.2530   14.9380 C.ar      1 5CX        -0.0357
      7 C6         -4.2380    3.3410   14.1040 C.ar      1 5CX        -0.0540
      8 C7         -5.0890    4.4460   14.1570 C.ar      1 5CX        -0.0214
      9 C8         -6.1780    4.4090   14.9850 C.ar      1 5CX        -0.0540
     10 C9         -6.4030    3.3380   15.8140 C.ar      1 5CX        -0.0357
     11 C10        -4.9160    5.5880   13.2250 C.ar      1 5CX        -0.0150
     12 C11        -6.0180    5.8880   12.4140 C.ar      1 5CX        -0.0601
     13 C12        -6.0120    6.8990   11.4840 C.ar      1 5CX        -0.0678
     14 C13        -4.8270    7.6050   11.3310 C.ar      1 5CX        -0.0682
     15 C14        -3.7180    7.3120   12.1270 C.ar      1 5CX        -0.0587
     16 C15        -3.7630    6.2970   13.0730 C.ar      1 5CX        -0.0312
     17 C16        -2.5890    5.9950   13.9210 C.3       1 5CX        -0.0116
     18 C17        -1.5430    5.4440   12.9750 C.3       1 5CX        -0.0525
     19 C18        -2.0400    7.2900   14.5120 C.3       1 5CX        -0.0525
     20 H1         -5.4485   -0.7471   15.2539 H         1 5CX         0.1635
     21 H2         -4.4981   -0.9379   16.6893 H         1 5CX         0.1635
     22 H3         -3.7923    1.4078   14.9311 H         1 5CX         0.0634
     23 H4         -3.4000    3.3310   13.4164 H         1 5CX         0.0614
     24 H5         -6.8748    5.2394   14.9863 H         1 5CX         0.0614
     25 H6         -7.2410    3.3482   16.5015 H         1 5CX         0.0634
     26 H7         -6.9181    5.2943   12.5255 H         1 5CX         0.0605
     27 H8         -6.8922    7.1345   10.8967 H         1 5CX         0.0561
     28 H9         -4.7619    8.3907   10.5870 H         1 5CX         0.0602
     29 H10        -2.8070    7.8865   12.0043 H         1 5CX         0.0557
     30 H11        -2.8412    5.2764   14.7147 H         1 5CX         0.0462
     31 H12        -0.6327    5.1945   13.5400 H         1 5CX         0.0255
     32 H13        -1.3051    6.1991   12.2113 H         1 5CX         0.0255
     33 H14        -1.9312    4.5381   12.4865 H         1 5CX         0.0255
     34 H15        -2.7780    7.7179   15.2064 H         1 5CX         0.0255
     35 H16        -1.8400    8.0069   13.7020 H         1 5CX         0.0255
     36 H17        -1.1063    7.0789   15.0538 H         1 5CX         0.0255
@<TRIPOS>BOND
     1    1    2 am 
     2    1    3 2  
     3    1    4 2  
     4    1    5 1  
     5    5    6 ar 
     6    5   10 ar 
     7    6    7 ar 
     8    7    8 ar 
     9    8    9 ar 
    10    8   11 1  
    11    9   10 ar 
    12   11   12 ar 
    13   11   16 ar 
    14   12   13 ar 
    15   13   14 ar 
    16   14   15 ar 
    17   15   16 ar 
    18   16   17 1  
    19   17   18 1  
    20   17   19 1  
    21    2   20 1  
    22    2   21 1  
    23    6   22 1  
    24    7   23 1  
    25    9   24 1  
    26   10   25 1  
    27   12   26 1  
    28   13   27 1  
    29   14   28 1  
    30   15   29 1  
    31   17   30 1  
    32   18   31 1  
    33   18   32 1  
    34   18   33 1  
    35   19   34 1  
    36   19   35 1  
    37   19   36 1  
@<TRIPOS>SUBSTRUCTURE
     1 5CX         1

