### 
### Created by X-TOOL on Mon Sep 10 21:13:29 2018
### 

@<TRIPOS>MOLECULE
5e3a_ligand
   77    78     1     0     0
SMALL
GAST_HUCK


@<TRIPOS>ATOM
      1 N         140.8350  -18.0170   89.2820 N.4       1 TYR         0.2392
      2 CA        140.5290  -19.2720   88.6050 C.3       1 TYR         0.0730
      3 C         139.0980  -19.2800   88.0860 C.2       1 TYR         0.2284
      4 O         138.1500  -19.1120   88.8520 O.2       1 TYR        -0.3905
      5 CB        140.7550  -20.4560   89.5460 C.3       1 TYR         0.0365
      6 CG        142.1990  -20.6480   89.9410 C.ar      1 TYR        -0.0460
      7 CD1       143.2200  -20.4620   89.0190 C.ar      1 TYR        -0.0684
      8 CD2       142.5440  -21.0040   91.2380 C.ar      1 TYR        -0.0684
      9 CE1       144.5440  -20.6340   89.3750 C.ar      1 TYR        -0.0398
     10 CE2       143.8640  -21.1780   91.6030 C.ar      1 TYR        -0.0398
     11 CZ        144.8600  -20.9910   90.6680 C.ar      1 TYR         0.0805
     12 OH        146.1770  -21.1620   91.0280 O.3       1 TYR        -0.3376
     13 N         138.9500  -19.4700   86.7800 N.am      1 GLY        -0.2636
     14 CA        137.6380  -19.5170   86.1620 C.3       1 GLY         0.1202
     15 C         137.2330  -20.9310   85.7970 C.2       1 GLY         0.2005
     16 O         138.0810  -21.7810   85.5230 O.2       1 GLY        -0.3947
     17 N         135.9290  -21.1840   85.7970 N.am      1 GLY        -0.2666
     18 CA        135.4070  -22.4920   85.4520 C.3       1 GLY         0.1201
     19 C         134.4370  -22.4300   84.2890 C.2       1 GLY         0.2009
     20 O         133.3210  -21.9280   84.4220 O.2       1 GLY        -0.3947
     21 N         134.8700  -22.9380   83.1410 N.am      1 PHE        -0.2622
     22 CA        134.0250  -22.9720   81.9570 C.3       1 PHE         0.1404
     23 C         133.4300  -24.3650   81.7870 C.2       1 PHE         0.2054
     24 O         133.9360  -25.3310   82.3610 O.2       1 PHE        -0.3942
     25 CB        134.8200  -22.5600   80.7170 C.3       1 PHE         0.0214
     26 CG        135.3930  -21.1720   80.8010 C.ar      1 PHE        -0.0386
     27 CD1       134.6620  -20.0790   80.3650 C.ar      1 PHE        -0.0601
     28 CD2       136.6570  -20.9600   81.3260 C.ar      1 PHE        -0.0601
     29 CE1       135.1840  -18.8000   80.4460 C.ar      1 PHE        -0.0686
     30 CE2       137.1850  -19.6850   81.4100 C.ar      1 PHE        -0.0686
     31 CZ        136.4470  -18.6030   80.9690 C.ar      1 PHE        -0.0687
     32 N         132.3580  -24.4510   80.9990 N.am      1 LEU        -0.2693
     33 CA        131.5770  -25.6770   80.8280 C.3       1 LEU         0.0946
     34 C         130.9700  -26.1170   82.1600 C.2       1 LEU         0.0601
     35 O         129.7770  -25.9330   82.3970 O.co2     1 LEU        -0.5666
     36 CB        132.4350  -26.7970   80.2200 C.3       1 LEU        -0.0156
     37 CG        131.7650  -28.1030   79.7780 C.3       1 LEU        -0.0431
     38 CD1       132.5220  -28.7010   78.6020 C.3       1 LEU        -0.0625
     39 CD2       131.6800  -29.1170   80.9150 C.3       1 LEU        -0.0625
     40 OXT       131.6470  -26.6600   83.0330 O.co2     1 LEU        -0.5666
     41 H1        141.7862  -18.0381   89.6150 H         1 TYR         0.2017
     42 H2        140.2085  -17.8946   90.0621 H         1 TYR         0.2017
     43 H3        140.7219  -17.2509   88.6368 H         1 TYR         0.2017
     44 H4        141.2088  -19.3752   87.7464 H         1 TYR         0.1120
     45 H5        140.4076  -21.3707   89.0434 H         1 TYR         0.0486
     46 H6        140.1638  -20.2922   90.4590 H         1 TYR         0.0486
     47 H7        142.9744  -20.1770   88.0024 H         1 TYR         0.0530
     48 H8        141.7636  -21.1477   91.9765 H         1 TYR         0.0530
     49 H9        145.3292  -20.4890   88.6418 H         1 TYR         0.0525
     50 H10       144.1160  -21.4600   92.6189 H         1 TYR         0.0525
     51 H11       146.7336  -20.9974   90.2759 H         1 TYR         0.2458
     52 H12       139.7627  -19.5835   86.2085 H         1 GLY         0.1882
     53 H13       137.6537  -18.9050   85.2481 H         1 GLY         0.0763
     54 H14       136.8990  -19.1064   86.8657 H         1 GLY         0.0763
     55 H15       135.2910  -20.4537   86.0412 H         1 GLY         0.1881
     56 H16       134.8858  -22.9080   86.3268 H         1 GLY         0.0763
     57 H17       136.2465  -23.1483   85.1790 H         1 GLY         0.0763
     58 H18       135.7985  -23.3058   83.0890 H         1 PHE         0.1885
     59 H19       133.2016  -22.2555   82.0937 H         1 PHE         0.0823
     60 H20       134.1521  -22.6079   79.8443 H         1 PHE         0.0474
     61 H21       135.6490  -23.2706   80.5838 H         1 PHE         0.0474
     62 H22       133.6693  -20.2274   79.9555 H         1 PHE         0.0557
     63 H23       137.2398  -21.8046   81.6755 H         1 PHE         0.0557
     64 H24       134.6022  -17.9536   80.0993 H         1 PHE         0.0599
     65 H25       138.1766  -19.5342   81.8212 H         1 PHE         0.0599
     66 H26       136.8584  -17.6022   81.0334 H         1 PHE         0.0559
     67 H27       132.0722  -23.6341   80.4980 H         1 LEU         0.1875
     68 H28       130.7534  -25.4629   80.1310 H         1 LEU         0.0726
     69 H29       133.1926  -27.0640   80.9715 H         1 LEU         0.0308
     70 H30       132.9308  -26.3753   79.3333 H         1 LEU         0.0308
     71 H31       130.7409  -27.8689   79.4518 H         1 LEU         0.0297
     72 H32       132.0356  -29.6372   78.2907 H         1 LEU         0.0232
     73 H33       133.5598  -28.9090   78.9015 H         1 LEU         0.0232
     74 H34       132.5180  -27.9893   77.7633 H         1 LEU         0.0232
     75 H35       131.1313  -28.6753   81.7599 H         1 LEU         0.0232
     76 H36       132.6950  -29.3899   81.2396 H         1 LEU         0.0232
     77 H37       131.1524  -30.0167   80.5653 H         1 LEU         0.0232
@<TRIPOS>BOND
     1    1    2 1  
     2    2    3 1  
     3    2    5 1  
     4    3    4 2  
     5    3   13 am 
     6    5    6 1  
     7    6    7 ar 
     8    6    8 ar 
     9    7    9 ar 
    10    8   10 ar 
    11    9   11 ar 
    12   10   11 ar 
    13   11   12 1  
    14   13   14 1  
    15   14   15 1  
    16   15   16 2  
    17   15   17 am 
    18   17   18 1  
    19   18   19 1  
    20   19   20 2  
    21   19   21 am 
    22   21   22 1  
    23   22   23 1  
    24   22   25 1  
    25   23   24 2  
    26   23   32 am 
    27   25   26 1  
    28   26   27 ar 
    29   26   28 ar 
    30   27   29 ar 
    31   28   30 ar 
    32   29   31 ar 
    33   30   31 ar 
    34   32   33 1  
    35   33   34 1  
    36   33   36 1  
    37   34   35 ar 
    38   34   40 ar 
    39   36   37 1  
    40   37   38 1  
    41   37   39 1  
    42    1   41 1  
    43    1   42 1  
    44    1   43 1  
    45    2   44 1  
    46    5   45 1  
    47    5   46 1  
    48    7   47 1  
    49    8   48 1  
    50    9   49 1  
    51   10   50 1  
    52   12   51 1  
    53   13   52 1  
    54   14   53 1  
    55   14   54 1  
    56   17   55 1  
    57   18   56 1  
    58   18   57 1  
    59   21   58 1  
    60   22   59 1  
    61   25   60 1  
    62   25   61 1  
    63   27   62 1  
    64   28   63 1  
    65   29   64 1  
    66   30   65 1  
    67   31   66 1  
    68   32   67 1  
    69   33   68 1  
    70   36   69 1  
    71   36   70 1  
    72   37   71 1  
    73   38   72 1  
    74   38   73 1  
    75   38   74 1  
    76   39   75 1  
    77   39   76 1  
    78   39   77 1  
@<TRIPOS>SUBSTRUCTURE
     1 TYR         1

