### 
### Created by X-TOOL on Mon Sep 10 21:13:28 2018
### 

@<TRIPOS>MOLECULE
5e3d_ligand
   16    17     1     0     0
SMALL
GAST_HUCK


@<TRIPOS>ATOM
      1 C4          7.2230  -10.3220    4.6210 C.2       1 5JL         0.2018
      2 C5          7.1730  -10.7320    3.3410 C.2       1 5JL         0.1022
      3 C6          7.8600  -11.8210    2.9390 C.2       1 5JL         0.2037
      4 C8          5.9530   -8.9670    3.5740 C.2       1 5JL         0.1659
      5 N1          8.6390  -12.5490    3.8420 N.am      1 5JL        -0.2000
      6 N3          7.9840  -11.0130    5.5680 N.am      1 5JL        -0.1997
      7 O6          7.8320  -12.2280    1.7760 O.2       1 5JL        -0.4064
      8 N7          6.3710   -9.8760    2.6880 N.2       1 5JL        -0.3299
      9 S8          4.8670   -7.5920    3.2540 S.3       1 5JL        -0.0718
     10 N9          6.4710   -9.2310    4.7650 N.pl3     1 5JL        -0.2179
     11 C2          8.7030  -12.1410    5.1760 C.2       1 5JL         0.1932
     12 S2          9.6560  -13.0130    6.3320 S.2       1 5JL        -0.2911
     13 H1          9.1460  -13.3547    3.5358 H         1 5JL         0.2366
     14 H2          8.0124  -10.7012    6.5177 H         1 5JL         0.2455
     15 H3          4.7233   -7.0734    4.1063 H         1 5JL         0.1284
     16 H4          6.3215   -8.6970    5.6330 H         1 5JL         0.2394
@<TRIPOS>BOND
     1    1    2 2  
     2    1    6 1  
     3    1   10 1  
     4    2    3 1  
     5    2    8 1  
     6    3    5 am 
     7    3    7 2  
     8    8    4 2  
     9    4    9 1  
    10    4   10 1  
    11    5   11 am 
    12    6   11 am 
    13   11   12 2  
    14    5   13 1  
    15    6   14 1  
    16    9   15 1  
    17   10   16 1  
@<TRIPOS>SUBSTRUCTURE
     1 5JL         1

