### 
### Created by X-TOOL on Mon Sep 10 21:13:28 2018
### 

@<TRIPOS>MOLECULE
5e3g_ligand
   16    17     1     0     0
SMALL
GAST_HUCK


@<TRIPOS>ATOM
      1 C2         12.5380    0.9780   -5.9920 C.2       1 5JQ         0.2051
      2 C3         10.7990    0.5340   -7.1350 C.2       1 5JQ         0.2956
      3 C4         14.8300    1.3440   -5.3790 C.2       1 5JQ         0.1885
      4 C5         14.2340    0.7460   -7.5450 C.2       1 5JQ         0.2091
      5 O2         14.5720    0.4600   -8.8230 O.2       1 5JQ        -0.4169
      6 N4         15.1770    1.0610   -6.6420 N.am      1 5JQ        -0.2028
      7 S1         16.0240    1.7510   -4.1880 S.2       1 5JQ        -0.2964
      8 N3         13.4830    1.3070   -5.0210 N.am      1 5JQ        -0.2074
      9 C1         12.9310    0.7020   -7.2400 C.2       1 5JQ         0.1546
     10 N2         11.8410    0.4220   -7.9600 N.am      1 5JQ        -0.2461
     11 O1          9.6180    0.3530   -7.4350 O.2       1 5JQ        -0.4079
     12 N1         11.2120    0.8740   -5.9230 N.am      1 5JQ        -0.1957
     13 H1         16.1394    1.0844   -6.9126 H         1 5JQ         0.2357
     14 H2         13.1996    1.5128   -4.0843 H         1 5JQ         0.2420
     15 H3         11.8120    0.1763   -8.9289 H         1 5JQ         0.2087
     16 H4         10.6409    1.0231   -5.1158 H         1 5JQ         0.2340
@<TRIPOS>BOND
     1    8    1 am 
     2    1    9 2  
     3    1   12 1  
     4    2   10 am 
     5    2   11 2  
     6   12    2 1  
     7    6    3 am 
     8    3    7 2  
     9    3    8 am 
    10    4    5 2  
    11    4    6 am 
    12    4    9 1  
    13    9   10 am 
    14    6   13 1  
    15    8   14 1  
    16   10   15 1  
    17   12   16 1  
@<TRIPOS>SUBSTRUCTURE
     1 5JQ         1

