### 
### Created by X-TOOL on Mon Sep 10 21:13:26 2018
### 

@<TRIPOS>MOLECULE
5e5g_ligand
   27    28     1     0     0
SMALL
GAST_HUCK


@<TRIPOS>ATOM
      1 N          92.6110  -39.6180  -19.5630 N.4       1 DTR         0.2336
      2 CA         93.8710  -39.6860  -18.7660 C.3       1 DTR         0.0324
      3 CB         95.0510  -39.6720  -19.7230 C.3       1 DTR         0.0190
      4 CG         96.2440  -39.0440  -19.0490 C.2       1 DTR        -0.0392
      5 CD1        96.3740  -37.7470  -18.5630 C.2       1 DTR         0.0167
      6 NE1        97.6130  -37.5490  -18.0890 N.pl3     1 DTR        -0.2890
      7 CE2        98.3660  -38.6810  -18.2900 C.ar      1 DTR         0.0603
      8 CZ2        99.7190  -38.9500  -17.9790 C.ar      1 DTR        -0.0443
      9 CH2       100.2040  -40.2120  -18.3150 C.ar      1 DTR        -0.0768
     10 CZ3        99.3990  -41.1720  -18.9320 C.ar      1 DTR        -0.0792
     11 CE3        98.0830  -40.9000  -19.2000 C.ar      1 DTR        -0.0747
     12 CD2        97.5520  -39.6590  -18.8810 C.ar      1 DTR        -0.0213
     13 C          93.9140  -40.9330  -17.9280 C.2       1 DTR         0.0858
     14 O          93.0460  -41.8600  -18.0900 O.co2     1 DTR        -0.5642
     15 OXT        94.7400  -40.9220  -17.0140 O.co2     1 DTR        -0.5642
     16 H1         92.6075  -38.7744  -20.1146 H         1 DTR         0.2011
     17 H2         91.8189  -39.6151  -18.9397 H         1 DTR         0.2011
     18 H3         92.5556  -40.4185  -20.1730 H         1 DTR         0.2011
     19 H4         93.9266  -38.8093  -18.1040 H         1 DTR         0.1040
     20 H5         94.7886  -39.0898  -20.6186 H         1 DTR         0.0423
     21 H6         95.2971  -40.7035  -20.0152 H         1 DTR         0.0423
     22 H7         95.5825  -36.9990  -18.5669 H         1 DTR         0.0795
     23 H8         97.9481  -36.6829  -17.6435 H         1 DTR         0.2216
     24 H9        100.3494  -38.2087  -17.5014 H         1 DTR         0.0541
     25 H10       101.2362  -40.4559  -18.0910 H         1 DTR         0.0530
     26 H11        99.8167  -42.1358  -19.1999 H         1 DTR         0.0510
     27 H12        97.4567  -41.6549  -19.6615 H         1 DTR         0.0540
@<TRIPOS>BOND
     1    1    2 1  
     2    2    3 1  
     3    2   13 1  
     4    3    4 1  
     5    4    5 2  
     6    4   12 1  
     7    5    6 1  
     8    6    7 1  
     9    7    8 ar 
    10    7   12 ar 
    11    8    9 ar 
    12    9   10 ar 
    13   10   11 ar 
    14   11   12 ar 
    15   13   14 ar 
    16   13   15 ar 
    17    1   16 1  
    18    1   17 1  
    19    1   18 1  
    20    2   19 1  
    21    3   20 1  
    22    3   21 1  
    23    5   22 1  
    24    6   23 1  
    25    8   24 1  
    26    9   25 1  
    27   10   26 1  
    28   11   27 1  
@<TRIPOS>SUBSTRUCTURE
     1 DTR         1

