### 
### Created by X-TOOL on Mon Sep 10 21:13:27 2018
### 

@<TRIPOS>MOLECULE
5e6o_ligand
   76    77     1     0     0
SMALL
GAST_HUCK


@<TRIPOS>ATOM
      1 N           2.3090  -13.7830  -21.4010 N.4       1 TRP         0.2388
      2 CA          2.2480  -12.6580  -22.3290 C.3       1 TRP         0.0691
      3 C           3.1770  -12.8300  -23.5200 C.2       1 TRP         0.2280
      4 O           4.3240  -13.2490  -23.3700 O.2       1 TRP        -0.3906
      5 CB          2.6010  -11.3570  -21.6120 C.3       1 TRP         0.0245
      6 CG          1.6640  -11.0000  -20.5200 C.2       1 TRP        -0.0386
      7 CD1         1.7500  -11.3770  -19.2160 C.2       1 TRP         0.0168
      8 CD2         0.5030  -10.1740  -20.6270 C.ar      1 TRP        -0.0213
      9 NE1         0.7050  -10.8480  -18.5030 N.pl3     1 TRP        -0.2890
     10 CE2        -0.0760  -10.0990  -19.3460 C.ar      1 TRP         0.0603
     11 CE3        -0.1120   -9.4920  -21.6830 C.ar      1 TRP        -0.0747
     12 CZ2        -1.2320   -9.3670  -19.0890 C.ar      1 TRP        -0.0443
     13 CZ3        -1.2610   -8.7630  -21.4260 C.ar      1 TRP        -0.0792
     14 CH2        -1.8080   -8.7080  -20.1430 C.ar      1 TRP        -0.0768
     15 N           2.6780  -12.4940  -24.7020 N.am      1 GLU        -0.2608
     16 CA          3.5150  -12.4170  -25.8840 C.3       1 GLU         0.1326
     17 C           3.9570  -10.9690  -26.0880 C.2       1 GLU         0.2040
     18 O           3.1590  -10.1050  -26.4500 O.2       1 GLU        -0.3944
     19 CB          2.7780  -12.9500  -27.1140 C.3       1 GLU        -0.0008
     20 CG          3.6850  -13.2200  -28.2970 C.3       1 GLU         0.0044
     21 CD          4.7290  -14.2890  -28.0110 C.2       1 GLU         0.0350
     22 OE1         4.4540  -15.1890  -27.1880 O.co2     1 GLU        -0.5690
     23 OE2         5.8280  -14.2250  -28.6060 O.co2     1 GLU        -0.5690
     24 N           5.2370  -10.7070  -25.8420 N.am      1 GLU        -0.2636
     25 CA          5.7350   -9.3400  -25.8300 C.3       1 GLU         0.1324
     26 C           6.3720   -8.9400  -27.1530 C.2       1 GLU         0.2034
     27 O           7.4670   -9.3930  -27.4920 O.2       1 GLU        -0.3944
     28 CB          6.7340   -9.1590  -24.6890 C.3       1 GLU        -0.0008
     29 CG          6.2260   -9.6860  -23.3550 C.3       1 GLU         0.0044
     30 CD          6.9570   -9.0770  -22.1800 C.2       1 GLU         0.0350
     31 OE1         7.6300   -8.0420  -22.3760 O.co2     1 GLU        -0.5690
     32 OE2         6.8680   -9.6360  -21.0680 O.co2     1 GLU        -0.5690
     33 N           5.6770   -8.0870  -27.8980 N.am      1 LEU        -0.2695
     34 CA          6.2060   -7.5690  -29.1550 C.3       1 LEU         0.0946
     35 C           7.2880   -6.5230  -28.8930 C.2       1 LEU         0.0601
     36 O           8.2090   -6.3580  -29.6940 O.co2     1 LEU        -0.5666
     37 CB          5.0800   -6.9720  -30.0040 C.3       1 LEU        -0.0156
     38 CG          3.9420   -7.9380  -30.3310 C.3       1 LEU        -0.0431
     39 CD1         2.9090   -7.2810  -31.2480 C.3       1 LEU        -0.0625
     40 CD2         4.4820   -9.2020  -30.9590 C.3       1 LEU        -0.0625
     41 OXT         7.2590   -5.8270  -27.8780 O.co2     1 LEU        -0.5666
     42 H1          1.6771  -13.6195  -20.6329 H         1 TRP         0.2016
     43 H2          3.2487  -13.8774  -21.0487 H         1 TRP         0.2016
     44 H3          2.0433  -14.6289  -21.8805 H         1 TRP         0.2016
     45 H4          1.2168  -12.5846  -22.7048 H         1 TRP         0.1114
     46 H5          2.5981  -10.5423  -22.3511 H         1 TRP         0.0430
     47 H6          3.6089  -11.4599  -21.1837 H         1 TRP         0.0430
     48 H7          2.5343  -12.0070  -18.7990 H         1 TRP         0.0795
     49 H8          0.5341  -10.9901  -17.4972 H         1 TRP         0.2216
     50 H9          0.3033   -9.5336  -22.6834 H         1 TRP         0.0540
     51 H10        -1.6596   -9.3203  -18.0940 H         1 TRP         0.0541
     52 H11        -1.7436   -8.2261  -22.2346 H         1 TRP         0.0510
     53 H12        -2.7099   -8.1302  -19.9766 H         1 TRP         0.0530
     54 H13         1.7023  -12.2891  -24.7800 H         1 GLU         0.1885
     55 H14         4.4089  -13.0375  -25.7231 H         1 GLU         0.0801
     56 H15         2.0245  -12.2078  -27.4163 H         1 GLU         0.0330
     57 H16         2.2771  -13.8898  -26.8387 H         1 GLU         0.0330
     58 H17         4.2024  -12.2864  -28.5628 H         1 GLU         0.0433
     59 H18         3.0670  -13.5509  -29.1447 H         1 GLU         0.0433
     60 H19         5.8678  -11.4618  -25.6623 H         1 GLU         0.1883
     61 H20         4.8804   -8.6708  -25.6514 H         1 GLU         0.0801
     62 H21         6.9500   -8.0859  -24.5810 H         1 GLU         0.0330
     63 H22         7.6593   -9.6952  -24.9467 H         1 GLU         0.0330
     64 H23         6.3641  -10.7770  -23.3302 H         1 GLU         0.0433
     65 H24         5.1554   -9.4497  -23.2661 H         1 GLU         0.0433
     66 H25         4.7718   -7.7938  -27.5904 H         1 LEU         0.1875
     67 H26         6.6570   -8.4034  -29.7122 H         1 LEU         0.0726
     68 H27         5.5149   -6.6224  -30.9520 H         1 LEU         0.0308
     69 H28         4.6562   -6.1167  -29.4575 H         1 LEU         0.0308
     70 H29         3.4413   -8.2083  -29.3896 H         1 LEU         0.0297
     71 H30         2.1037   -7.9979  -31.4660 H         1 LEU         0.0232
     72 H31         3.3935   -6.9770  -32.1876 H         1 LEU         0.0232
     73 H32         2.4869   -6.3957  -30.7499 H         1 LEU         0.0232
     74 H33         5.2220   -9.6588  -30.2854 H         1 LEU         0.0232
     75 H34         4.9609   -8.9589  -31.9190 H         1 LEU         0.0232
     76 H35         3.6563   -9.9084  -31.1296 H         1 LEU         0.0232
@<TRIPOS>BOND
     1    1    2 1  
     2    2    3 1  
     3    2    5 1  
     4    3    4 2  
     5    3   15 am 
     6    5    6 1  
     7    6    7 2  
     8    6    8 1  
     9    7    9 1  
    10    8   10 ar 
    11    8   11 ar 
    12    9   10 1  
    13   10   12 ar 
    14   11   13 ar 
    15   12   14 ar 
    16   13   14 ar 
    17   15   16 1  
    18   16   17 1  
    19   16   19 1  
    20   17   18 2  
    21   17   24 am 
    22   19   20 1  
    23   20   21 1  
    24   21   22 ar 
    25   21   23 ar 
    26   24   25 1  
    27   25   26 1  
    28   25   28 1  
    29   26   27 2  
    30   26   33 am 
    31   28   29 1  
    32   29   30 1  
    33   30   31 ar 
    34   30   32 ar 
    35   33   34 1  
    36   34   35 1  
    37   34   37 1  
    38   35   36 ar 
    39   35   41 ar 
    40   37   38 1  
    41   38   39 1  
    42   38   40 1  
    43    1   42 1  
    44    1   43 1  
    45    1   44 1  
    46    2   45 1  
    47    5   46 1  
    48    5   47 1  
    49    7   48 1  
    50    9   49 1  
    51   11   50 1  
    52   12   51 1  
    53   13   52 1  
    54   14   53 1  
    55   15   54 1  
    56   16   55 1  
    57   19   56 1  
    58   19   57 1  
    59   20   58 1  
    60   20   59 1  
    61   24   60 1  
    62   25   61 1  
    63   28   62 1  
    64   28   63 1  
    65   29   64 1  
    66   29   65 1  
    67   33   66 1  
    68   34   67 1  
    69   37   68 1  
    70   37   69 1  
    71   38   70 1  
    72   39   71 1  
    73   39   72 1  
    74   39   73 1  
    75   40   74 1  
    76   40   75 1  
    77   40   76 1  
@<TRIPOS>SUBSTRUCTURE
     1 TRP         1

