### 
### Created by X-TOOL on Mon Sep 10 21:13:24 2018
### 

@<TRIPOS>MOLECULE
5e73_ligand
   42    44     1     0     0
SMALL
GAST_HUCK


@<TRIPOS>ATOM
      1 C01       -25.7350  -11.2460    0.4780 C.3       1 UO1         0.0409
      2 C02       -26.2460   -9.8400    0.7660 C.2       1 UO1         0.2366
      3 O03       -25.5190   -9.0410    1.3260 O.2       1 UO1        -0.3635
      4 N04       -27.5760   -9.4770    0.3540 N.am      1 UO1        -0.1920
      5 C05       -28.4240  -10.3030   -0.2930 C.2       1 UO1         0.0688
      6 C06       -29.5930   -9.5860   -0.5350 C.2       1 UO1         0.0874
      7 N07       -30.7610  -10.0840   -1.2070 N.am      1 UO1        -0.1990
      8 C08       -31.2110   -9.4700   -2.4410 C.2       1 UO1         0.2161
      9 C09       -32.4340   -9.9880   -3.1710 C.3       1 UO1         0.0350
     10 O10       -30.6030   -8.5230   -2.9030 O.2       1 UO1        -0.3790
     11 C11       -31.4380  -11.2180   -0.6420 C.ar      1 UO1         0.0762
     12 C12       -31.2230  -12.4840   -1.2060 C.ar      1 UO1        -0.0316
     13 C13       -30.3050  -12.6560   -2.4020 C.3       1 UO1        -0.0396
     14 C14       -31.8770  -13.5970   -0.6610 C.ar      1 UO1        -0.0813
     15 C15       -32.7240  -13.4410    0.4370 C.ar      1 UO1        -0.0551
     16 C16       -32.9240  -12.1770    0.9960 C.ar      1 UO1         0.0675
     17 C17       -32.2760  -11.0590    0.4580 C.ar      1 UO1        -0.0167
     18 O18       -33.7830  -12.0290    2.1080 O.3       1 UO1        -0.3413
     19 C19       -29.4300   -8.2670    0.0150 C.ar      1 UO1         0.0090
     20 C20       -28.1540   -8.2400    0.5560 C.ar      1 UO1         0.0912
     21 C21       -27.6700   -7.0560    1.1880 C.ar      1 UO1        -0.0415
     22 C22       -28.4850   -5.9240    1.2610 C.ar      1 UO1        -0.0788
     23 C23       -29.7790   -5.9520    0.7130 C.ar      1 UO1        -0.0815
     24 C24       -30.2590   -7.1110    0.0900 C.ar      1 UO1        -0.0751
     25 H1        -26.5210  -11.8251   -0.0288 H         1 UO1         0.0482
     26 H2        -25.4678  -11.7400    1.4238 H         1 UO1         0.0482
     27 H3        -24.8473  -11.1882   -0.1690 H         1 UO1         0.0482
     28 H4        -28.2305  -11.3373   -0.5736 H         1 UO1         0.0736
     29 H5        -32.6019   -9.3874   -4.0771 H         1 UO1         0.0474
     30 H6        -33.3126   -9.9130   -2.5135 H         1 UO1         0.0474
     31 H7        -32.2752  -11.0395   -3.4523 H         1 UO1         0.0474
     32 H8        -30.2721  -13.7173   -2.6893 H         1 UO1         0.0344
     33 H9        -29.2925  -12.3158   -2.1391 H         1 UO1         0.0344
     34 H10       -30.6849  -12.0597   -3.2446 H         1 UO1         0.0344
     35 H11       -31.7249  -14.5797   -1.0925 H         1 UO1         0.0488
     36 H12       -33.2283  -14.3036    0.8573 H         1 UO1         0.0401
     37 H13       -32.4255  -10.0779    0.8942 H         1 UO1         0.0409
     38 H14       -34.1392  -12.8768    2.3467 H         1 UO1         0.2455
     39 H15       -26.6720   -7.0350    1.6106 H         1 UO1         0.0536
     40 H16       -28.1193   -5.0233    1.7406 H         1 UO1         0.0517
     41 H17       -30.4089   -5.0718    0.7728 H         1 UO1         0.0492
     42 H18       -31.2568   -7.1282   -0.3332 H         1 UO1         0.0537
@<TRIPOS>BOND
     1    1    2 1  
     2    2    3 2  
     3    2    4 am 
     4    4    5 1  
     5    4   20 1  
     6    5    6 2  
     7    6    7 1  
     8    6   19 1  
     9    7    8 am 
    10    7   11 1  
    11    8    9 1  
    12    8   10 2  
    13   11   12 ar 
    14   11   17 ar 
    15   12   13 1  
    16   12   14 ar 
    17   14   15 ar 
    18   15   16 ar 
    19   16   17 ar 
    20   16   18 1  
    21   19   20 ar 
    22   19   24 ar 
    23   20   21 ar 
    24   21   22 ar 
    25   22   23 ar 
    26   23   24 ar 
    27    1   25 1  
    28    1   26 1  
    29    1   27 1  
    30    5   28 1  
    31    9   29 1  
    32    9   30 1  
    33    9   31 1  
    34   13   32 1  
    35   13   33 1  
    36   13   34 1  
    37   14   35 1  
    38   15   36 1  
    39   17   37 1  
    40   18   38 1  
    41   21   39 1  
    42   22   40 1  
    43   23   41 1  
    44   24   42 1  
@<TRIPOS>SUBSTRUCTURE
     1 UO1         1

