### 
### Created by X-TOOL on Mon Sep 10 21:13:23 2018
### 

@<TRIPOS>MOLECULE
5e74_ligand
   52    55     1     0     0
SMALL
GAST_HUCK


@<TRIPOS>ATOM
      1 C14       -32.2640  -10.6600   -5.1800 C.ar      1 5KH        -0.0273
      2 C15       -31.1500  -10.1680   -4.5120 C.ar      1 5KH        -0.0140
      3 C16       -34.9120  -10.2890   -2.4680 C.3       1 5KH         0.3783
      4 C10       -31.2670   -9.7140   -3.2030 C.ar      1 5KH         0.0887
      5 C11       -32.5020   -9.7620   -2.5830 C.ar      1 5KH        -0.0106
      6 C12       -33.6090  -10.2580   -3.2350 C.ar      1 5KH         0.0539
      7 C13       -33.4970  -10.7090   -4.5440 C.ar      1 5KH        -0.0279
      8 C01       -24.7310  -11.0760    0.3360 C.3       1 5KH         0.0409
      9 C02       -25.2120   -9.6890    0.7040 C.2       1 5KH         0.2367
     10 O03       -24.4800   -8.9340    1.2930 O.2       1 5KH        -0.3635
     11 N04       -26.5160   -9.2870    0.3380 N.am      1 5KH        -0.1917
     12 C05       -27.3510  -10.0670   -0.3280 C.2       1 5KH         0.0692
     13 C06       -28.5260   -9.3600   -0.5260 C.2       1 5KH         0.0875
     14 N07       -29.6590   -9.8330   -1.2220 N.am      1 5KH        -0.1973
     15 C08       -30.0600   -9.1940   -2.4440 C.2       1 5KH         0.2547
     16 O09       -29.4280   -8.2580   -2.8950 O.2       1 5KH        -0.3669
     17 F17       -35.7090  -11.2550   -2.9480 F         1 5KH        -0.2197
     18 F18       -35.5160   -9.0950   -2.5430 F         1 5KH        -0.2197
     19 F19       -34.6260  -10.5590   -1.1850 F         1 5KH        -0.2197
     20 C20       -30.4140  -10.9240   -0.7490 C.ar      1 5KH         0.0763
     21 C21       -30.3490  -12.1610   -1.3890 C.ar      1 5KH        -0.0314
     22 C22       -29.4240  -12.4000   -2.5810 C.3       1 5KH        -0.0395
     23 C23       -31.1360  -13.2020   -0.9150 C.ar      1 5KH        -0.0812
     24 C24       -31.9850  -13.0070    0.1650 C.ar      1 5KH        -0.0550
     25 C25       -32.0570  -11.7690    0.7810 C.ar      1 5KH         0.0676
     26 C26       -31.2730  -10.7270    0.3230 C.ar      1 5KH        -0.0166
     27 O27       -32.9190  -11.5760    1.8760 O.3       1 5KH        -0.3413
     28 C28       -28.3600   -8.0650    0.0670 C.ar      1 5KH         0.0092
     29 C29       -27.0870   -8.0590    0.5970 C.ar      1 5KH         0.0914
     30 C30       -26.6070   -6.9020    1.2700 C.ar      1 5KH        -0.0414
     31 C31       -27.4240   -5.7830    1.3970 C.ar      1 5KH        -0.0788
     32 C32       -28.7120   -5.7900    0.8550 C.ar      1 5KH        -0.0815
     33 C33       -29.1870   -6.9210    0.1940 C.ar      1 5KH        -0.0751
     34 H1        -32.1702  -11.0073   -6.2026 H         1 5KH         0.0708
     35 H2        -30.1885  -10.1379   -5.0117 H         1 5KH         0.0902
     36 H3        -32.6006   -9.4026   -1.5651 H         1 5KH         0.0910
     37 H4        -34.3654  -11.0961   -5.0647 H         1 5KH         0.0882
     38 H5        -25.5319  -11.6135   -0.1928 H         1 5KH         0.0482
     39 H6        -24.4623  -11.6255    1.2502 H         1 5KH         0.0482
     40 H7        -23.8493  -10.9971   -0.3170 H         1 5KH         0.0482
     41 H8        -27.1506  -11.0841   -0.6615 H         1 5KH         0.0739
     42 H9        -29.5328  -13.4385   -2.9270 H         1 5KH         0.0344
     43 H10       -28.3817  -12.2218   -2.2779 H         1 5KH         0.0344
     44 H11       -29.6915  -11.7119   -3.3965 H         1 5KH         0.0344
     45 H12       -31.0868  -14.1741   -1.3921 H         1 5KH         0.0489
     46 H13       -32.5942  -13.8269    0.5279 H         1 5KH         0.0402
     47 H14       -31.3291   -9.7558    0.8012 H         1 5KH         0.0410
     48 H15       -33.3814  -12.3852    2.0601 H         1 5KH         0.2455
     49 H16       -25.6052   -6.8918    1.6838 H         1 5KH         0.0537
     50 H17       -27.0608   -4.9042    1.9173 H         1 5KH         0.0517
     51 H18       -29.3430   -4.9136    0.9490 H         1 5KH         0.0492
     52 H19       -30.1878   -6.9259   -0.2226 H         1 5KH         0.0537
@<TRIPOS>BOND
     1    2    1 ar 
     2    1    7 ar 
     3    4    2 ar 
     4    6    3 1  
     5    3   17 1  
     6    3   18 1  
     7    3   19 1  
     8    4    5 ar 
     9   15    4 1  
    10    5    6 ar 
    11    6    7 ar 
    12    9    8 1  
    13    9   10 2  
    14   11    9 am 
    15   12   11 1  
    16   11   29 1  
    17   13   12 2  
    18   14   13 1  
    19   13   28 1  
    20   14   15 am 
    21   14   20 1  
    22   15   16 2  
    23   20   21 ar 
    24   20   26 ar 
    25   21   22 1  
    26   21   23 ar 
    27   23   24 ar 
    28   24   25 ar 
    29   25   26 ar 
    30   25   27 1  
    31   28   29 ar 
    32   28   33 ar 
    33   29   30 ar 
    34   30   31 ar 
    35   31   32 ar 
    36   32   33 ar 
    37    1   34 1  
    38    2   35 1  
    39    5   36 1  
    40    7   37 1  
    41    8   38 1  
    42    8   39 1  
    43    8   40 1  
    44   12   41 1  
    45   22   42 1  
    46   22   43 1  
    47   22   44 1  
    48   23   45 1  
    49   24   46 1  
    50   26   47 1  
    51   27   48 1  
    52   30   49 1  
    53   31   50 1  
    54   32   51 1  
    55   33   52 1  
@<TRIPOS>SUBSTRUCTURE
     1 5KH         1

