### 
### Created by X-TOOL on Mon Sep 10 21:13:28 2018
### 

@<TRIPOS>MOLECULE
5e7n_ligand
   46    48     1     0     0
SMALL
GAST_HUCK


@<TRIPOS>ATOM
      1 C10       -12.5370  -11.9690   23.5710 C.ar      1 5KR         0.0511
      2 C13       -10.8200  -14.0480   24.2230 C.ar      1 5KR        -0.0143
      3 C17       -11.8130  -14.2410   23.2770 C.ar      1 5KR        -0.0528
      4 C20        -6.4270  -11.3040   21.9510 C.ar      1 5KR        -0.0055
      5 C22       -17.5850   -9.8460   20.5370 C.ar      1 5KR        -0.0610
      6 C24        -6.4130  -13.1150   23.5180 C.ar      1 5KR        -0.0427
      7 C26        -7.3790  -10.6500   22.7080 C.ar      1 5KR        -0.0685
      8 C28        -9.8700  -15.1900   24.5750 C.3       1 5KR        -0.0270
      9 S01        -9.3980  -12.5460   26.0840 S.o2      1 5KR         0.0886
     10 C02       -10.6920  -12.8170   24.8430 C.ar      1 5KR         0.1209
     11 C03       -16.5390  -10.6620   20.9370 C.ar      1 5KR         0.0304
     12 C04       -13.5060  -10.8390   23.2210 C.2       1 5KR         0.2289
     13 N05       -14.6780  -11.1990   22.4320 N.am      1 5KR        -0.2308
     14 N06        -7.8700  -13.0450   25.4950 N.am      1 5KR        -0.1858
     15 C07       -15.7500  -10.3050   22.0190 C.ar      1 5KR         0.0810
     16 C08       -11.5510  -11.7770   24.5220 C.ar      1 5KR        -0.0208
     17 C09       -16.2520  -11.9510   20.1690 C.2       1 5KR         0.0548
     18 O11        -9.7210  -13.2280   27.3380 O.2       1 5KR        -0.1455
     19 O12        -9.3810  -11.1460   26.5170 O.2       1 5KR        -0.1455
     20 O14       -13.3000   -9.7320   23.5990 O.2       1 5KR        -0.3754
     21 O15       -15.2760  -12.6800   20.4930 O.co2     1 5KR        -0.5656
     22 C16       -12.6740  -13.2030   22.9570 C.ar      1 5KR        -0.0479
     23 C18        -7.3650  -12.4530   24.2740 C.ar      1 5KR         0.0657
     24 O19       -16.9960  -12.2830   19.2090 O.co2     1 5KR        -0.5656
     25 BR1        -5.7910  -10.4730   20.3210 Br        1 5KR        -0.0656
     26 C23        -7.8510  -11.2210   23.8740 C.ar      1 5KR        -0.0427
     27 C25        -5.9410  -12.5400   22.3500 C.ar      1 5KR        -0.0685
     28 C27       -16.0280   -9.1420   22.7240 C.ar      1 5KR        -0.0372
     29 C29       -17.8510   -8.6780   21.2330 C.ar      1 5KR        -0.0734
     30 C30       -17.0730   -8.3260   22.3230 C.ar      1 5KR        -0.0727
     31 H1        -11.9167  -15.2026   22.7875 H         1 5KR         0.0570
     32 H2        -18.1930  -10.1205   19.6826 H         1 5KR         0.0611
     33 H3         -6.0383  -14.0801   23.8391 H         1 5KR         0.0489
     34 H4         -7.7568   -9.6862   22.3865 H         1 5KR         0.0598
     35 H5        -10.1299  -16.0792   23.9819 H         1 5KR         0.0401
     36 H6         -9.9596  -15.4246   25.6459 H         1 5KR         0.0401
     37 H7         -8.8360  -14.8891   24.3508 H         1 5KR         0.0401
     38 H8        -14.7528  -12.1544   22.1463 H         1 5KR         0.2270
     39 H9         -7.3356  -13.7333   25.9856 H         1 5KR         0.2176
     40 H10       -11.4502  -10.8167   25.0146 H         1 5KR         0.0672
     41 H11       -13.4573  -13.3575   22.2237 H         1 5KR         0.0652
     42 H12        -8.5963  -10.7078   24.4708 H         1 5KR         0.0489
     43 H13        -5.1966  -13.0526   21.7516 H         1 5KR         0.0598
     44 H14       -15.4287   -8.8730   23.5863 H         1 5KR         0.0511
     45 H15       -18.6698   -8.0385   20.9237 H         1 5KR         0.0496
     46 H16       -17.2822   -7.4100   22.8636 H         1 5KR         0.0599
@<TRIPOS>BOND
     1    1   12 1  
     2   16    1 ar 
     3    1   22 ar 
     4    2    3 ar 
     5    2    8 1  
     6   10    2 ar 
     7    3   22 ar 
     8    4    7 ar 
     9    4   25 1  
    10   27    4 ar 
    11   11    5 ar 
    12    5   29 ar 
    13   23    6 ar 
    14    6   27 ar 
    15    7   26 ar 
    16    9   10 1  
    17   14    9 am 
    18    9   18 2  
    19    9   19 2  
    20   10   16 ar 
    21   15   11 ar 
    22   11   17 1  
    23   12   13 am 
    24   12   20 2  
    25   13   15 1  
    26   14   23 1  
    27   15   28 ar 
    28   17   21 ar 
    29   17   24 ar 
    30   23   26 ar 
    31   28   30 ar 
    32   29   30 ar 
    33    3   31 1  
    34    5   32 1  
    35    6   33 1  
    36    7   34 1  
    37    8   35 1  
    38    8   36 1  
    39    8   37 1  
    40   13   38 1  
    41   14   39 1  
    42   16   40 1  
    43   22   41 1  
    44   26   42 1  
    45   27   43 1  
    46   28   44 1  
    47   29   45 1  
    48   30   46 1  
@<TRIPOS>SUBSTRUCTURE
     1 5KR         1

