### 
### Created by X-TOOL on Mon Sep 10 21:13:29 2018
### 

@<TRIPOS>MOLECULE
5e7r_ligand
   58    61     1     0     0
SMALL
GAST_HUCK


@<TRIPOS>ATOM
      1 C01       -21.2660  -51.8450  -22.2790 C.3       1 5KW        -0.0430
      2 N02       -20.2700  -50.8540  -21.9340 N.4       1 5KW         0.2358
      3 C03       -20.8310  -49.6450  -21.4110 C.3       1 5KW        -0.0123
      4 C04       -19.7870  -48.6610  -20.8520 C.3       1 5KW         0.0649
      5 C05       -19.0300  -51.3040  -21.6370 C.3       1 5KW        -0.0123
      6 C06       -18.5200  -50.8030  -20.5550 C.3       1 5KW         0.0649
      7 N07       -18.8070  -49.5380  -20.2150 N.pl3     1 5KW        -0.3045
      8 C08       -17.7680  -48.8950  -19.5700 C.ar      1 5KW         0.0297
      9 C09       -18.1700  -47.8280  -18.8260 C.ar      1 5KW        -0.0528
     10 C10       -17.1660  -47.1270  -18.1300 C.ar      1 5KW        -0.0489
     11 C11       -16.4870  -49.4010  -19.6990 C.ar      1 5KW        -0.0528
     12 C12       -15.4970  -48.7350  -18.9240 C.ar      1 5KW        -0.0489
     13 C13       -15.8420  -47.5900  -18.1690 C.ar      1 5KW         0.0530
     14 N14       -14.9490  -46.8060  -17.3880 N.pl3     1 5KW        -0.2509
     15 C15       -13.7470  -47.2090  -16.8710 C.ar      1 5KW         0.1960
     16 N16       -13.1470  -46.3240  -16.0950 N.ar      1 5KW        -0.2664
     17 C17       -11.8900  -46.5680  -15.6460 C.ar      1 5KW         0.0179
     18 C18       -11.2880  -47.7690  -15.7860 C.ar      1 5KW         0.1095
     19 CL1        -9.6570  -48.1920  -15.1840 Cl        1 5KW        -0.0729
     20 C20       -12.0070  -48.6180  -16.5750 C.ar      1 5KW         0.2036
     21 O21       -11.3390  -49.8320  -16.7880 O.3       1 5KW        -0.2387
     22 C22       -11.8480  -50.6610  -17.7930 C.ar      1 5KW         0.1453
     23 C23       -13.1480  -51.1170  -17.7640 C.ar      1 5KW        -0.0396
     24 C24       -13.5830  -51.9680  -18.7900 C.ar      1 5KW        -0.0844
     25 C25       -12.6880  -52.2660  -19.8370 C.ar      1 5KW        -0.0854
     26 C26       -11.3580  -51.7580  -19.8890 C.ar      1 5KW        -0.0474
     27 C27       -10.9540  -50.9350  -18.8420 C.ar      1 5KW         0.1029
     28 N28        -9.6830  -50.3620  -18.6750 N.am      1 5KW        -0.2356
     29 C29        -8.5100  -50.8180  -19.2750 C.2       1 5KW         0.1983
     30 C30        -7.2200  -50.1350  -18.8310 C.3       1 5KW         0.0312
     31 O31        -8.5540  -51.7570  -20.1350 O.2       1 5KW        -0.3863
     32 N32       -13.1900  -48.3770  -17.1230 N.ar      1 5KW        -0.2233
     33 H1        -22.2213  -51.3446  -22.4957 H         1 5KW         0.0778
     34 H2        -21.3989  -52.5400  -21.4368 H         1 5KW         0.0778
     35 H3        -20.9351  -52.4038  -23.1668 H         1 5KW         0.0778
     36 H4        -20.0579  -50.5143  -22.8590 H         1 5KW         0.2032
     37 H5        -21.5266  -49.9086  -20.6006 H         1 5KW         0.0834
     38 H6        -21.3828  -49.1419  -22.2187 H         1 5KW         0.0834
     39 H7        -20.2413  -47.9790  -20.1182 H         1 5KW         0.0562
     40 H8        -19.3250  -48.0751  -21.6603 H         1 5KW         0.0562
     41 H9        -18.3644  -51.0562  -22.4770 H         1 5KW         0.0834
     42 H10       -19.0803  -52.3965  -21.5189 H         1 5KW         0.0834
     43 H11       -17.4266  -50.8668  -20.6571 H         1 5KW         0.0562
     44 H12       -18.8483  -51.4409  -19.7212 H         1 5KW         0.0562
     45 H13       -19.2115  -47.5325  -18.7719 H         1 5KW         0.0490
     46 H14       -17.4148  -46.2346  -17.5672 H         1 5KW         0.0507
     47 H15       -16.2549  -50.2420  -20.3424 H         1 5KW         0.0490
     48 H16       -14.4782  -49.1052  -18.9122 H         1 5KW         0.0507
     49 H17       -15.2356  -45.8364  -17.1912 H         1 5KW         0.2146
     50 H18       -11.3477  -45.7677  -15.1557 H         1 5KW         0.0861
     51 H19       -13.8198  -50.8242  -16.9653 H         1 5KW         0.0512
     52 H20       -14.5830  -52.3863  -18.7781 H         1 5KW         0.0464
     53 H21       -13.0270  -52.9112  -20.6394 H         1 5KW         0.0495
     54 H22       -10.6905  -52.0017  -20.7076 H         1 5KW         0.0471
     55 H23        -9.6136  -49.5628  -18.0779 H         1 5KW         0.2229
     56 H24        -6.3678  -50.5758  -19.3690 H         1 5KW         0.0471
     57 H25        -7.0835  -50.2771  -17.7488 H         1 5KW         0.0471
     58 H26        -7.2785  -49.0597  -19.0552 H         1 5KW         0.0471
@<TRIPOS>BOND
     1    1    2 1  
     2    2    3 1  
     3    2    5 1  
     4    3    4 1  
     5    4    7 1  
     6    5    6 1  
     7    6    7 1  
     8    7    8 1  
     9    8    9 ar 
    10    8   11 ar 
    11    9   10 ar 
    12   10   13 ar 
    13   11   12 ar 
    14   12   13 ar 
    15   13   14 1  
    16   14   15 1  
    17   15   16 ar 
    18   15   32 ar 
    19   16   17 ar 
    20   17   18 ar 
    21   18   19 1  
    22   18   20 ar 
    23   20   21 1  
    24   20   32 ar 
    25   21   22 1  
    26   22   23 ar 
    27   22   27 ar 
    28   23   24 ar 
    29   24   25 ar 
    30   25   26 ar 
    31   26   27 ar 
    32   27   28 1  
    33   28   29 am 
    34   29   30 1  
    35   29   31 2  
    36    1   33 1  
    37    1   34 1  
    38    1   35 1  
    39    2   36 1  
    40    3   37 1  
    41    3   38 1  
    42    4   39 1  
    43    4   40 1  
    44    5   41 1  
    45    5   42 1  
    46    6   43 1  
    47    6   44 1  
    48    9   45 1  
    49   10   46 1  
    50   11   47 1  
    51   12   48 1  
    52   14   49 1  
    53   17   50 1  
    54   23   51 1  
    55   24   52 1  
    56   25   53 1  
    57   26   54 1  
    58   28   55 1  
    59   30   56 1  
    60   30   57 1  
    61   30   58 1  
@<TRIPOS>SUBSTRUCTURE
     1 5KW         1

