### 
### Created by X-TOOL on Mon Sep 10 21:13:28 2018
### 

@<TRIPOS>MOLECULE
5e80_ligand
   56    59     1     0     0
SMALL
GAST_HUCK


@<TRIPOS>ATOM
      1 CBE         1.7700   -7.8990   -7.9870 C.3       1 5KP        -0.0345
      2 CAZ         1.4080   -8.2530   -9.2980 C.ar      1 5KP        -0.0101
      3 CBA         2.1340   -9.2420   -9.9590 C.ar      1 5KP         0.0280
      4 CL1         3.4150   -9.9710   -9.1360 Cl        1 5KP        -0.0817
      5 CBB         1.8410   -9.6410  -11.2630 C.ar      1 5KP        -0.0701
      6 CBC         0.7940   -9.0450  -11.9490 C.ar      1 5KP        -0.0819
      7 CBD         0.0470   -8.0640  -11.3040 C.ar      1 5KP        -0.0473
      8 CAY         0.3530   -7.6790   -9.9960 C.ar      1 5KP         0.0692
      9 NAW        -0.3940   -6.7320   -9.4370 N.am      1 5KP        -0.2369
     10 CAV        -1.1100   -6.9540   -8.3050 C.2       1 5KP         0.2019
     11 OAX        -1.0640   -7.9640   -7.6020 O.2       1 5KP        -0.3858
     12 CAU        -1.9860   -5.7730   -7.9660 C.3       1 5KP         0.0452
     13 CAT        -2.3280   -5.8040   -6.4890 C.3       1 5KP        -0.0084
     14 CAS        -1.8100   -4.5130   -5.9430 C.3       1 5KP         0.0689
     15 NAA        -1.9540   -4.4660   -4.4680 N.am      1 5KP        -0.1775
     16 CAF        -1.5200   -3.3400   -3.8610 C.2       1 5KP         0.2381
     17 OAJ        -1.0520   -2.4170   -4.5170 O.2       1 5KP        -0.3904
     18 NAB        -2.4380   -5.4190   -3.7800 N.2       1 5KP        -0.2213
     19 CAC        -2.5320   -5.3070   -2.4360 C.2       1 5KP         0.0211
     20 CAL        -3.0840   -6.3530   -1.6950 C.3       1 5KP        -0.0249
     21 CAD        -2.0870   -4.1920   -1.8370 C.2       1 5KP         0.0350
     22 CAG        -2.0020   -3.7280   -0.6010 C.2       1 5KP         0.1033
     23 CAK        -2.4550   -4.4630    0.6660 C.3       1 5KP         0.0050
     24 CAE        -1.5840   -3.2110   -2.5560 C.2       1 5KP         0.1150
     25 NAI        -1.2150   -2.2270   -1.7450 N.2       1 5KP        -0.1893
     26 NAH        -1.4490   -2.5200   -0.6290 N.pl3     1 5KP        -0.1505
     27 CAM        -1.1920   -1.7570    0.4170 C.ar      1 5KP         0.1149
     28 CAN        -0.4060   -2.2790    1.4390 C.ar      1 5KP        -0.0246
     29 CAO        -0.1140   -1.5120    2.5540 C.ar      1 5KP        -0.0654
     30 CAP        -0.5970   -0.2170    2.6180 C.ar      1 5KP        -0.0683
     31 CAQ        -1.3660    0.3100    1.5790 C.ar      1 5KP        -0.0654
     32 CAR        -1.6710   -0.4590    0.4710 C.ar      1 5KP        -0.0246
     33 H1          2.6346   -8.5007   -7.6702 H         1 5KP         0.0364
     34 H2          0.9242   -8.0875   -7.3095 H         1 5KP         0.0364
     35 H3          2.0346   -6.8318   -7.9551 H         1 5KP         0.0364
     36 H4          2.4309  -10.4158  -11.7392 H         1 5KP         0.0476
     37 H5          0.5621   -9.3371  -12.9668 H         1 5KP         0.0521
     38 H6         -0.7811   -7.5935  -11.8217 H         1 5KP         0.0482
     39 H7         -0.4297   -5.8282   -9.8635 H         1 5KP         0.2234
     40 H8         -2.9120   -5.8216   -8.5577 H         1 5KP         0.0508
     41 H9         -1.4506   -4.8407   -8.1987 H         1 5KP         0.0508
     42 H10        -1.8370   -6.6563   -5.9966 H         1 5KP         0.0315
     43 H11        -3.4163   -5.8749   -6.3459 H         1 5KP         0.0315
     44 H12        -2.3767   -3.6812   -6.3867 H         1 5KP         0.0607
     45 H13        -0.7462   -4.4126   -6.2042 H         1 5KP         0.0607
     46 H14        -3.0793   -6.0883   -0.6273 H         1 5KP         0.0388
     47 H15        -2.4892   -7.2654   -1.8491 H         1 5KP         0.0388
     48 H16        -4.1185   -6.5297   -2.0244 H         1 5KP         0.0388
     49 H17        -2.8754   -5.4418    0.3916 H         1 5KP         0.0455
     50 H18        -3.2217   -3.8663    1.1818 H         1 5KP         0.0455
     51 H19        -1.5930   -4.6084    1.3336 H         1 5KP         0.0455
     52 H20        -0.0209   -3.2894    1.3622 H         1 5KP         0.0590
     53 H21         0.4825   -1.9188    3.3626 H         1 5KP         0.0601
     54 H22        -0.3757    0.3952    3.4848 H         1 5KP         0.0561
     55 H23        -1.7270    1.3302    1.6413 H         1 5KP         0.0601
     56 H24        -2.2710   -0.0551   -0.3364 H         1 5KP         0.0590
@<TRIPOS>BOND
     1    1    2 1  
     2    2    3 ar 
     3    2    8 ar 
     4    3    4 1  
     5    3    5 ar 
     6    5    6 ar 
     7    6    7 ar 
     8    7    8 ar 
     9    8    9 1  
    10    9   10 am 
    11   10   11 2  
    12   10   12 1  
    13   12   13 1  
    14   13   14 1  
    15   14   15 1  
    16   15   16 am 
    17   15   18 1  
    18   16   17 2  
    19   16   24 1  
    20   18   19 2  
    21   19   20 1  
    22   19   21 1  
    23   21   22 2  
    24   21   24 1  
    25   22   23 1  
    26   22   26 1  
    27   24   25 2  
    28   25   26 1  
    29   26   27 1  
    30   27   28 ar 
    31   27   32 ar 
    32   28   29 ar 
    33   29   30 ar 
    34   30   31 ar 
    35   31   32 ar 
    36    1   33 1  
    37    1   34 1  
    38    1   35 1  
    39    5   36 1  
    40    6   37 1  
    41    7   38 1  
    42    9   39 1  
    43   12   40 1  
    44   12   41 1  
    45   13   42 1  
    46   13   43 1  
    47   14   44 1  
    48   14   45 1  
    49   20   46 1  
    50   20   47 1  
    51   20   48 1  
    52   23   49 1  
    53   23   50 1  
    54   23   51 1  
    55   28   52 1  
    56   29   53 1  
    57   30   54 1  
    58   31   55 1  
    59   32   56 1  
@<TRIPOS>SUBSTRUCTURE
     1 5KP         1

