### 
### Created by X-TOOL on Mon Sep 10 21:13:26 2018
### 

@<TRIPOS>MOLECULE
5e88_ligand
   69    74     1     0     0
SMALL
GAST_HUCK


@<TRIPOS>ATOM
      1 C6         20.5320   -5.6140   -0.1510 C.3       1 5KT         0.0730
      2 C5         19.9560   -6.7750   -0.9560 C.3       1 5KT         0.1122
      3 S1         21.0890  -10.5030   -0.7020 S.3       1 5KT        -0.0931
      4 C2         18.6810   -9.3730   -1.1740 C.3       1 5KT         0.1265
      5 N3         14.3290   -8.0710   -1.9610 N.2       1 5KT        -0.2224
      6 C4         18.4600   -6.9310   -0.7420 C.3       1 5KT         0.1193
      7 C5'        24.5830  -10.5200   -2.4940 C.3       1 5KT         0.1122
      8 C4'        25.5360  -10.7350   -1.3190 C.3       1 5KT         0.1193
      9 N3'        26.8530  -11.0130    2.8220 N.2       1 5KT        -0.2224
     10 C2'        23.6290  -10.2540    0.2110 C.3       1 5KT         0.1265
     11 N1'        25.9600   -9.9590    1.0440 N.pl3     1 5KT        -0.1635
     12 C6'        24.9970  -11.3470   -3.7090 C.3       1 5KT         0.0730
     13 O6         21.9190   -5.4760   -0.4740 O.3       1 5KT        -0.3924
     14 O5         20.6090   -7.9840   -0.5630 O.3       1 5KT        -0.3552
     15 O4         18.1880   -7.1180    0.6500 O.3       1 5KT        -0.3857
     16 C3         17.9130   -8.1120   -1.5370 C.3       1 5KT         0.1462
     17 N1         16.4600   -8.2310   -1.2690 N.pl3     1 5KT        -0.1635
     18 N2         15.6600   -7.9360   -2.3850 N.2       1 5KT        -0.0938
     19 CB         14.4230   -8.4160   -0.6620 C.2       1 5KT         0.0535
     20 CD         13.2050   -8.6530    0.1680 C.2       1 5KT        -0.0350
     21 CF         11.9510   -8.7120   -0.4180 C.2       1 5KT        -0.0728
     22 CE         13.2590   -8.8060    1.5360 C.2       1 5KT        -0.0065
     23 S2         11.6670   -9.0650    2.1970 S.3       1 5KT        -0.0502
     24 CG         11.0200   -8.9340    0.5810 C.2       1 5KT        -0.0088
     25 CA         15.7190   -8.5220   -0.1890 C.2       1 5KT         0.0801
     26 O2         18.2640  -10.4340   -2.0400 O.3       1 5KT        -0.3849
     27 C1         20.1810   -9.1220   -1.3170 C.3       1 5KT         0.1360
     28 C1'        22.7580  -10.0540   -1.0300 C.3       1 5KT         0.1360
     29 O5'        23.2450  -10.8610   -2.1130 O.3       1 5KT        -0.3552
     30 O6'        24.1960  -10.9720   -4.8340 O.3       1 5KT        -0.3924
     31 O2'        23.1500   -9.4680    1.3140 O.3       1 5KT        -0.3849
     32 C3'        25.0650   -9.8740   -0.1450 C.3       1 5KT         0.1462
     33 O4'        25.5760  -12.1230   -0.9620 O.3       1 5KT        -0.3857
     34 N2'        25.9590  -11.1740    1.7460 N.2       1 5KT        -0.0938
     35 CB'        27.3090   -9.7530    2.6840 C.2       1 5KT         0.0535
     36 CA'        26.7780   -9.0680    1.6170 C.2       1 5KT         0.0801
     37 CD'        28.2720   -9.1470    3.6540 C.2       1 5KT        -0.0350
     38 CF'        28.4470   -7.7740    3.7080 C.2       1 5KT        -0.0728
     39 CE'        28.9630   -9.9370    4.5540 C.2       1 5KT        -0.0065
     40 S2'        29.9510   -8.8840    5.5360 S.3       1 5KT        -0.0502
     41 CG'        29.3630   -7.4640    4.6980 C.2       1 5KT        -0.0088
     42 H1         20.4208   -5.8178    0.9242 H         1 5KT         0.0584
     43 H2         19.9985   -4.6863   -0.4055 H         1 5KT         0.0584
     44 H3         20.1428   -6.5908   -2.0242 H         1 5KT         0.0646
     45 H4         18.4606   -9.6479   -0.1320 H         1 5KT         0.0662
     46 H5         17.9579   -6.0139   -1.0837 H         1 5KT         0.0654
     47 H6         24.6104   -9.4560   -2.7716 H         1 5KT         0.0646
     48 H7         26.5478  -10.4178   -1.6116 H         1 5KT         0.0654
     49 H8         23.6001  -11.3147    0.5008 H         1 5KT         0.0662
     50 H9         24.8495  -12.4155   -3.4933 H         1 5KT         0.0584
     51 H10        26.0574  -11.1615   -3.9353 H         1 5KT         0.0584
     52 H11        22.3756   -6.2796   -0.2545 H         1 5KT         0.2095
     53 H12        17.2517   -7.2150    0.7783 H         1 5KT         0.2100
     54 H13        18.0546   -7.9191   -2.6106 H         1 5KT         0.0744
     55 H14        11.7357   -8.6027   -1.4799 H         1 5KT         0.0401
     56 H15        14.1739   -8.7700    2.1256 H         1 5KT         0.0662
     57 H16         9.9546   -9.0212    0.3731 H         1 5KT         0.0720
     58 H17        16.0553   -8.7788    0.8144 H         1 5KT         0.1016
     59 H18        18.4449  -10.1951   -2.9415 H         1 5KT         0.2101
     60 H19        20.4138   -8.9656   -2.3806 H         1 5KT         0.0741
     61 H20        22.7953   -8.9942   -1.3223 H         1 5KT         0.0741
     62 H21        23.2806  -11.1325   -4.6371 H         1 5KT         0.2095
     63 H22        23.1663   -8.5483    1.0767 H         1 5KT         0.2101
     64 H23        25.0666   -8.8259   -0.4789 H         1 5KT         0.0744
     65 H24        26.1767  -12.2450   -0.2363 H         1 5KT         0.2100
     66 H25        26.9762   -8.0421    1.3102 H         1 5KT         0.1016
     67 H26        27.9418   -7.0503    3.0700 H         1 5KT         0.0401
     68 H27        28.9021  -11.0212    4.6358 H         1 5KT         0.0662
     69 H28        29.6826   -6.4491    4.9300 H         1 5KT         0.0720
@<TRIPOS>BOND
     1    2    1 1  
     2    1   13 1  
     3    6    2 1  
     4    2   14 1  
     5   27    3 1  
     6    3   28 1  
     7   16    4 1  
     8    4   26 1  
     9    4   27 1  
    10   18    5 2  
    11    5   19 1  
    12    6   15 1  
    13   16    6 1  
    14    8    7 1  
    15    7   12 1  
    16    7   29 1  
    17   32    8 1  
    18    8   33 1  
    19   34    9 2  
    20    9   35 1  
    21   28   10 1  
    22   10   31 1  
    23   10   32 1  
    24   32   11 1  
    25   11   34 1  
    26   11   36 1  
    27   12   30 1  
    28   27   14 1  
    29   17   16 1  
    30   17   18 1  
    31   17   25 1  
    32   19   20 1  
    33   19   25 2  
    34   20   21 1  
    35   20   22 2  
    36   21   24 2  
    37   22   23 1  
    38   23   24 1  
    39   28   29 1  
    40   35   36 2  
    41   35   37 1  
    42   37   38 1  
    43   37   39 2  
    44   38   41 2  
    45   39   40 1  
    46   40   41 1  
    47    1   42 1  
    48    1   43 1  
    49    2   44 1  
    50    4   45 1  
    51    6   46 1  
    52    7   47 1  
    53    8   48 1  
    54   10   49 1  
    55   12   50 1  
    56   12   51 1  
    57   13   52 1  
    58   15   53 1  
    59   16   54 1  
    60   21   55 1  
    61   22   56 1  
    62   24   57 1  
    63   25   58 1  
    64   26   59 1  
    65   27   60 1  
    66   28   61 1  
    67   30   62 1  
    68   31   63 1  
    69   32   64 1  
    70   33   65 1  
    71   36   66 1  
    72   38   67 1  
    73   39   68 1  
    74   41   69 1  
@<TRIPOS>SUBSTRUCTURE
     1 5KT         1

