### 
### Created by X-TOOL on Mon Sep 10 21:13:26 2018
### 

@<TRIPOS>MOLECULE
5e89_ligand
   75    80     1     0     0
SMALL
GAST_HUCK


@<TRIPOS>ATOM
      1 C1         20.1350   -8.9640   -1.1330 C.3       1 TD2         0.1360
      2 C2         18.6600   -9.2400   -1.0180 C.3       1 TD2         0.1267
      3 C3         17.9000   -7.9980   -1.3930 C.3       1 TD2         0.1476
      4 C4         18.4200   -6.8320   -0.5630 C.3       1 TD2         0.1195
      5 C5         19.9150   -6.6800   -0.7500 C.3       1 TD2         0.1122
      6 C6         20.4570   -5.5250    0.0690 C.3       1 TD2         0.0730
      7 N9         14.3160   -8.1250   -1.8620 N.2       1 TD2        -0.2165
      8 C12        27.4460  -11.1400    4.1170 C.ar      1 TD2        -0.0216
      9 C13        26.7750  -12.2520    4.5750 C.ar      1 TD2        -0.0268
     10 C14        27.0810  -12.8110    5.7990 C.ar      1 TD2         0.1281
     11 C11        22.5870   -9.9570   -0.9070 C.3       1 TD2         0.1360
     12 S1         20.9370  -10.3910   -0.5520 S.3       1 TD2        -0.0931
     13 O5         20.5290   -7.8830   -0.3320 O.3       1 TD2        -0.3552
     14 O51        23.0400  -10.7940   -1.9730 O.3       1 TD2        -0.3552
     15 C51        24.3670  -10.5210   -2.3450 C.3       1 TD2         0.1122
     16 C61        24.7720  -11.4040   -3.5260 C.3       1 TD2         0.0730
     17 O6         21.8370   -5.4190   -0.2000 O.3       1 TD2        -0.3924
     18 O61        24.1550  -10.8450   -4.6760 O.3       1 TD2        -0.3924
     19 C41        25.3340  -10.7410   -1.2050 C.3       1 TD2         0.1195
     20 O4         18.1130   -7.0370    0.8130 O.3       1 TD2        -0.3857
     21 O41        25.4880  -12.1230   -0.8720 O.3       1 TD2        -0.3857
     22 C31        24.8510   -9.9500   -0.0180 C.3       1 TD2         0.1476
     23 C21        23.4090  -10.2580    0.3230 C.3       1 TD2         0.1267
     24 O2         23.0010   -9.4560    1.4310 O.3       1 TD2        -0.3849
     25 O21        18.3020  -10.2790   -1.9250 O.3       1 TD2        -0.3849
     26 N7         25.7480  -10.1660    1.1110 N.pl3     1 TD2        -0.1587
     27 C8         25.8280  -10.9500    2.1560 C.2       1 TD2         0.0882
     28 C9         26.9870  -10.5810    2.8240 C.2       1 TD2         0.0691
     29 N10        27.5630   -9.5550    2.1910 N.2       1 TD2        -0.2165
     30 N11        26.7980   -9.2780    1.0820 N.2       1 TD2        -0.0900
     31 N71        16.4540   -8.1500   -1.1880 N.pl3     1 TD2        -0.1587
     32 N8         15.6330   -7.9540   -2.3000 N.2       1 TD2        -0.0900
     33 C10        14.4180   -8.4060   -0.5500 C.2       1 TD2         0.0691
     34 C71        15.7320   -8.4280   -0.1380 C.2       1 TD2         0.0882
     35 C15        28.0520  -12.2230    6.5890 C.ar      1 TD2        -0.0325
     36 C16        28.6970  -11.0670    6.1570 C.ar      1 TD2        -0.0678
     37 C17        28.3830  -10.5030    4.9240 C.ar      1 TD2        -0.0640
     38 C22        13.1490   -8.6480    0.2020 C.ar      1 TD2        -0.0216
     39 C23        11.9830   -9.0100   -0.4640 C.ar      1 TD2        -0.0640
     40 C24        10.8150   -9.2330    0.2520 C.ar      1 TD2        -0.0678
     41 C25        10.8140   -9.1050    1.6370 C.ar      1 TD2        -0.0325
     42 C26        11.9680   -8.7660    2.2880 C.ar      1 TD2         0.1281
     43 C27        13.1340   -8.5070    1.5890 C.ar      1 TD2        -0.0268
     44 F18        26.3790  -13.9440    6.0710 F         1 TD2        -0.1847
     45 F28        11.9080   -8.6460    3.6260 F         1 TD2        -0.1847
     46 H1         20.4016   -8.7644   -2.1814 H         1 TD2         0.0741
     47 H2         18.4135   -9.5376    0.0119 H         1 TD2         0.0663
     48 H3         18.0783   -7.7872   -2.4578 H         1 TD2         0.0746
     49 H4         17.9265   -5.9091   -0.9016 H         1 TD2         0.0655
     50 H5         20.1338   -6.5008   -1.8130 H         1 TD2         0.0646
     51 H6         20.2979   -5.7181    1.1402 H         1 TD2         0.0584
     52 H7         19.9473   -4.5926   -0.2151 H         1 TD2         0.0584
     53 H8         25.9954  -12.6944    3.9654 H         1 TD2         0.0566
     54 H9         22.6663   -8.8950   -1.1823 H         1 TD2         0.0741
     55 H10        24.4280   -9.4668   -2.6531 H         1 TD2         0.0646
     56 H11        24.4202  -12.4343   -3.3687 H         1 TD2         0.0584
     57 H12        25.8657  -11.4039   -3.6434 H         1 TD2         0.0584
     58 H13        22.2692   -6.2291    0.0439 H         1 TD2         0.2095
     59 H14        23.2122  -10.8441   -4.5593 H         1 TD2         0.2095
     60 H15        26.3191  -10.3562   -1.5074 H         1 TD2         0.0655
     61 H16        17.1733   -7.1307    0.9161 H         1 TD2         0.2100
     62 H17        26.1032  -12.2077   -0.1530 H         1 TD2         0.2100
     63 H18        24.9007   -8.8838   -0.2839 H         1 TD2         0.0746
     64 H19        23.3030  -11.3204    0.5875 H         1 TD2         0.0663
     65 H20        23.0841   -8.5375    1.2033 H         1 TD2         0.2101
     66 H21        17.3675  -10.4399   -1.8675 H         1 TD2         0.2101
     67 H22        25.1274  -11.7328    2.4429 H         1 TD2         0.1078
     68 H23        16.0964   -8.6365    0.8668 H         1 TD2         0.1078
     69 H24        28.3112  -12.6625    7.5454 H         1 TD2         0.0569
     70 H25        29.4488  -10.6032    6.7853 H         1 TD2         0.0596
     71 H26        28.8594   -9.5852    4.5988 H         1 TD2         0.0548
     72 H27        11.9863   -9.1180   -1.5426 H         1 TD2         0.0548
     73 H28         9.9041   -9.5068   -0.2680 H         1 TD2         0.0596
     74 H29         9.9020   -9.2733    2.1983 H         1 TD2         0.0569
     75 H30        14.0291   -8.1968    2.1160 H         1 TD2         0.0566
@<TRIPOS>BOND
     1    2    1 1  
     2    1   12 1  
     3    1   13 1  
     4    3    2 1  
     5    2   25 1  
     6    3    4 1  
     7   31    3 1  
     8    4    5 1  
     9    4   20 1  
    10    5    6 1  
    11    5   13 1  
    12    6   17 1  
    13   32    7 2  
    14    7   33 1  
    15    8    9 ar 
    16   28    8 1  
    17    8   37 ar 
    18    9   10 ar 
    19   10   35 ar 
    20   10   44 1  
    21   12   11 1  
    22   11   14 1  
    23   11   23 1  
    24   14   15 1  
    25   15   16 1  
    26   15   19 1  
    27   16   18 1  
    28   19   21 1  
    29   22   19 1  
    30   23   22 1  
    31   22   26 1  
    32   23   24 1  
    33   26   27 1  
    34   26   30 1  
    35   27   28 2  
    36   29   28 1  
    37   30   29 2  
    38   31   32 1  
    39   31   34 1  
    40   33   34 2  
    41   33   38 1  
    42   35   36 ar 
    43   36   37 ar 
    44   38   39 ar 
    45   38   43 ar 
    46   39   40 ar 
    47   40   41 ar 
    48   41   42 ar 
    49   42   43 ar 
    50   42   45 1  
    51    1   46 1  
    52    2   47 1  
    53    3   48 1  
    54    4   49 1  
    55    5   50 1  
    56    6   51 1  
    57    6   52 1  
    58    9   53 1  
    59   11   54 1  
    60   15   55 1  
    61   16   56 1  
    62   16   57 1  
    63   17   58 1  
    64   18   59 1  
    65   19   60 1  
    66   20   61 1  
    67   21   62 1  
    68   22   63 1  
    69   23   64 1  
    70   24   65 1  
    71   25   66 1  
    72   27   67 1  
    73   34   68 1  
    74   35   69 1  
    75   36   70 1  
    76   37   71 1  
    77   39   72 1  
    78   40   73 1  
    79   41   74 1  
    80   43   75 1  
@<TRIPOS>SUBSTRUCTURE
     1 TD2         1

