### 
### Created by X-TOOL on Mon Sep 10 21:13:26 2018
### 

@<TRIPOS>MOLECULE
5e8a_ligand
   75    80     1     0     0
SMALL
GAST_HUCK


@<TRIPOS>ATOM
      1 C6         20.6530   -5.6170   -0.0550 C.3       1 5KS         0.0730
      2 C5         20.0600   -6.7780   -0.8340 C.3       1 5KS         0.1122
      3 S1         21.1780  -10.5060   -0.5810 S.3       1 5KS        -0.0931
      4 C2         18.7700   -9.3470   -1.0270 C.3       1 5KS         0.1266
      5 N3         14.4400   -8.1080   -1.7480 N.2       1 5KS        -0.2175
      6 C4         18.5610   -6.9070   -0.6230 C.3       1 5KS         0.1195
      7 C5'        24.6860  -10.4530   -2.3860 C.3       1 5KS         0.1122
      8 C4'        25.6450  -10.6720   -1.2170 C.3       1 5KS         0.1195
      9 N3'        26.9740  -11.1250    2.8310 N.2       1 5KS        -0.2175
     10 C2'        23.7140  -10.2130    0.2980 C.3       1 5KS         0.1266
     11 N1'        26.0760   -9.9880    1.1490 N.pl3     1 5KS        -0.1596
     12 C6'        25.0950  -11.2430   -3.6300 C.3       1 5KS         0.0730
     13 O6         22.0400   -5.4780   -0.3060 O.3       1 5KS        -0.3924
     14 O5         20.7010   -7.9950   -0.3930 O.3       1 5KS        -0.3552
     15 O4         18.2370   -7.0770    0.7730 O.3       1 5KS        -0.3857
     16 C3         18.0370   -8.0930   -1.4330 C.3       1 5KS         0.1473
     17 N1         16.5890   -8.2080   -1.2160 N.pl3     1 5KS        -0.1596
     18 N2         15.7280   -7.9420   -2.2860 N.2       1 5KS        -0.0908
     19 CB         14.6150   -8.4540   -0.4610 C.2       1 5KS         0.0674
     20 CA         15.9370   -8.5000   -0.1140 C.2       1 5KS         0.0867
     21 CD         13.3850   -8.6510    0.3440 C.ar      1 5KS        -0.0231
     22 CI         13.5030   -8.5150    1.7110 C.ar      1 5KS        -0.0613
     23 CH         12.3870   -8.6800    2.5160 C.ar      1 5KS        -0.0320
     24 F          10.0630   -9.0700    2.7620 F         1 5KS        -0.1864
     25 CG         11.1520   -8.9340    1.9490 C.ar      1 5KS         0.1284
     26 CF         11.0230   -9.0410    0.5690 C.ar      1 5KS        -0.0320
     27 CE         12.1430   -8.8880   -0.2450 C.ar      1 5KS        -0.0613
     28 O2         18.3810  -10.4310   -1.8800 O.3       1 5KS        -0.3849
     29 C1         20.2650   -9.1150   -1.1710 C.3       1 5KS         0.1360
     30 C1'        22.8330  -10.0140   -0.9240 C.3       1 5KS         0.1360
     31 O5'        23.3610  -10.8230   -2.0050 O.3       1 5KS        -0.3552
     32 O6'        24.3130  -10.7880   -4.7480 O.3       1 5KS        -0.3924
     33 O2'        23.1710   -9.4550    1.3920 O.3       1 5KS        -0.3849
     34 C3'        25.1680   -9.8350   -0.0300 C.3       1 5KS         0.1473
     35 O4'        25.7150  -12.0730   -0.8860 O.3       1 5KS        -0.3857
     36 N2'        26.0650  -11.2350    1.7720 N.2       1 5KS        -0.0908
     37 CB'        27.4910   -9.8710    2.8270 C.2       1 5KS         0.0674
     38 CA'        26.9210   -9.1630    1.7740 C.2       1 5KS         0.0867
     39 CD'        28.4750   -9.3590    3.8320 C.ar      1 5KS        -0.0231
     40 CI'        28.6230   -7.9860    4.0420 C.ar      1 5KS        -0.0613
     41 CH'        29.5240   -7.5120    4.9960 C.ar      1 5KS        -0.0320
     42 CG'        30.2770   -8.4070    5.7530 C.ar      1 5KS         0.1284
     43 CF'        30.1220   -9.7780    5.5570 C.ar      1 5KS        -0.0320
     44 CE'        29.2190  -10.2520    4.6060 C.ar      1 5KS        -0.0613
     45 F'         31.1610   -7.9320    6.6810 F         1 5KS        -0.1864
     46 H1         20.5002   -5.7927    1.0201 H         1 5KS         0.0584
     47 H2         20.1415   -4.6894   -0.3513 H         1 5KS         0.0584
     48 H3         20.2555   -6.6254   -1.9057 H         1 5KS         0.0646
     49 H4         18.5304   -9.5939    0.0178 H         1 5KS         0.0663
     50 H5         18.0756   -5.9880   -0.9833 H         1 5KS         0.0655
     51 H6         24.6945   -9.3827   -2.6396 H         1 5KS         0.0646
     52 H7         26.6499  -10.3324   -1.5084 H         1 5KS         0.0655
     53 H8         23.6960  -11.2770    0.5763 H         1 5KS         0.0663
     54 H9         24.9125  -12.3149   -3.4634 H         1 5KS         0.0584
     55 H10        26.1633  -11.0806   -3.8360 H         1 5KS         0.0584
     56 H11        22.4888   -6.2745   -0.0478 H         1 5KS         0.2095
     57 H12        17.2953   -7.1544    0.8712 H         1 5KS         0.2100
     58 H13        18.2207   -7.9107   -2.5021 H         1 5KS         0.0746
     59 H14        16.3578   -8.7291    0.8640 H         1 5KS         0.1065
     60 H15        14.4641   -8.2801    2.1540 H         1 5KS         0.0574
     61 H16        12.4828   -8.6097    3.5935 H         1 5KS         0.0595
     62 H17        10.0537   -9.2429    0.1277 H         1 5KS         0.0595
     63 H18        12.0505   -8.9523   -1.3231 H         1 5KS         0.0574
     64 H19        17.4450  -10.5734   -1.8023 H         1 5KS         0.2101
     65 H20        20.4950   -8.9408   -2.2325 H         1 5KS         0.0741
     66 H21        22.8437   -8.9532   -1.2149 H         1 5KS         0.0741
     67 H22        23.3911  -10.9283   -4.5663 H         1 5KS         0.2095
     68 H23        23.1489   -8.5346    1.1579 H         1 5KS         0.2101
     69 H24        25.1858   -8.7760   -0.3270 H         1 5KS         0.0746
     70 H25        26.3237  -12.1974   -0.1674 H         1 5KS         0.2100
     71 H26        27.1258   -8.1270    1.5080 H         1 5KS         0.1065
     72 H27        28.0348   -7.2851    3.4608 H         1 5KS         0.0574
     73 H28        29.6384   -6.4449    5.1486 H         1 5KS         0.0595
     74 H29        30.7048  -10.4776    6.1452 H         1 5KS         0.0595
     75 H30        29.0939  -11.3197    4.4668 H         1 5KS         0.0574
@<TRIPOS>BOND
     1    2    1 1  
     2    1   13 1  
     3    6    2 1  
     4    2   14 1  
     5   29    3 1  
     6    3   30 1  
     7   16    4 1  
     8    4   28 1  
     9    4   29 1  
    10   18    5 2  
    11    5   19 1  
    12    6   15 1  
    13   16    6 1  
    14    8    7 1  
    15    7   12 1  
    16    7   31 1  
    17   34    8 1  
    18    8   35 1  
    19   36    9 2  
    20    9   37 1  
    21   30   10 1  
    22   10   33 1  
    23   10   34 1  
    24   34   11 1  
    25   11   36 1  
    26   11   38 1  
    27   12   32 1  
    28   29   14 1  
    29   17   16 1  
    30   17   18 1  
    31   17   20 1  
    32   19   20 2  
    33   19   21 1  
    34   21   22 ar 
    35   21   27 ar 
    36   22   23 ar 
    37   23   25 ar 
    38   25   24 1  
    39   25   26 ar 
    40   26   27 ar 
    41   30   31 1  
    42   37   38 2  
    43   37   39 1  
    44   39   40 ar 
    45   39   44 ar 
    46   40   41 ar 
    47   41   42 ar 
    48   42   43 ar 
    49   42   45 1  
    50   43   44 ar 
    51    1   46 1  
    52    1   47 1  
    53    2   48 1  
    54    4   49 1  
    55    6   50 1  
    56    7   51 1  
    57    8   52 1  
    58   10   53 1  
    59   12   54 1  
    60   12   55 1  
    61   13   56 1  
    62   15   57 1  
    63   16   58 1  
    64   20   59 1  
    65   22   60 1  
    66   23   61 1  
    67   26   62 1  
    68   27   63 1  
    69   28   64 1  
    70   29   65 1  
    71   30   66 1  
    72   32   67 1  
    73   33   68 1  
    74   34   69 1  
    75   35   70 1  
    76   38   71 1  
    77   40   72 1  
    78   41   73 1  
    79   43   74 1  
    80   44   75 1  
@<TRIPOS>SUBSTRUCTURE
     1 5KS         1

