### 
### Created by X-TOOL on Mon Sep 10 21:13:24 2018
### 

@<TRIPOS>MOLECULE
5e8f_ligand
   87    86     1     0     0
SMALL
GAST_HUCK


@<TRIPOS>ATOM
      1 N           9.8770  -21.9650    7.6090 N.4       1 LYS         0.2379
      2 CA          9.8680  -21.2400    8.9360 C.3       1 LYS         0.0650
      3 C           9.4100  -19.7770    8.8280 C.2       1 LYS         0.2268
      4 O          10.1120  -18.9250    8.2710 O.2       1 LYS        -0.3907
      5 CB         11.2570  -21.2150    9.5790 C.3       1 LYS         0.0080
      6 CG         12.0050  -22.5270    9.7170 C.3       1 LYS        -0.0410
      7 CD         11.1240  -23.6920   10.0460 C.3       1 LYS        -0.0123
      8 CE         11.9710  -24.9040   10.4220 C.3       1 LYS        -0.0354
      9 NZ         11.0490  -25.9410   10.9690 N.4       1 LYS         0.2185
     10 N           8.2840  -19.4630    9.4330 N.am      1 SER        -0.2589
     11 CA          7.7740  -18.0790    9.4530 C.3       1 SER         0.1540
     12 C           8.3250  -17.2810   10.6420 C.2       1 SER         0.2062
     13 O           8.3780  -17.7990   11.7530 O.2       1 SER        -0.3943
     14 CB          6.2470  -18.0760    9.5690 C.3       1 SER         0.0843
     15 OG          5.7830  -16.7440    9.6200 O.3       1 SER        -0.3903
     16 N           8.6710  -16.0150   10.3770 N.am      1 LYS        -0.2637
     17 CA          9.0720  -15.0570   11.4020 C.3       1 LYS         0.1310
     18 C           7.9670  -14.1270   11.9010 C.2       1 LYS         0.2040
     19 O           8.1900  -13.3390   12.8400 O.2       1 LYS        -0.3944
     20 CB         10.2230  -14.1880   10.8830 C.3       1 LYS        -0.0122
     21 CG         11.4910  -14.9390   10.5380 C.3       1 LYS        -0.0440
     22 CD         12.2410  -14.1670    9.4390 C.3       1 LYS        -0.0124
     23 CE         13.0480  -15.1090    8.5490 C.3       1 LYS        -0.0354
     24 NZ         14.3330  -15.5460    9.1630 N.4       1 LYS         0.2185
     25 N           6.7950  -14.2130   11.2780 N.am      1 THR        -0.2613
     26 CA          5.6770  -13.2830   11.5450 C.3       1 THR         0.1565
     27 C           4.4340  -14.0430   11.9800 C.2       1 THR         0.2066
     28 O           3.3150  -13.5320   12.0770 O.2       1 THR        -0.3943
     29 CB          5.3430  -12.4940   10.2880 C.3       1 THR         0.0924
     30 OG1         5.0510  -13.4190    9.2240 O.3       1 THR        -0.3874
     31 CG2         6.5790  -11.6540    9.9110 C.3       1 THR        -0.0346
     32 N           4.6080  -15.7400   12.0060 N.am      1 CMT        -0.2615
     33 CA          3.4580  -16.4510   12.4920 C.3       1 CMT         0.1509
     34 C           4.0930  -17.5750   13.2990 C.2       1 CMT         0.2601
     35 O           4.9010  -18.3410   12.8030 O.2       1 CMT        -0.3678
     36 CB          2.6770  -16.9210   11.2700 C.3       1 CMT         0.0324
     37 SG          1.5110  -18.2380   11.7300 S.3       1 CMT        -0.1734
     38 OXT         3.7840  -17.5690   14.5840 O.3       1 CMT        -0.2784
     39 C1          4.1930  -18.7870   15.2010 C.3       1 CMT         0.0658
     40 H1         10.1851  -22.9148    7.7471 H         1 LYS         0.2015
     41 H2         10.5051  -21.4970    6.9746 H         1 LYS         0.2015
     42 H3          8.9468  -21.9666    7.2207 H         1 LYS         0.2015
     43 H4          9.1762  -21.7758    9.6025 H         1 LYS         0.1098
     44 H5         11.1412  -20.7974   10.5900 H         1 LYS         0.0346
     45 H6         11.8845  -20.5436    8.9745 H         1 LYS         0.0346
     46 H7         12.7507  -22.4187   10.5184 H         1 LYS         0.0270
     47 H8         12.5165  -22.7365    8.7660 H         1 LYS         0.0270
     48 H9         10.5056  -23.9386    9.1703 H         1 LYS         0.0317
     49 H10        10.4727  -23.4274   10.8921 H         1 LYS         0.0317
     50 H11        12.7135  -24.6222   11.1831 H         1 LYS         0.0813
     51 H12        12.4876  -25.2923    9.5319 H         1 LYS         0.0813
     52 H13        11.5787  -26.7584   11.2283 H         1 LYS         0.1994
     53 H14        10.3691  -26.1898   10.2676 H         1 LYS         0.1994
     54 H15        10.5761  -25.5757   11.7808 H         1 LYS         0.1994
     55 H16         7.7606  -20.1815    9.8911 H         1 SER         0.1885
     56 H17         8.0713  -17.5831    8.5173 H         1 SER         0.0823
     57 H18         5.9476  -18.6042   10.4863 H         1 SER         0.0606
     58 H19         5.8116  -18.5830    8.6953 H         1 SER         0.0606
     59 H20         6.0423  -16.2889    8.8274 H         1 SER         0.2097
     60 H21         8.6537  -15.7094    9.4250 H         1 LYS         0.1883
     61 H22         9.4311  -15.6370   12.2649 H         1 LYS         0.0800
     62 H23        10.4666  -13.4468   11.6584 H         1 LYS         0.0312
     63 H24         9.8767  -13.6701    9.9765 H         1 LYS         0.0312
     64 H25        11.2372  -15.9458   10.1749 H         1 LYS         0.0269
     65 H26        12.1269  -15.0210   11.4318 H         1 LYS         0.0269
     66 H27        12.9253  -13.4466    9.9109 H         1 LYS         0.0317
     67 H28        11.5105  -13.6268    8.8189 H         1 LYS         0.0317
     68 H29        13.2711  -14.5910    7.6046 H         1 LYS         0.0813
     69 H30        12.4388  -16.0013    8.3427 H         1 LYS         0.0813
     70 H31        14.8158  -16.1629    8.5286 H         1 LYS         0.1994
     71 H32        14.1450  -16.0316   10.0260 H         1 LYS         0.1994
     72 H33        14.9077  -14.7392    9.3497 H         1 LYS         0.1994
     73 H34         6.6645  -14.9370   10.6006 H         1 THR         0.1884
     74 H35         5.9747  -12.5879   12.3439 H         1 THR         0.0826
     75 H36         4.4778  -11.8386   10.4663 H         1 THR         0.0639
     76 H37         5.8093  -13.9694    9.0674 H         1 THR         0.2101
     77 H38         6.3637  -11.0721    9.0027 H         1 THR         0.0257
     78 H39         7.4332  -12.3216    9.7248 H         1 THR         0.0257
     79 H40         6.8223  -10.9687   10.7363 H         1 THR         0.0257
     80 H41         5.4428  -16.2024   11.7072 H         1 CMT         0.1885
     81 H42         2.8163  -15.8250   13.1295 H         1 CMT         0.0825
     82 H43         3.3800  -17.3064   10.5169 H         1 CMT         0.0423
     83 H44         2.1175  -16.0725   10.8492 H         1 CMT         0.0423
     84 H45         1.0036  -18.5368   10.9118 H         1 CMT         0.1019
     85 H46         3.9282  -18.7642   16.2684 H         1 CMT         0.0577
     86 H47         5.2817  -18.9038   15.0957 H         1 CMT         0.0577
     87 H48         3.6847  -19.6329   14.7151 H         1 CMT         0.0577
@<TRIPOS>BOND
     1    1    2 1  
     2    2    3 1  
     3    2    5 1  
     4    3    4 2  
     5    3   10 am 
     6    5    6 1  
     7    6    7 1  
     8    7    8 1  
     9    8    9 1  
    10   10   11 1  
    11   11   12 1  
    12   11   14 1  
    13   12   13 2  
    14   12   16 am 
    15   14   15 1  
    16   16   17 1  
    17   17   18 1  
    18   17   20 1  
    19   18   19 2  
    20   18   25 am 
    21   20   21 1  
    22   21   22 1  
    23   22   23 1  
    24   23   24 1  
    25   25   26 1  
    26   26   27 1  
    27   26   29 1  
    28   27   28 2  
    29   27   32 am 
    30   29   30 1  
    31   29   31 1  
    32   32   33 1  
    33   33   34 1  
    34   33   36 1  
    35   34   35 2  
    36   34   38 1  
    37   36   37 1  
    38   38   39 1  
    39    1   40 1  
    40    1   41 1  
    41    1   42 1  
    42    2   43 1  
    43    5   44 1  
    44    5   45 1  
    45    6   46 1  
    46    6   47 1  
    47    7   48 1  
    48    7   49 1  
    49    8   50 1  
    50    8   51 1  
    51    9   52 1  
    52    9   53 1  
    53    9   54 1  
    54   10   55 1  
    55   11   56 1  
    56   14   57 1  
    57   14   58 1  
    58   15   59 1  
    59   16   60 1  
    60   17   61 1  
    61   20   62 1  
    62   20   63 1  
    63   21   64 1  
    64   21   65 1  
    65   22   66 1  
    66   22   67 1  
    67   23   68 1  
    68   23   69 1  
    69   24   70 1  
    70   24   71 1  
    71   24   72 1  
    72   25   73 1  
    73   26   74 1  
    74   29   75 1  
    75   30   76 1  
    76   31   77 1  
    77   31   78 1  
    78   31   79 1  
    79   32   80 1  
    80   33   81 1  
    81   36   82 1  
    82   36   83 1  
    83   37   84 1  
    84   39   85 1  
    85   39   86 1  
    86   39   87 1  
@<TRIPOS>SUBSTRUCTURE
     1 LYS         1

