### 
### Created by X-TOOL on Mon Sep 10 21:13:25 2018
### 

@<TRIPOS>MOLECULE
5e8r_ligand
   48    49     1     0     0
SMALL
GAST_HUCK


@<TRIPOS>ATOM
      1 C4        -31.8310   16.0280   -8.3520 C.ar      1 5L6        -0.0372
      2 C5        -32.2750   17.1250   -7.6390 C.ar      1 5L6        -0.0706
      3 C6        -29.5620   16.6170   -7.8300 C.ar      1 5L6        -0.0372
      4 N1        -31.1830   18.0950   -2.7350 N.4       1 5L6         0.2438
      5 C7        -30.0140   17.7160   -7.1220 C.ar      1 5L6        -0.0706
      6 C8        -31.3770   17.9730   -6.9990 C.ar      1 5L6        -0.0521
      7 N2        -28.2150   16.9100   -0.7180 N.4       1 5L6         0.2223
      8 C9        -31.8680   19.0930   -6.1590 C.2       1 5L6        -0.0339
      9 C10       -32.8170   20.0040   -6.5700 C.2       1 5L6         0.0203
     10 C11       -32.2790   20.5260   -4.4640 C.2       1 5L6         0.0160
     11 C12       -31.5020   19.4320   -4.7700 C.2       1 5L6        -0.0153
     12 C13       -30.5110   18.7670   -3.8520 C.3       1 5L6        -0.0163
     13 C14       -31.9930   16.9480   -3.1970 C.3       1 5L6        -0.0421
     14 C15       -30.3800   17.8030   -1.5340 C.3       1 5L6         0.0097
     15 C16       -29.1290   17.0020   -1.8510 C.3       1 5L6         0.0057
     16 N         -33.0550   20.8620   -5.5360 N.pl3     1 5L6        -0.3002
     17 C3        -30.4740   15.7700   -8.4460 C.ar      1 5L6         0.0875
     18 O         -30.1750   14.6400   -9.1770 O.3       1 5L6        -0.3177
     19 C1        -28.9680   14.5970  -10.0010 C.3       1 5L6         0.0749
     20 C2        -29.0640   15.6610  -11.0520 C.3       1 5L6        -0.0346
     21 C         -28.8590   13.2080  -10.5660 C.3       1 5L6        -0.0346
     22 H1        -32.5437   15.3706   -8.8368 H         1 5L6         0.0534
     23 H2        -33.3381   17.3277   -7.5774 H         1 5L6         0.0549
     24 H3        -28.4991   16.4175   -7.9038 H         1 5L6         0.0534
     25 H4        -31.8563   18.7721   -2.4121 H         1 5L6         0.2041
     26 H5        -29.2987   18.3851   -6.6574 H         1 5L6         0.0549
     27 H6        -27.4056   16.3704   -0.9822 H         1 5L6         0.1996
     28 H7        -28.6812   16.4601    0.0542 H         1 5L6         0.1996
     29 H8        -27.9264   17.8358   -0.4430 H         1 5L6         0.1996
     30 H9        -33.2936   20.0339   -7.5487 H         1 5L6         0.0819
     31 H10       -32.2754   21.0469   -3.5077 H         1 5L6         0.0696
     32 H11       -29.9368   18.0232   -4.4239 H         1 5L6         0.0903
     33 H12       -29.8268   19.5295   -3.4515 H         1 5L6         0.0903
     34 H13       -32.4798   16.4714   -2.3334 H         1 5L6         0.0778
     35 H14       -31.3417   16.2179   -3.6997 H         1 5L6         0.0778
     36 H15       -32.7604   17.3011   -3.9016 H         1 5L6         0.0778
     37 H16       -30.9974   17.2281   -0.8281 H         1 5L6         0.0868
     38 H17       -30.0814   18.7543   -1.0695 H         1 5L6         0.0868
     39 H18       -29.4279   15.9851   -2.1450 H         1 5L6         0.0866
     40 H19       -28.6042   17.4863   -2.6876 H         1 5L6         0.0866
     41 H20       -33.7214   21.6470   -5.5606 H         1 5L6         0.2314
     42 H21       -28.0840   14.7979   -9.3780 H         1 5L6         0.0643
     43 H22       -28.1608   15.6391  -11.6795 H         1 5L6         0.0258
     44 H23       -29.1517   16.6458  -10.5699 H         1 5L6         0.0258
     45 H24       -29.9499   15.4790  -11.6782 H         1 5L6         0.0258
     46 H25       -27.9588   13.1373  -11.1942 H         1 5L6         0.0258
     47 H26       -29.7488   12.9887  -11.1744 H         1 5L6         0.0258
     48 H27       -28.7895   12.4817   -9.7428 H         1 5L6         0.0258
@<TRIPOS>BOND
     1    2    1 ar 
     2    1   17 ar 
     3    6    2 ar 
     4    5    3 ar 
     5    3   17 ar 
     6    4   12 1  
     7    4   13 1  
     8   14    4 1  
     9    6    5 ar 
    10    8    6 1  
    11   15    7 1  
    12    8    9 2  
    13   11    8 1  
    14   16    9 1  
    15   11   10 2  
    16   10   16 1  
    17   12   11 1  
    18   14   15 1  
    19   17   18 1  
    20   18   19 1  
    21   19   20 1  
    22   19   21 1  
    23    1   22 1  
    24    2   23 1  
    25    3   24 1  
    26    4   25 1  
    27    5   26 1  
    28    7   27 1  
    29    7   28 1  
    30    7   29 1  
    31    9   30 1  
    32   10   31 1  
    33   12   32 1  
    34   12   33 1  
    35   13   34 1  
    36   13   35 1  
    37   13   36 1  
    38   14   37 1  
    39   14   38 1  
    40   15   39 1  
    41   15   40 1  
    42   16   41 1  
    43   19   42 1  
    44   20   43 1  
    45   20   44 1  
    46   20   45 1  
    47   21   46 1  
    48   21   47 1  
    49   21   48 1  
@<TRIPOS>SUBSTRUCTURE
     1 5L6         1

