### 
### Created by X-TOOL on Mon Sep 10 21:13:26 2018
### 

@<TRIPOS>MOLECULE
5e8w_ligand
   62    69     1     0     0
SMALL
GAST_HUCK


@<TRIPOS>ATOM
      1 O4          1.0780    8.8460    7.6060 O.3       1 STU        -0.3149
      2 C25         0.4080    7.7120    7.0570 C.3       1 STU         0.1668
      3 C24         0.1930    6.5830    8.0550 C.3       1 STU         0.0455
      4 C23         0.8610    6.9450    9.3920 C.3       1 STU         0.0141
      5 C22         2.3110    7.3410    9.1340 C.3       1 STU         0.1556
      6 C21         2.2640    8.7150    8.3950 C.3       1 STU         0.2020
      7 C26         2.1040    9.8950    9.3340 C.3       1 STU        -0.0059
      8 N2          3.4180    8.8230    7.4800 N.pl3     1 STU        -0.2292
      9 C18         3.3710    8.3910    6.1580 C.ar      1 STU         0.0978
     10 C19         2.3310    7.7870    5.3980 C.ar      1 STU         0.0952
     11 C6          2.5530    7.4300    4.0420 C.ar      1 STU        -0.0018
     12 C7          3.8210    7.6660    3.4860 C.ar      1 STU         0.0320
     13 C10         4.8280    8.2560    4.2350 C.ar      1 STU        -0.0168
     14 C11         4.6230    8.6240    5.5590 C.ar      1 STU         0.0011
     15 C12         5.4720    9.2110    6.5610 C.ar      1 STU        -0.0075
     16 C17         4.7140    9.3060    7.7420 C.ar      1 STU         0.0695
     17 C16         5.3000    9.7240    8.9380 C.ar      1 STU        -0.0408
     18 C15         6.6410   10.0800    8.9270 C.ar      1 STU        -0.0739
     19 C14         7.3820   10.0310    7.7580 C.ar      1 STU        -0.0759
     20 C13         6.8090    9.5950    6.5800 C.ar      1 STU        -0.0696
     21 C9          6.0640    8.3820    3.4040 C.3       1 STU         0.0603
     22 N1          5.6330    7.7710    2.1570 N.am      1 STU        -0.2790
     23 C8          4.3440    7.3740    2.1570 C.2       1 STU         0.1871
     24 O5          3.7500    6.8990    1.1980 O.2       1 STU        -0.3964
     25 C5          1.3180    6.8340    3.5730 C.ar      1 STU        -0.0072
     26 C20         0.4190    6.8400    4.6650 C.ar      1 STU         0.0681
     27 C1         -0.8690    6.3410    4.5360 C.ar      1 STU        -0.0404
     28 C2         -1.2610    5.8350    3.2980 C.ar      1 STU        -0.0732
     29 C3         -0.4020    5.8550    2.2080 C.ar      1 STU        -0.0750
     30 C4          0.8780    6.3410    2.3360 C.ar      1 STU        -0.0685
     31 N3          1.0340    7.4280    5.7780 N.pl3     1 STU        -0.2376
     32 O6          2.8910    6.2760    8.3540 O.3       1 STU        -0.3686
     33 C27         4.2810    6.0140    8.5570 C.3       1 STU         0.0373
     34 N4          0.7920    5.9320   10.4450 N.4       1 STU         0.2291
     35 C28         1.1230    6.4410   11.8020 C.3       1 STU        -0.0445
     36 H1         -0.6113    8.0443    6.8108 H         1 STU         0.0933
     37 H2          0.6378    5.6569    7.6621 H         1 STU         0.0372
     38 H3         -0.8853    6.4337    8.2127 H         1 STU         0.0372
     39 H4          0.3338    7.8301    9.7777 H         1 STU         0.0880
     40 H5          2.8657    7.4495   10.0777 H         1 STU         0.0710
     41 H6          2.9602    9.9336   10.0235 H         1 STU         0.0284
     42 H7          1.1740    9.7815    9.9104 H         1 STU         0.0284
     43 H8          2.0618   10.8258    8.7493 H         1 STU         0.0284
     44 H9          4.7212    9.7694    9.8534 H         1 STU         0.0538
     45 H10         7.1157   10.4013    9.8470 H         1 STU         0.0561
     46 H11         8.4216   10.3378    7.7680 H         1 STU         0.0516
     47 H12         7.3995    9.5520    5.6720 H         1 STU         0.0566
     48 H13         6.9069    7.8341    3.8505 H         1 STU         0.0679
     49 H14         6.3465    9.4353    3.2597 H         1 STU         0.0679
     50 H15         6.2384    7.6554    1.3695 H         1 STU         0.1863
     51 H16        -1.5532    6.3446    5.3768 H         1 STU         0.0539
     52 H17        -2.2552    5.4181    3.1843 H         1 STU         0.0568
     53 H18        -0.7429    5.4845    1.2480 H         1 STU         0.0516
     54 H19         1.5458    6.3430    1.4822 H         1 STU         0.0576
     55 H20         4.5966    5.1848    7.9067 H         1 STU         0.0524
     56 H21         4.4529    5.7410    9.6086 H         1 STU         0.0524
     57 H22         4.8635    6.9143    8.3119 H         1 STU         0.0524
     58 H23         1.4401    5.1944   10.2172 H         1 STU         0.2014
     59 H24        -0.1451    5.5612   10.4663 H         1 STU         0.2014
     60 H25         1.0474    5.6199   12.5301 H         1 STU         0.0777
     61 H26         0.4183    7.2400   12.0759 H         1 STU         0.0777
     62 H27         2.1482    6.8396   11.8041 H         1 STU         0.0777
@<TRIPOS>BOND
     1    1    2 1  
     2    1    6 1  
     3    2    3 1  
     4    2   31 1  
     5    3    4 1  
     6    4    5 1  
     7    4   34 1  
     8    5    6 1  
     9    5   32 1  
    10    6    7 1  
    11    6    8 1  
    12    8    9 1  
    13    8   16 1  
    14    9   10 ar 
    15    9   14 ar 
    16   10   11 ar 
    17   10   31 1  
    18   11   12 ar 
    19   11   25 1  
    20   12   13 ar 
    21   12   23 1  
    22   13   14 ar 
    23   13   21 1  
    24   14   15 1  
    25   15   16 ar 
    26   15   20 ar 
    27   16   17 ar 
    28   17   18 ar 
    29   18   19 ar 
    30   19   20 ar 
    31   21   22 1  
    32   22   23 am 
    33   23   24 2  
    34   25   26 ar 
    35   25   30 ar 
    36   26   27 ar 
    37   26   31 1  
    38   27   28 ar 
    39   28   29 ar 
    40   29   30 ar 
    41   32   33 1  
    42   34   35 1  
    43    2   36 1  
    44    3   37 1  
    45    3   38 1  
    46    4   39 1  
    47    5   40 1  
    48    7   41 1  
    49    7   42 1  
    50    7   43 1  
    51   17   44 1  
    52   18   45 1  
    53   19   46 1  
    54   20   47 1  
    55   21   48 1  
    56   21   49 1  
    57   22   50 1  
    58   27   51 1  
    59   28   52 1  
    60   29   53 1  
    61   30   54 1  
    62   33   55 1  
    63   33   56 1  
    64   33   57 1  
    65   34   58 1  
    66   34   59 1  
    67   35   60 1  
    68   35   61 1  
    69   35   62 1  
@<TRIPOS>SUBSTRUCTURE
     1 STU         1

