### 
### Created by X-TOOL on Mon Sep 10 21:13:27 2018
### 

@<TRIPOS>MOLECULE
5e8z_ligand
   55    58     1     0     0
SMALL
GAST_HUCK


@<TRIPOS>ATOM
      1 C13        -2.0620    6.5970    4.7880 C.ar      1 5L4        -0.0581
      2 C18         3.7950    8.3590    7.4390 C.ar      1 5L4         0.1132
      3 C17        -4.1900    5.3120    4.3480 C.3       1 5L4         0.0049
      4 C16        -0.9860    5.8200    2.3780 C.ar      1 5L4        -0.0581
      5 C15        -2.2920    5.4920    2.7010 C.ar      1 5L4        -0.0581
      6 C19         5.0760    8.7950    7.7870 C.ar      1 5L4         0.0164
      7 C21         4.4640    9.2460    9.9380 C.ar      1 5L4        -0.0201
      8 C22         3.1780    8.7920    9.7330 C.ar      1 5L4        -0.0296
      9 C23         2.8370    8.3150    8.4680 C.ar      1 5L4         0.0846
     10 C24        -5.3030    6.3180    4.1240 C.3       1 5L4         0.0540
     11 C11        -0.1770    6.5320    3.2650 C.ar      1 5L4        -0.0067
     12 C12        -0.7620    6.9470    4.4630 C.ar      1 5L4        -0.0581
     13 C27         1.6740    6.2020    8.1880 C.3       1 5L4         0.0504
     14 C1          1.8360    6.6170    1.7040 C.ar      1 5L4         0.0363
     15 C2          1.2570    6.8030    2.9740 C.ar      1 5L4         0.0695
     16 N3          2.0180    7.2110    4.0040 N.ar      1 5L4        -0.2623
     17 C4          3.3270    7.4620    3.7940 C.ar      1 5L4         0.1735
     18 C5          3.9050    7.2760    2.4980 C.ar      1 5L4         0.1604
     19 N6          3.1370    6.8350    1.4710 N.ar      1 5L4        -0.2545
     20 N7          5.1920    7.5120    2.2440 N.pl3     1 5L4        -0.3117
     21 C8          4.0930    7.9670    4.9900 C.2       1 5L4         0.2505
     22 O9          5.2720    8.2710    4.9010 O.2       1 5L4        -0.3718
     23 N10         3.3830    8.0290    6.1290 N.am      1 5L4        -0.2298
     24 C14        -2.8380    5.8470    3.9190 C.ar      1 5L4        -0.0392
     25 N20         5.4150    9.2330    9.0040 N.ar      1 5L4        -0.3330
     26 O25        -6.5630    5.7570    4.5070 O.3       1 5L4        -0.3929
     27 N26         1.6070    7.6640    8.2460 N.pl3     1 5L4        -0.3011
     28 C28         0.3840    5.6610    7.6330 C.3       1 5L4         0.0674
     29 O29        -0.7400    6.1170    8.3810 O.3       1 5L4        -0.3759
     30 C30        -0.8040    7.5250    8.3700 C.3       1 5L4         0.0674
     31 C31         0.4280    8.1280    8.9810 C.3       1 5L4         0.0504
     32 H1         -2.4788    6.9147    5.7369 H         1 5L4         0.0562
     33 H2         -4.4116    4.4039    3.7681 H         1 5L4         0.0453
     34 H3         -4.1485    5.0625    5.4185 H         1 5L4         0.0453
     35 H4         -0.5841    5.5179    1.4176 H         1 5L4         0.0615
     36 H5         -2.8966    4.9469    1.9852 H         1 5L4         0.0562
     37 H6          5.8437    8.7770    7.0219 H         1 5L4         0.0647
     38 H7          4.7165    9.6367   10.9171 H         1 5L4         0.0652
     39 H8          2.4499    8.8057   10.5360 H         1 5L4         0.0554
     40 H9         -5.3362    6.5917    3.0591 H         1 5L4         0.0580
     41 H10        -5.1072    7.2165    4.7276 H         1 5L4         0.0580
     42 H11        -0.1873    7.5551    5.1522 H         1 5L4         0.0615
     43 H12         1.8337    5.8020    9.2002 H         1 5L4         0.0537
     44 H13         2.5081    5.8989    7.5381 H         1 5L4         0.0537
     45 H14         1.2067    6.2857    0.8859 H         1 5L4         0.0913
     46 H15         5.5652    7.3643    1.2954 H         1 5L4         0.1816
     47 H16         5.8133    7.8421    2.9963 H         1 5L4         0.1816
     48 H17         2.4125    7.8071    6.0346 H         1 5L4         0.2241
     49 H18        -7.2504    6.3965    4.3618 H         1 5L4         0.2096
     50 H19         0.4136    4.5619    7.6671 H         1 5L4         0.0579
     51 H20         0.2770    5.9928    6.5897 H         1 5L4         0.0579
     52 H21        -1.6847    7.8489    8.9439 H         1 5L4         0.0579
     53 H22        -0.8958    7.8722    7.3303 H         1 5L4         0.0579
     54 H23         0.3674    9.2249    8.9245 H         1 5L4         0.0537
     55 H24         0.5055    7.8187   10.0338 H         1 5L4         0.0537
@<TRIPOS>BOND
     1   12    1 ar 
     2    1   24 ar 
     3    2    6 ar 
     4    2    9 ar 
     5   23    2 1  
     6    3   10 1  
     7   24    3 1  
     8    4    5 ar 
     9   11    4 ar 
    10    5   24 ar 
    11    6   25 ar 
    12    8    7 ar 
    13   25    7 ar 
    14    9    8 ar 
    15    9   27 1  
    16   10   26 1  
    17   11   12 ar 
    18   15   11 1  
    19   27   13 1  
    20   13   28 1  
    21   15   14 ar 
    22   19   14 ar 
    23   16   15 ar 
    24   17   16 ar 
    25   17   18 ar 
    26   21   17 1  
    27   18   19 ar 
    28   18   20 1  
    29   21   22 2  
    30   21   23 am 
    31   27   31 1  
    32   28   29 1  
    33   29   30 1  
    34   30   31 1  
    35    1   32 1  
    36    3   33 1  
    37    3   34 1  
    38    4   35 1  
    39    5   36 1  
    40    6   37 1  
    41    7   38 1  
    42    8   39 1  
    43   10   40 1  
    44   10   41 1  
    45   12   42 1  
    46   13   43 1  
    47   13   44 1  
    48   14   45 1  
    49   20   46 1  
    50   20   47 1  
    51   23   48 1  
    52   26   49 1  
    53   28   50 1  
    54   28   51 1  
    55   30   52 1  
    56   30   53 1  
    57   31   54 1  
    58   31   55 1  
@<TRIPOS>SUBSTRUCTURE
     1 5L4         1

