### 
### Created by X-TOOL on Mon Sep 10 21:13:27 2018
### 

@<TRIPOS>MOLECULE
5e90_ligand
   55    58     1     0     0
SMALL
GAST_HUCK


@<TRIPOS>ATOM
      1 C13        -1.9910    6.7580    4.7900 C.ar      1 5L4        -0.0581
      2 C18         3.7830    8.5130    7.4410 C.ar      1 5L4         0.1132
      3 C17        -4.1230    5.4610    4.4210 C.3       1 5L4         0.0049
      4 C16        -0.9750    5.9640    2.3540 C.ar      1 5L4        -0.0581
      5 C15        -2.2850    5.6450    2.7090 C.ar      1 5L4        -0.0581
      6 C19         5.0360    9.0810    7.7350 C.ar      1 5L4         0.0164
      7 C21         4.5220    9.2820    9.9640 C.ar      1 5L4        -0.0201
      8 C22         3.2750    8.7010    9.8040 C.ar      1 5L4        -0.0296
      9 C23         2.8980    8.2970    8.5160 C.ar      1 5L4         0.0846
     10 C24        -5.2900    6.3740    4.1140 C.3       1 5L4         0.0540
     11 C11        -0.1430    6.6830    3.2210 C.ar      1 5L4        -0.0067
     12 C12        -0.7020    7.1160    4.4250 C.ar      1 5L4        -0.0581
     13 C27         0.5360    7.8830    9.1470 C.3       1 5L4         0.0504
     14 C1          1.8970    6.6370    1.6840 C.ar      1 5L4         0.0363
     15 C2          1.3040    6.8870    2.9370 C.ar      1 5L4         0.0695
     16 N3          2.0620    7.3200    3.9670 N.ar      1 5L4        -0.2623
     17 C4          3.3860    7.5100    3.7770 C.ar      1 5L4         0.1735
     18 C5          3.9760    7.2540    2.4900 C.ar      1 5L4         0.1604
     19 N6          3.2040    6.8100    1.4700 N.ar      1 5L4        -0.2545
     20 N7          5.2640    7.4730    2.2310 N.pl3     1 5L4        -0.3117
     21 C8          4.1480    7.9630    4.9960 C.2       1 5L4         0.2505
     22 O9          5.3560    8.1400    4.9470 O.2       1 5L4        -0.3718
     23 N10         3.4120    8.1010    6.1260 N.am      1 5L4        -0.2298
     24 C14        -2.7930    5.9960    3.9460 C.ar      1 5L4        -0.0392
     25 N20         5.3990    9.4620    8.9650 N.ar      1 5L4        -0.3330
     26 O25        -6.4920    5.8300    4.6250 O.3       1 5L4        -0.3929
     27 N26         1.6880    7.5850    8.2920 N.pl3     1 5L4        -0.3011
     28 C28        -0.7190    7.3980    8.4680 C.3       1 5L4         0.0674
     29 O29        -0.6480    5.9890    8.1930 O.3       1 5L4        -0.3759
     30 C30         0.5250    5.6410    7.4020 C.3       1 5L4         0.0674
     31 C31         1.8020    6.1450    8.0320 C.3       1 5L4         0.0504
     32 H1         -2.3807    7.0774    5.7498 H         1 5L4         0.0562
     33 H2         -4.3021    4.4920    3.9323 H         1 5L4         0.0453
     34 H3         -4.0709    5.3182    5.5104 H         1 5L4         0.0453
     35 H4         -0.5936    5.6497    1.3892 H         1 5L4         0.0615
     36 H5         -2.9147    5.1138    2.0045 H         1 5L4         0.0562
     37 H6          5.7427    9.2168    6.9244 H         1 5L4         0.0647
     38 H7          4.8066    9.6113   10.9568 H         1 5L4         0.0652
     39 H8          2.6107    8.5629   10.6494 H         1 5L4         0.0554
     40 H9         -5.3806    6.4919    3.0241 H         1 5L4         0.0580
     41 H10        -5.1123    7.3565    4.5756 H         1 5L4         0.0580
     42 H11        -0.1171    7.7441    5.0871 H         1 5L4         0.0615
     43 H12         0.4700    8.9686    9.3114 H         1 5L4         0.0537
     44 H13         0.6528    7.3721   10.1141 H         1 5L4         0.0537
     45 H14         1.2726    6.2932    0.8673 H         1 5L4         0.0913
     46 H15         5.6418    7.2745    1.2936 H         1 5L4         0.1816
     47 H16         5.8822    7.8408    2.9681 H         1 5L4         0.1816
     48 H17         2.4435    7.8756    6.0200 H         1 5L4         0.2241
     49 H18        -7.2134    6.4145    4.4240 H         1 5L4         0.2096
     50 H19        -0.8484    7.9426    7.5211 H         1 5L4         0.0579
     51 H20        -1.5804    7.5929    9.1238 H         1 5L4         0.0579
     52 H21         0.4232    6.0858    6.4011 H         1 5L4         0.0579
     53 H22         0.5811    4.5461    7.3127 H         1 5L4         0.0579
     54 H23         1.9767    5.6146    8.9797 H         1 5L4         0.0537
     55 H24         2.6443    5.9620    7.3486 H         1 5L4         0.0537
@<TRIPOS>BOND
     1   12    1 ar 
     2    1   24 ar 
     3    2    6 ar 
     4    2    9 ar 
     5   23    2 1  
     6    3   10 1  
     7   24    3 1  
     8    4    5 ar 
     9   11    4 ar 
    10    5   24 ar 
    11    6   25 ar 
    12    8    7 ar 
    13   25    7 ar 
    14    9    8 ar 
    15    9   27 1  
    16   10   26 1  
    17   11   12 ar 
    18   15   11 1  
    19   27   13 1  
    20   13   28 1  
    21   15   14 ar 
    22   19   14 ar 
    23   16   15 ar 
    24   17   16 ar 
    25   17   18 ar 
    26   21   17 1  
    27   18   19 ar 
    28   18   20 1  
    29   21   22 2  
    30   21   23 am 
    31   27   31 1  
    32   28   29 1  
    33   29   30 1  
    34   30   31 1  
    35    1   32 1  
    36    3   33 1  
    37    3   34 1  
    38    4   35 1  
    39    5   36 1  
    40    6   37 1  
    41    7   38 1  
    42    8   39 1  
    43   10   40 1  
    44   10   41 1  
    45   12   42 1  
    46   13   43 1  
    47   13   44 1  
    48   14   45 1  
    49   20   46 1  
    50   20   47 1  
    51   23   48 1  
    52   26   49 1  
    53   28   50 1  
    54   28   51 1  
    55   30   52 1  
    56   30   53 1  
    57   31   54 1  
    58   31   55 1  
@<TRIPOS>SUBSTRUCTURE
     1 5L4         1

