### 
### Created by X-TOOL on Mon Sep 10 21:13:29 2018
### 

@<TRIPOS>MOLECULE
5e91_ligand
   55    58     1     0     0
SMALL
GAST_HUCK


@<TRIPOS>ATOM
      1 C13        14.1930   -1.0530    2.6290 C.ar      1 5L4        -0.0581
      2 C18        16.9160   -1.6600    8.7740 C.ar      1 5L4         0.1132
      3 C17        13.4080   -0.3770    0.3370 C.3       1 5L4         0.0049
      4 C16        11.6020   -1.2800    3.5540 C.ar      1 5L4        -0.0581
      5 C15        11.8490   -0.8870    2.2490 C.ar      1 5L4        -0.0581
      6 C19        17.3420   -2.0960   10.0410 C.ar      1 5L4         0.0164
      7 C21        19.4600   -1.2640    9.6930 C.ar      1 5L4        -0.0201
      8 C22        19.1260   -0.7440    8.4530 C.ar      1 5L4        -0.0296
      9 C23        17.8260   -0.9410    7.9860 C.ar      1 5L4         0.0846
     10 C24        13.6030   -1.5860   -0.5520 C.3       1 5L4         0.0540
     11 C11        12.6520   -1.5570    4.4410 C.ar      1 5L4        -0.0067
     12 C12        13.9540   -1.4640    3.9350 C.ar      1 5L4        -0.0581
     13 C27        16.5260    0.8510    6.9490 C.3       1 5L4         0.0504
     14 C1         11.1210   -2.2480    6.3480 C.ar      1 5L4         0.0363
     15 C2         12.3990   -1.9200    5.8630 C.ar      1 5L4         0.0695
     16 N3         13.4620   -1.9400    6.6970 N.ar      1 5L4        -0.2623
     17 C4         13.2610   -2.2590    7.9990 C.ar      1 5L4         0.1735
     18 C5         11.9500   -2.5930    8.4750 C.ar      1 5L4         0.1604
     19 N6         10.9100   -2.5980    7.6140 N.ar      1 5L4        -0.2545
     20 N7         11.6800   -2.8090    9.7680 N.pl3     1 5L4        -0.3117
     21 C8         14.4720   -2.2220    8.8930 C.2       1 5L4         0.2505
     22 O9         14.3900   -2.5160   10.0870 O.2       1 5L4        -0.3718
     23 N10        15.6060   -1.8450    8.2720 N.am      1 5L4        -0.2298
     24 C14        13.1460   -0.7630    1.7690 C.ar      1 5L4        -0.0392
     25 N20        18.5920   -1.9000   10.4960 N.ar      1 5L4        -0.3330
     26 O25        13.6220   -1.2300   -1.8910 O.3       1 5L4        -0.3929
     27 N26        17.3550   -0.3480    6.7930 N.pl3     1 5L4        -0.3011
     28 C28        15.6770    1.0060    5.7420 C.3       1 5L4         0.0674
     29 O29        16.4860    1.1210    4.5190 O.3       1 5L4        -0.3759
     30 C30        17.4610    0.0500    4.3620 C.3       1 5L4         0.0674
     31 C31        18.2510   -0.2730    5.6330 C.3       1 5L4         0.0504
     32 H1         15.2141   -0.9579    2.2778 H         1 5L4         0.0562
     33 H2         12.5513    0.2033   -0.0363 H         1 5L4         0.0453
     34 H3         14.3160    0.2427    0.2972 H         1 5L4         0.0453
     35 H4         10.5778   -1.3752    3.8960 H         1 5L4         0.0615
     36 H5         11.0149   -0.6724    1.5907 H         1 5L4         0.0562
     37 H6         16.6327   -2.6120   10.6780 H         1 5L4         0.0647
     38 H7         20.4824   -1.1507   10.0350 H         1 5L4         0.0652
     39 H8         19.8539   -0.1996    7.8624 H         1 5L4         0.0554
     40 H9         12.7778   -2.2929   -0.3812 H         1 5L4         0.0580
     41 H10        14.5579   -2.0683   -0.2962 H         1 5L4         0.0580
     42 H11        14.7920   -1.7175    4.5742 H         1 5L4         0.0615
     43 H12        17.1714    1.7344    7.0628 H         1 5L4         0.0537
     44 H13        15.8878    0.7460    7.8388 H         1 5L4         0.0537
     45 H14        10.2783   -2.2146    5.6669 H         1 5L4         0.0913
     46 H15        10.7216   -3.0464   10.0613 H         1 5L4         0.1816
     47 H16        12.4306   -2.7378   10.4697 H         1 5L4         0.1816
     48 H17        15.5055   -1.6660    7.2933 H         1 5L4         0.2241
     49 H18        13.7455   -2.0076   -2.4226 H         1 5L4         0.2096
     50 H19        15.0647    1.9133    5.8509 H         1 5L4         0.0579
     51 H20        15.0197    0.1285    5.6534 H         1 5L4         0.0579
     52 H21        18.1744    0.3455    3.5786 H         1 5L4         0.0579
     53 H22        16.9270   -0.8589    4.0478 H         1 5L4         0.0579
     54 H23        18.7601   -1.2398    5.5063 H         1 5L4         0.0537
     55 H24        18.9987    0.5155    5.8041 H         1 5L4         0.0537
@<TRIPOS>BOND
     1   12    1 ar 
     2    1   24 ar 
     3    2    6 ar 
     4    2    9 ar 
     5   23    2 1  
     6    3   10 1  
     7   24    3 1  
     8    4    5 ar 
     9   11    4 ar 
    10    5   24 ar 
    11    6   25 ar 
    12    8    7 ar 
    13   25    7 ar 
    14    9    8 ar 
    15    9   27 1  
    16   10   26 1  
    17   11   12 ar 
    18   15   11 1  
    19   27   13 1  
    20   13   28 1  
    21   15   14 ar 
    22   19   14 ar 
    23   16   15 ar 
    24   17   16 ar 
    25   17   18 ar 
    26   21   17 1  
    27   18   19 ar 
    28   18   20 1  
    29   21   22 2  
    30   21   23 am 
    31   27   31 1  
    32   28   29 1  
    33   29   30 1  
    34   30   31 1  
    35    1   32 1  
    36    3   33 1  
    37    3   34 1  
    38    4   35 1  
    39    5   36 1  
    40    6   37 1  
    41    7   38 1  
    42    8   39 1  
    43   10   40 1  
    44   10   41 1  
    45   12   42 1  
    46   13   43 1  
    47   13   44 1  
    48   14   45 1  
    49   20   46 1  
    50   20   47 1  
    51   23   48 1  
    52   26   49 1  
    53   28   50 1  
    54   28   51 1  
    55   30   52 1  
    56   30   53 1  
    57   31   54 1  
    58   31   55 1  
@<TRIPOS>SUBSTRUCTURE
     1 5L4         1

