### 
### Created by X-TOOL on Mon Sep 10 21:13:24 2018
### 

@<TRIPOS>MOLECULE
5ea3_ligand
   63    66     1     0     0
SMALL
GAST_HUCK


@<TRIPOS>ATOM
      1 C10        23.7380   16.9200   23.8690 C.3       1 5NK        -0.0525
      2 C15        16.0940   21.3660   22.0180 C.ar      1 5NK        -0.0491
      3 C17        18.4620   22.2800   22.0340 C.ar      1 5NK         0.1119
      4 C20        24.4820   22.6560   22.9280 C.3       1 5NK         0.0104
      5 C21        24.4060   22.7950   24.4370 C.3       1 5NK        -0.0296
      6 C24        23.0650   24.5960   22.6560 C.3       1 5NK         0.0104
      7 C26        25.7900   25.6650   25.9680 C.3       1 5NK         0.0057
      8 C28        15.5060   19.2440   20.5270 C.3       1 5NK        -0.0228
      9 C01        22.7430   17.2390   22.7210 C.3       1 5NK        -0.0110
     10 C02        22.1900   16.1330   21.8450 C.2       1 5NK        -0.0893
     11 C03        21.2370   16.4610   20.7480 C.2       1 5NK        -0.0879
     12 C04        20.8370   17.8940   20.5200 C.3       1 5NK         0.0067
     13 C05        22.3190   18.7230   22.4710 C.2       1 5NK        -0.0202
     14 C06        21.4260   19.0310   21.4390 C.2       1 5NK         0.0489
     15 N07        21.2240   20.3960   21.4510 N.pl3     1 5NK        -0.2250
     16 C08        21.9980   20.9470   22.4860 C.2       1 5NK         0.1988
     17 N09        22.6700   19.9020   23.1110 N.2       1 5NK        -0.3375
     18 C11        20.3670   21.1200   20.5300 C.3       1 5NK         0.1002
     19 C12        18.8930   21.1840   21.0420 C.ar      1 5NK         0.0777
     20 N13        17.9210   20.2170   20.5650 N.ar      1 5NK        -0.3067
     21 C14        16.5260   20.2740   21.0310 C.ar      1 5NK         0.0053
     22 C16        17.0700   22.3470   22.4980 C.ar      1 5NK        -0.0269
     23 N18        22.0880   22.3670   22.8470 N.pl3     1 5NK        -0.2836
     24 C19        23.2430   23.1760   22.3240 C.3       1 5NK         0.0498
     25 N22        24.2650   24.1830   24.8640 N.4       1 5NK         0.2391
     26 C23        23.1820   24.8970   24.1370 C.3       1 5NK        -0.0296
     27 C25        25.4670   24.8550   24.6920 C.3       1 5NK         0.0091
     28 N27        25.7140   24.8170   27.1340 N.4       1 5NK         0.2223
     29 O29        19.3910   23.2160   22.4840 O.3       1 5NK        -0.3336
     30 H1         23.9243   15.8364   23.9022 H         1 5NK         0.0262
     31 H2         23.3093   17.2479   24.8275 H         1 5NK         0.0262
     32 H3         24.6855   17.4496   23.6908 H         1 5NK         0.0262
     33 H4         15.0664   21.4116   22.3602 H         1 5NK         0.0562
     34 H5         24.6019   21.5951   22.6630 H         1 5NK         0.0339
     35 H6         25.3422   23.2279   22.5499 H         1 5NK         0.0339
     36 H7         25.3265   22.3827   24.8760 H         1 5NK         0.0815
     37 H8         23.5388   22.2243   24.8006 H         1 5NK         0.0815
     38 H9         22.0668   24.9092   22.3162 H         1 5NK         0.0339
     39 H10        23.8326   25.1758   22.1225 H         1 5NK         0.0339
     40 H11        25.0654   26.4864   26.0692 H         1 5NK         0.0866
     41 H12        26.8056   26.0798   25.8869 H         1 5NK         0.0866
     42 H13        15.9999   18.5483   19.8328 H         1 5NK         0.0397
     43 H14        14.6879   19.7628   20.0059 H         1 5NK         0.0397
     44 H15        15.0992   18.6826   21.3810 H         1 5NK         0.0397
     45 H16        21.8987   17.1098   23.4142 H         1 5NK         0.0482
     46 H17        22.4888   15.1000   22.0171 H         1 5NK         0.0477
     47 H18        20.8333   15.6709   20.1166 H         1 5NK         0.0475
     48 H19        19.7426   17.9385   20.6214 H         1 5NK         0.0501
     49 H20        21.1199   18.1424   19.4864 H         1 5NK         0.0501
     50 H21        20.3837   20.6130   19.5540 H         1 5NK         0.0774
     51 H22        20.7501   22.1450   20.4173 H         1 5NK         0.0774
     52 H23        16.7658   23.1205   23.1939 H         1 5NK         0.0620
     53 H24        21.3730   22.8015   23.4477 H         1 5NK         0.1826
     54 H25        23.2978   23.0693   21.2306 H         1 5NK         0.0556
     55 H26        24.0348   24.1845   25.8454 H         1 5NK         0.2035
     56 H27        22.2259   24.6303   24.6112 H         1 5NK         0.0815
     57 H28        23.3577   25.9772   24.2480 H         1 5NK         0.0815
     58 H29        26.2707   24.1274   24.5060 H         1 5NK         0.0868
     59 H30        25.3856   25.5387   23.8342 H         1 5NK         0.0868
     60 H31        25.9267   25.3581   27.9574 H         1 5NK         0.1996
     61 H32        26.3784   24.0641   27.0458 H         1 5NK         0.1996
     62 H33        24.7838   24.4368   27.2129 H         1 5NK         0.1996
     63 H34        20.2373   23.0340   22.0925 H         1 5NK         0.2459
@<TRIPOS>BOND
     1    9    1 1  
     2   21    2 ar 
     3   22    2 ar 
     4   19    3 ar 
     5    3   22 ar 
     6    3   29 1  
     7    5    4 1  
     8    4   24 1  
     9   25    5 1  
    10    6   24 1  
    11   26    6 1  
    12   27    7 1  
    13    7   28 1  
    14   21    8 1  
    15    9   10 1  
    16   13    9 1  
    17   10   11 2  
    18   12   11 1  
    19   14   12 1  
    20   13   14 2  
    21   17   13 1  
    22   15   14 1  
    23   16   15 1  
    24   15   18 1  
    25   16   17 2  
    26   23   16 1  
    27   18   19 1  
    28   19   20 ar 
    29   20   21 ar 
    30   24   23 1  
    31   25   26 1  
    32   25   27 1  
    33    1   30 1  
    34    1   31 1  
    35    1   32 1  
    36    2   33 1  
    37    4   34 1  
    38    4   35 1  
    39    5   36 1  
    40    5   37 1  
    41    6   38 1  
    42    6   39 1  
    43    7   40 1  
    44    7   41 1  
    45    8   42 1  
    46    8   43 1  
    47    8   44 1  
    48    9   45 1  
    49   10   46 1  
    50   11   47 1  
    51   12   48 1  
    52   12   49 1  
    53   18   50 1  
    54   18   51 1  
    55   22   52 1  
    56   23   53 1  
    57   24   54 1  
    58   25   55 1  
    59   26   56 1  
    60   26   57 1  
    61   27   58 1  
    62   27   59 1  
    63   28   60 1  
    64   28   61 1  
    65   28   62 1  
    66   29   63 1  
@<TRIPOS>SUBSTRUCTURE
     1 5NK         1

