### 
### Created by X-TOOL on Mon Sep 10 21:13:23 2018
### 

@<TRIPOS>MOLECULE
5ea4_ligand
   60    64     1     0     0
SMALL
GAST_HUCK


@<TRIPOS>ATOM
      1 C10        19.9050   19.7670   18.3790 C.3       1 5NM         0.1205
      2 C13        19.2820   14.7200   18.1510 C.3       1 5NM         0.0604
      3 C15        17.9550   14.5420   17.4270 C.3       1 5NM        -0.0227
      4 C22        20.7350   15.4860   20.9640 C.3       1 5NM         0.0208
      5 C24        21.1150   18.4290   21.1530 C.3       1 5NM         0.0009
      6 C26        16.2070   18.2800   19.1480 C.3       1 5NM        -0.0063
      7 C28        15.5270   22.1100   22.2840 C.2       1 5NM        -0.0723
      8 C01        19.4050   17.3020   17.8730 C.2       1 5NM         0.2950
      9 N02        19.9210   18.3670   18.7000 N.am      1 5NM        -0.2121
     10 N03        19.6230   16.0550   18.5760 N.am      1 5NM        -0.2300
     11 C04        19.0010   20.4270   19.4210 C.2       1 5NM         0.1322
     12 N05        19.3960   21.2270   20.4610 N.2       1 5NM        -0.3417
     13 C06        20.4490   17.7900   19.9170 C.2       1 5NM         0.0829
     14 C07        20.2660   16.3640   19.8400 C.2       1 5NM         0.0468
     15 N08        17.6260   20.2920   19.4630 N.pl3     1 5NM        -0.2495
     16 C09        18.2810   21.5990   21.1500 C.2       1 5NM        -0.0138
     17 C11        17.1770   21.0130   20.5290 C.2       1 5NM         0.0547
     18 S12        14.2720   16.3750   18.9290 S.o2      1 5NM        -0.0337
     19 C14        19.2670   14.4210   16.6590 C.3       1 5NM        -0.0227
     20 C16        18.0860   22.5010   22.4110 C.3       1 5NM        -0.0114
     21 O17        18.8840   17.4580   16.7790 O.2       1 5NM        -0.4128
     22 C18        15.7250   21.2500   21.0690 C.3       1 5NM         0.0151
     23 O19        13.7130   16.6980   20.2200 O.2       1 5NM        -0.1746
     24 O20        15.2300   15.3490   19.2600 O.2       1 5NM        -0.1746
     25 N21        21.5780   17.5740   22.2640 N.4       1 5NM         0.2352
     26 C23        16.7040   22.7280   22.9440 C.2       1 5NM        -0.0176
     27 C25        16.8300   19.5340   18.5190 C.3       1 5NM         0.0565
     28 C27        15.0770   17.8010   18.2110 C.3       1 5NM         0.0679
     29 C29        13.0180   15.7880   17.7960 C.3       1 5NM         0.0544
     30 BR3        16.4710   23.8240   24.4900 Br        1 5NM        -0.0658
     31 C31        21.3950   16.1070   22.1900 C.3       1 5NM        -0.0280
     32 H1         19.5004   19.9229   17.3681 H         1 5NM         0.0803
     33 H2         20.9213   20.1839   18.4355 H         1 5NM         0.0803
     34 H3         19.6438   13.9738   18.8737 H         1 5NM         0.0616
     35 H4         17.2982   15.4086   17.2610 H         1 5NM         0.0293
     36 H5         17.3421   13.6478   17.6134 H         1 5NM         0.0293
     37 H6         21.4620   14.7810   20.5346 H         1 5NM         0.0407
     38 H7         19.8551   14.9321   21.3231 H         1 5NM         0.0407
     39 H8         20.3862   19.1351   21.5776 H         1 5NM         0.0903
     40 H9         21.9936   18.9826   20.7903 H         1 5NM         0.0903
     41 H10        15.7954   18.5222   20.1389 H         1 5NM         0.0307
     42 H11        16.9689   17.4931   19.2497 H         1 5NM         0.0307
     43 H12        14.5261   22.2792   22.6784 H         1 5NM         0.0581
     44 H13        19.6006   13.4395   16.2912 H         1 5NM         0.0293
     45 H14        19.5567   15.2003   15.9388 H         1 5NM         0.0293
     46 H15        18.5016   23.4895   22.1658 H         1 5NM         0.0433
     47 H16        18.6728   22.0478   23.2236 H         1 5NM         0.0433
     48 H17        15.1494   21.7100   20.2523 H         1 5NM         0.0538
     49 H18        15.3037   20.2612   21.3029 H         1 5NM         0.0538
     50 H19        21.0967   17.8865   23.0927 H         1 5NM         0.2022
     51 H20        22.5669   17.7397   22.3671 H         1 5NM         0.2022
     52 H21        16.0219   20.1781   18.1421 H         1 5NM         0.0610
     53 H22        17.4740   19.2260   17.6821 H         1 5NM         0.0610
     54 H23        15.5018   17.5288   17.2335 H         1 5NM         0.0500
     55 H24        14.3424   18.6091   18.0794 H         1 5NM         0.0500
     56 H25        12.3134   16.6032   17.5745 H         1 5NM         0.0464
     57 H26        12.4747   14.9480   18.2534 H         1 5NM         0.0464
     58 H27        13.4948   15.4520   16.8634 H         1 5NM         0.0464
     59 H28        22.3950   15.6568   22.2757 H         1 5NM         0.0828
     60 H29        20.7869   15.8178   23.0598 H         1 5NM         0.0828
@<TRIPOS>BOND
     1    1    9 1  
     2   11    1 1  
     3    2    3 1  
     4   10    2 1  
     5    2   19 1  
     6   19    3 1  
     7   14    4 1  
     8    4   31 1  
     9   13    5 1  
    10    5   25 1  
    11    6   27 1  
    12   28    6 1  
    13   22    7 1  
    14    7   26 2  
    15    9    8 am 
    16    8   10 am 
    17    8   21 2  
    18    9   13 1  
    19   14   10 1  
    20   11   12 2  
    21   15   11 1  
    22   16   12 1  
    23   13   14 2  
    24   15   17 1  
    25   27   15 1  
    26   17   16 2  
    27   16   20 1  
    28   17   22 1  
    29   18   23 2  
    30   18   24 2  
    31   18   28 1  
    32   18   29 1  
    33   20   26 1  
    34   25   31 1  
    35   26   30 1  
    36    1   32 1  
    37    1   33 1  
    38    2   34 1  
    39    3   35 1  
    40    3   36 1  
    41    4   37 1  
    42    4   38 1  
    43    5   39 1  
    44    5   40 1  
    45    6   41 1  
    46    6   42 1  
    47    7   43 1  
    48   19   44 1  
    49   19   45 1  
    50   20   46 1  
    51   20   47 1  
    52   22   48 1  
    53   22   49 1  
    54   25   50 1  
    55   25   51 1  
    56   27   52 1  
    57   27   53 1  
    58   28   54 1  
    59   28   55 1  
    60   29   56 1  
    61   29   57 1  
    62   29   58 1  
    63   31   59 1  
    64   31   60 1  
@<TRIPOS>SUBSTRUCTURE
     1 5NM         1

