### 
### Created by X-TOOL on Mon Sep 10 21:13:25 2018
### 

@<TRIPOS>MOLECULE
5ea5_ligand
   98   102     1     0     0
SMALL
GAST_HUCK


@<TRIPOS>ATOM
      1 C1         26.3570   25.8860   27.5260 C.3       1 TM3         0.0878
      2 C2         25.0060   26.2120   26.9220 C.3       1 TM3        -0.0078
      3 N3         24.9310   25.8530   25.5880 N.4       1 TM3         0.2385
      4 C4         25.9770   26.3880   24.8530 C.3       1 TM3        -0.0078
      5 C5         27.3360   26.0810   25.4560 C.3       1 TM3         0.0878
      6 O6         27.4040   26.4300   26.7940 O.3       1 TM3        -0.3693
      7 C13        24.9280   24.5990   25.4860 C.3       1 TM3        -0.0299
      8 C14        23.8400   24.1580   24.4760 C.3       1 TM3         0.0076
      9 C15        24.4990   23.9250   23.0620 C.3       1 TM3         0.0350
     10 N16        23.6370   24.5260   22.0330 N.pl3     1 TM3        -0.2840
     11 C17        23.2080   23.7000   20.9200 C.2       1 TM3         0.2006
     12 N23        23.6640   23.7710   19.6030 N.2       1 TM3        -0.3297
     13 C24        22.9990   22.8040   18.8680 C.2       1 TM3        -0.0256
     14 C25        22.1480   22.1570   19.7520 C.2       1 TM3         0.0325
     15 N26        22.2510   22.6900   21.0090 N.pl3     1 TM3        -0.2346
     16 C32        21.2410   21.0130   19.2110 C.2       1 TM3        -0.0674
     17 C33        21.2310   20.5210   17.8180 C.2       1 TM3        -0.0245
     18 C34        22.1400   21.2030   16.8440 C.3       1 TM3        -0.0119
     19 C35        23.0270   22.3380   17.3480 C.3       1 TM3        -0.0217
     20 C41        21.5290   22.2680   22.1940 C.3       1 TM3         0.1068
     21 C42        19.9870   22.4430   22.1060 C.3       1 TM3         0.0581
     22 C45        19.2880   23.4340   23.0070 C.2       1 TM3         0.0984
     23 C46        17.8130   23.6050   22.9350 C.2       1 TM3        -0.0786
     24 C47        17.0060   22.7950   21.9750 C.3       1 TM3        -0.0083
     25 C48        17.7080   21.7900   21.0710 C.3       1 TM3        -0.0227
     26 N49        19.1790   21.6370   21.1650 N.4       1 TM3         0.2472
     27 O56        20.0420   24.2120   23.9220 O.3       1 TM3        -0.3374
     28 C58        16.8840   20.9290   20.0590 C.3       1 TM3        -0.0207
     29 C60        20.2680   19.3640   17.5170 C.3       1 TM3        -0.0026
     30 N61        19.5740   19.0060   18.7510 N.4       1 TM3         0.2428
     31 C62        20.1430   18.1450   19.7750 C.3       1 TM3        -0.0180
     32 C66        20.8720   18.7160   20.9930 C.3       1 TM3        -0.0069
     33 C67        21.5000   17.8390   22.0950 C.3       1 TM3        -0.0388
     34 C68        21.3550   16.3140   21.9530 C.3       1 TM3        -0.0498
     35 C69        20.6150   15.7180   20.7470 C.3       1 TM3        -0.0449
     36 C70        20.0060   16.6000   19.6580 C.3       1 TM3         0.0021
     37 C77        22.2510   18.4790   23.3090 C.3       1 TM3        -0.0622
     38 C79        19.2800   15.9780   18.4810 C.3       1 TM3        -0.0430
     39 C80        20.1900   14.9590   17.8000 C.3       1 TM3        -0.0293
     40 C81        19.9310   14.9860   16.2950 C.3       1 TM3         0.0442
     41 O82        19.2790   13.8150   15.9240 O.3       1 TM3        -0.3950
     42 H1         26.4768   24.7930   27.5569 H         1 TM3         0.0613
     43 H2         26.3939   26.2880   28.5492 H         1 TM3         0.0613
     44 H3         24.8311   27.2946   27.0081 H         1 TM3         0.0837
     45 H4         24.2282   25.6694   27.4794 H         1 TM3         0.0837
     46 H5         24.0663   26.2092   25.2119 H         1 TM3         0.2035
     47 H6         25.8516   27.4798   24.8063 H         1 TM3         0.0837
     48 H7         25.9414   25.9709   23.8358 H         1 TM3         0.0837
     49 H8         28.1039   26.6425   24.9038 H         1 TM3         0.0613
     50 H9         27.5307   25.0026   25.3606 H         1 TM3         0.0613
     51 H10        24.7161   24.1530   26.4690 H         1 TM3         0.0815
     52 H11        25.9129   24.2588   25.1336 H         1 TM3         0.0815
     53 H12        23.0725   24.9421   24.3981 H         1 TM3         0.0336
     54 H13        23.3753   23.2231   24.8225 H         1 TM3         0.0336
     55 H14        24.6009   22.8459   22.8748 H         1 TM3         0.0521
     56 H15        25.4920   24.3973   23.0345 H         1 TM3         0.0521
     57 H16        23.3444   25.5112   22.1010 H         1 TM3         0.1843
     58 H17        20.5599   20.5377   19.9154 H         1 TM3         0.0243
     59 H18        21.5079   21.6157   16.0439 H         1 TM3         0.0461
     60 H19        22.8046   20.4327   16.4258 H         1 TM3         0.0461
     61 H20        24.0639   22.0393   17.1343 H         1 TM3         0.0390
     62 H21        22.7691   23.2229   16.7476 H         1 TM3         0.0390
     63 H22        21.8936   22.8590   23.0471 H         1 TM3         0.0678
     64 H23        21.7445   21.2032   22.3666 H         1 TM3         0.0678
     65 H24        20.1175   23.2190   21.3374 H         1 TM3         0.1063
     66 H25        17.3187   24.3247   23.5858 H         1 TM3         0.0142
     67 H26        16.4814   23.5048   21.3185 H         1 TM3         0.0366
     68 H27        16.2706   22.2327   22.5691 H         1 TM3         0.0366
     69 H28        17.8359   22.5665   20.3025 H         1 TM3         0.0860
     70 H29        19.3488   20.6718   21.4007 H         1 TM3         0.2036
     71 H30        19.5429   21.8272   20.2444 H         1 TM3         0.2036
     72 H31        19.9240   25.1337   23.7246 H         1 TM3         0.2471
     73 H32        15.8179   21.1876   20.1406 H         1 TM3         0.0285
     74 H33        17.0210   19.8620   20.2887 H         1 TM3         0.0285
     75 H34        17.2332   21.1316   19.0358 H         1 TM3         0.0285
     76 H35        20.8340   18.4973   17.1448 H         1 TM3         0.0998
     77 H36        19.5366   19.6779   16.7577 H         1 TM3         0.0998
     78 H37        18.7157   18.5619   18.4645 H         1 TM3         0.2033
     79 H38        19.3639   19.8780   19.2110 H         1 TM3         0.2033
     80 H39        21.0907   18.1138   19.2175 H         1 TM3         0.0853
     81 H40        20.1443   19.3645   21.5027 H         1 TM3         0.0322
     82 H41        21.6925   19.3295   20.5925 H         1 TM3         0.0322
     83 H42        22.4480   17.8062   21.5381 H         1 TM3         0.0300
     84 H43        20.8301   15.9606   22.8528 H         1 TM3         0.0268
     85 H44        22.3737   15.8992   21.9360 H         1 TM3         0.0268
     86 H45        19.7884   15.1193   21.1572 H         1 TM3         0.0270
     87 H46        21.3325   15.0549   20.2416 H         1 TM3         0.0270
     88 H47        19.0591   16.6395   20.2163 H         1 TM3         0.0355
     89 H48        22.2366   19.5747   23.2127 H         1 TM3         0.0232
     90 H49        23.2927   18.1259   23.3233 H         1 TM3         0.0232
     91 H50        21.7518   18.1866   24.2445 H         1 TM3         0.0232
     92 H51        19.0077   16.7643   17.7615 H         1 TM3         0.0271
     93 H52        18.3688   15.4750   18.8369 H         1 TM3         0.0271
     94 H53        19.9765   13.9539   18.1926 H         1 TM3         0.0287
     95 H54        21.2416   15.2141   17.9975 H         1 TM3         0.0287
     96 H55        20.8880   15.0606   15.7579 H         1 TM3         0.0557
     97 H56        19.3017   15.8529   16.0451 H         1 TM3         0.0557
     98 H57        19.1158   13.8276   14.9882 H         1 TM3         0.2094
@<TRIPOS>BOND
     1    1    2 1  
     2    1    6 1  
     3    2    3 1  
     4    3    4 1  
     5    3    7 1  
     6    4    5 1  
     7    5    6 1  
     8    7    8 1  
     9    8    9 1  
    10    9   10 1  
    11   10   11 1  
    12   11   12 2  
    13   11   15 1  
    14   12   13 1  
    15   13   14 2  
    16   13   19 1  
    17   14   15 1  
    18   14   16 1  
    19   15   20 1  
    20   16   17 2  
    21   17   18 1  
    22   17   29 1  
    23   18   19 1  
    24   20   21 1  
    25   21   22 1  
    26   21   26 1  
    27   22   23 2  
    28   22   27 1  
    29   23   24 1  
    30   24   25 1  
    31   25   26 1  
    32   25   28 1  
    33   29   30 1  
    34   30   31 1  
    35   31   32 1  
    36   31   36 1  
    37   32   33 1  
    38   33   34 1  
    39   33   37 1  
    40   34   35 1  
    41   35   36 1  
    42   36   38 1  
    43   38   39 1  
    44   39   40 1  
    45   40   41 1  
    46    1   42 1  
    47    1   43 1  
    48    2   44 1  
    49    2   45 1  
    50    3   46 1  
    51    4   47 1  
    52    4   48 1  
    53    5   49 1  
    54    5   50 1  
    55    7   51 1  
    56    7   52 1  
    57    8   53 1  
    58    8   54 1  
    59    9   55 1  
    60    9   56 1  
    61   10   57 1  
    62   16   58 1  
    63   18   59 1  
    64   18   60 1  
    65   19   61 1  
    66   19   62 1  
    67   20   63 1  
    68   20   64 1  
    69   21   65 1  
    70   23   66 1  
    71   24   67 1  
    72   24   68 1  
    73   25   69 1  
    74   26   70 1  
    75   26   71 1  
    76   27   72 1  
    77   28   73 1  
    78   28   74 1  
    79   28   75 1  
    80   29   76 1  
    81   29   77 1  
    82   30   78 1  
    83   30   79 1  
    84   31   80 1  
    85   32   81 1  
    86   32   82 1  
    87   33   83 1  
    88   34   84 1  
    89   34   85 1  
    90   35   86 1  
    91   35   87 1  
    92   36   88 1  
    93   37   89 1  
    94   37   90 1  
    95   37   91 1  
    96   38   92 1  
    97   38   93 1  
    98   39   94 1  
    99   39   95 1  
   100   40   96 1  
   101   40   97 1  
   102   41   98 1  
@<TRIPOS>SUBSTRUCTURE
     1 TM3         1

