### 
### Created by X-TOOL on Mon Sep 10 21:13:24 2018
### 

@<TRIPOS>MOLECULE
5ea6_ligand
   48    52     1     0     0
SMALL
GAST_HUCK


@<TRIPOS>ATOM
      1 C10        19.2620   21.0940   21.5910 C.3       1 5NP         0.0380
      2 C13        21.6120   18.5500   21.6150 C.2       1 5NP         0.2420
      3 C15        17.4830   19.1950   20.4890 C.2       1 5NP         0.2019
      4 C17        19.5960   20.1780   17.5700 C.ar      1 5NP        -0.0543
      5 C20        16.2230   19.6110   21.2360 C.ar      1 5NP         0.0767
      6 C21        21.3140   15.2500   19.2020 C.3       1 5NP        -0.0112
      7 C22        19.9910   20.9790   16.3400 C.ar      1 5NP        -0.0304
      8 C24        21.1850   21.9190   16.4080 C.ar      1 5NP         0.0595
      9 C26        15.0470   18.6560   21.1560 C.ar      1 5NP         0.0313
     10 C28        13.7570   20.1980   22.7140 C.ar      1 5NP         0.0155
     11 CL1        21.6590   22.8580   15.0300 Cl        1 5NP        -0.0530
     12 O02        22.3930   18.4140   22.5420 O.2       1 5NP        -0.3553
     13 O03        17.3970   18.2300   19.7550 O.2       1 5NP        -0.3828
     14 N04        20.8360   19.7560   21.3110 N.am      1 5NP        -0.2987
     15 N05        18.7610   19.8310   20.6870 N.am      1 5NP        -0.3068
     16 N06        20.3260   15.8080   18.2650 N.4       1 5NP         0.2417
     17 N07        13.8260   18.9820   21.8880 N.ar      1 5NP        -0.2903
     18 C08        19.9700   19.4850   20.1170 C.3       1 5NP         0.1236
     19 C09        20.7200   20.7730   21.8480 C.3       1 5NP         0.0387
     20 C11        20.3330   18.0680   19.6160 C.2       1 5NP         0.0221
     21 C12        20.4130   20.2790   18.8550 C.ar      1 5NP        -0.0457
     22 C14        21.2830   17.4990   20.5470 C.2       1 5NP         0.0899
     23 C16        19.8210   17.1800   18.4600 C.3       1 5NP        -0.0051
     24 C18        21.5850   21.2560   18.8930 C.ar      1 5NP        -0.0543
     25 C19        21.8010   16.1080   20.3630 C.3       1 5NP         0.0629
     26 C23        21.9920   22.0630   17.6780 C.ar      1 5NP        -0.0304
     27 C25        16.1550   20.8290   22.0690 C.ar      1 5NP        -0.0224
     28 C27        14.9320   21.1510   22.8090 C.ar      1 5NP        -0.0284
     29 H1         18.6983   21.1535   22.5337 H         1 5NP         0.0526
     30 H2         19.1568   22.0405   21.0405 H         1 5NP         0.0526
     31 H3         18.7276   19.5302   17.5341 H         1 5NP         0.0750
     32 H4         22.2000   14.9763   18.6103 H         1 5NP         0.0862
     33 H5         20.8688   14.3429   19.6368 H         1 5NP         0.0862
     34 H6         19.4255   20.8810   15.4204 H         1 5NP         0.0671
     35 H7         15.1117   17.7486   20.5665 H         1 5NP         0.0879
     36 H8         12.8491   20.4162   23.2647 H         1 5NP         0.0858
     37 H9         19.5249   15.1966   18.2879 H         1 5NP         0.2031
     38 H10        20.7447   15.7791   17.3485 H         1 5NP         0.2031
     39 H11        20.9267   20.6833   22.9247 H         1 5NP         0.0527
     40 H12        21.3813   21.5350   21.4098 H         1 5NP         0.0527
     41 H13        18.7323   17.0950   18.5918 H         1 5NP         0.0974
     42 H14        20.0362   17.7259   17.5296 H         1 5NP         0.0974
     43 H15        22.1416   21.3755   19.8155 H         1 5NP         0.0750
     44 H16        22.8930   16.1894   20.2587 H         1 5NP         0.0660
     45 H17        21.5607   15.5575   21.2845 H         1 5NP         0.0660
     46 H18        22.8451   22.7306   17.7182 H         1 5NP         0.0671
     47 H19        17.0137   21.4875   22.1331 H         1 5NP         0.0789
     48 H20        14.8689   22.0504   23.4108 H         1 5NP         0.0722
@<TRIPOS>BOND
     1   15    1 1  
     2    1   19 1  
     3    2   12 2  
     4    2   14 am 
     5   22    2 1  
     6    3    5 1  
     7    3   13 2  
     8   15    3 am 
     9    4    7 ar 
    10   21    4 ar 
    11    5    9 ar 
    12    5   27 ar 
    13   16    6 1  
    14    6   25 1  
    15    7    8 ar 
    16    8   11 1  
    17    8   26 ar 
    18    9   17 ar 
    19   17   10 ar 
    20   10   28 ar 
    21   18   14 1  
    22   14   19 1  
    23   18   15 1  
    24   23   16 1  
    25   20   18 1  
    26   18   21 1  
    27   20   22 2  
    28   20   23 1  
    29   21   24 ar 
    30   22   25 1  
    31   24   26 ar 
    32   27   28 ar 
    33    1   29 1  
    34    1   30 1  
    35    4   31 1  
    36    6   32 1  
    37    6   33 1  
    38    7   34 1  
    39    9   35 1  
    40   10   36 1  
    41   16   37 1  
    42   16   38 1  
    43   19   39 1  
    44   19   40 1  
    45   23   41 1  
    46   23   42 1  
    47   24   43 1  
    48   25   44 1  
    49   25   45 1  
    50   26   46 1  
    51   27   47 1  
    52   28   48 1  
@<TRIPOS>SUBSTRUCTURE
     1 5NP         1

