### 
### Created by X-TOOL on Mon Sep 10 21:13:24 2018
### 

@<TRIPOS>MOLECULE
5ea7_ligand
   51    55     1     0     0
SMALL
GAST_HUCK


@<TRIPOS>ATOM
      1 C10        16.6060   21.7640   21.8010 C.ar      1 5NO        -0.0263
      2 C15        21.4770   20.6180   19.6330 C.2       1 5NO         0.1521
      3 C17        22.8060   22.4180   19.5840 C.ar      1 5NO         0.0210
      4 C20        23.7070   24.0680   17.4940 C.ar      1 5NO        -0.0766
      5 C21        22.8610   22.9800   17.2230 C.ar      1 5NO        -0.0420
      6 C22        22.4050   22.1440   18.2890 C.ar      1 5NO         0.0812
      7 C24        20.9510   20.4050   17.1780 C.3       1 5NO         0.0573
      8 C26        18.8290   20.2150   15.7570 C.3       1 5NO        -0.0273
      9 C01        15.1650   17.5880   20.5270 C.3       1 5NO        -0.0215
     10 C02        15.0340   18.1620   19.1310 C.3       1 5NO        -0.0215
     11 C03        15.6710   18.9920   20.2340 C.3       1 5NO         0.0692
     12 N04        17.0040   19.4970   20.4490 N.am      1 5NO        -0.1934
     13 C05        17.3490   20.7160   21.1420 C.ar      1 5NO         0.1151
     14 C06        18.7520   20.8450   21.1320 C.ar      1 5NO         0.1244
     15 C07        19.3550   21.9710   21.7550 C.ar      1 5NO         0.0151
     16 N08        18.6150   22.9080   22.3480 N.ar      1 5NO        -0.3353
     17 C09        17.2790   22.8400   22.3890 C.ar      1 5NO        -0.0220
     18 N11        19.2950   19.7060   20.4280 N.am      1 5NO        -0.1778
     19 C12        18.2110   18.8830   20.0180 C.2       1 5NO         0.3214
     20 O13        18.3040   17.8360   19.4020 O.2       1 5NO        -0.3920
     21 C14        20.6860   19.4110   20.1770 C.3       1 5NO         0.1381
     22 N16        22.2170   21.4520   20.3980 N.2       1 5NO        -0.3158
     23 C18        23.6690   23.5270   19.8560 C.ar      1 5NO        -0.0656
     24 C19        24.1130   24.3470   18.8100 C.ar      1 5NO        -0.0786
     25 N23        21.5760   21.0260   18.3340 N.pl3     1 5NO        -0.2303
     26 C25        19.4180   20.5520   17.1410 C.3       1 5NO        -0.0242
     27 C27        17.2970   20.1200   15.7700 C.3       1 5NO         0.0443
     28 O28        16.8340   20.0820   14.4310 O.3       1 5NO        -0.3950
     29 H1         15.5237   21.7168   21.8402 H         1 5NO         0.0547
     30 H2         24.0496   24.6978   16.6810 H         1 5NO         0.0528
     31 H3         22.5535   22.7741   16.2041 H         1 5NO         0.0541
     32 H4         21.1956   19.3326   17.1867 H         1 5NO         0.0602
     33 H5         21.3650   20.8682   16.2702 H         1 5NO         0.0602
     34 H6         19.2383   19.2489   15.4265 H         1 5NO         0.0288
     35 H7         19.1264   21.0012   15.0475 H         1 5NO         0.0288
     36 H8         15.8803   16.7755   20.7224 H         1 5NO         0.0294
     37 H9         14.2691   17.4453   21.1490 H         1 5NO         0.0294
     38 H10        14.0429   18.4356   18.7400 H         1 5NO         0.0294
     39 H11        15.6542   17.7659   18.3134 H         1 5NO         0.0294
     40 H12        15.0341   19.8127   20.5955 H         1 5NO         0.0628
     41 H13        20.4345   22.0696   21.7479 H         1 5NO         0.0648
     42 H14        16.7148   23.6239   22.8811 H         1 5NO         0.0645
     43 H15        21.1496   19.0861   21.1201 H         1 5NO         0.0863
     44 H16        20.7426   18.5958   19.4406 H         1 5NO         0.0863
     45 H17        23.9799   23.7331   20.8738 H         1 5NO         0.0535
     46 H18        24.7641   25.1893   19.0143 H         1 5NO         0.0516
     47 H19        19.1564   21.5903   17.3930 H         1 5NO         0.0292
     48 H20        18.9797   19.8722   17.8865 H         1 5NO         0.0292
     49 H21        16.8758   20.9973   16.2827 H         1 5NO         0.0557
     50 H22        16.9871   19.2045   16.2951 H         1 5NO         0.0557
     51 H23        15.8858   20.0231   14.4265 H         1 5NO         0.2094
@<TRIPOS>BOND
     1   13    1 ar 
     2    1   17 ar 
     3   21    2 1  
     4    2   22 2  
     5    2   25 1  
     6    6    3 ar 
     7   22    3 1  
     8    3   23 ar 
     9    5    4 ar 
    10    4   24 ar 
    11    6    5 ar 
    12   25    6 1  
    13   25    7 1  
    14    7   26 1  
    15   26    8 1  
    16    8   27 1  
    17   10    9 1  
    18   11    9 1  
    19   11   10 1  
    20   12   11 1  
    21   12   13 1  
    22   19   12 am 
    23   14   13 ar 
    24   14   15 ar 
    25   18   14 1  
    26   15   16 ar 
    27   16   17 ar 
    28   18   19 am 
    29   18   21 1  
    30   19   20 2  
    31   23   24 ar 
    32   27   28 1  
    33    1   29 1  
    34    4   30 1  
    35    5   31 1  
    36    7   32 1  
    37    7   33 1  
    38    8   34 1  
    39    8   35 1  
    40    9   36 1  
    41    9   37 1  
    42   10   38 1  
    43   10   39 1  
    44   11   40 1  
    45   15   41 1  
    46   17   42 1  
    47   21   43 1  
    48   21   44 1  
    49   23   45 1  
    50   24   46 1  
    51   26   47 1  
    52   26   48 1  
    53   27   49 1  
    54   27   50 1  
    55   28   51 1  
@<TRIPOS>SUBSTRUCTURE
     1 5NO         1

