### 
### Created by X-TOOL on Mon Sep 10 21:13:28 2018
### 

@<TRIPOS>MOLECULE
5eak_ligand
   54    58     1     0     0
SMALL
GAST_HUCK


@<TRIPOS>ATOM
      1 C          42.1780   37.0040   -1.2430 C.2       1 24R         0.1132
      2 C1         42.4660   37.0750    0.1100 C.2       1 24R         0.0361
      3 C2         42.4270   35.8380    0.7430 C.2       1 24R         0.0192
      4 N          42.1710   34.6520    0.1740 N.2       1 24R        -0.2668
      5 C3         41.9120   34.6700   -1.1490 C.2       1 24R         0.1706
      6 N4         41.9160   35.8290   -1.8470 N.pl3     1 24R        -0.1377
      7 N5         41.6370   35.6510   -3.1420 N.2       1 24R        -0.2094
      8 C6         41.6080   33.6510   -2.0540 C.2       1 24R         0.0004
      9 C7         41.4390   34.3220   -3.2650 C.2       1 24R        -0.0086
     10 C8         41.4470   32.1760   -1.8340 C.2       1 24R        -0.0476
     11 C9         41.2760   31.2710   -2.8660 C.2       1 24R        -0.0077
     12 S          41.0870   29.6690   -2.2900 S.3       1 24R        -0.0370
     13 C10        41.2340   30.1630   -0.6580 C.2       1 24R         0.0974
     14 C11        41.4160   31.5420   -0.5770 C.2       1 24R        -0.0532
     15 C12        41.1540   29.1380    0.4220 C.2       1 24R         0.2084
     16 N13        41.5400   29.4710    1.6460 N.am      1 24R        -0.2791
     17 O          40.7580   28.0130    0.2100 O.2       1 24R        -0.3903
     18 C14        42.7450   38.3050    0.8880 C.2       1 24R         0.0030
     19 C15        42.9030   39.6050    0.4360 C.2       1 24R         0.0590
     20 N16        43.1070   40.3360    1.5620 N.pl3     1 24R        -0.2089
     21 N17        43.0860   39.6430    2.7020 N.2       1 24R        -0.2156
     22 C18        42.8480   38.3890    2.2750 C.2       1 24R         0.0037
     23 C19        43.3400   41.7750    1.6500 C.3       1 24R         0.0604
     24 C20        41.6950   28.4790    2.7060 C.3       1 24R         0.0834
     25 C21        40.7730   28.7200    3.9190 C.3       1 24R        -0.0011
     26 N22        39.4250   29.1900    3.4920 N.4       1 24R         0.2224
     27 C23        43.1750   28.4310    3.1040 C.3       1 24R        -0.0248
     28 C24        43.5890   29.6070    3.9860 C.3       1 24R        -0.0506
     29 C25        42.7470   29.5930    5.2540 C.3       1 24R        -0.0478
     30 C26        41.2640   29.7540    4.9270 C.3       1 24R        -0.0076
     31 H1         42.1631   37.9197   -1.8322 H         1 24R         0.1298
     32 H2         42.6253   35.8321    1.8138 H         1 24R         0.0970
     33 H3         41.1776   33.8305   -4.2009 H         1 24R         0.0646
     34 H4         41.2631   31.5446   -3.9200 H         1 24R         0.0668
     35 H5         41.5237   32.0768    0.3655 H         1 24R         0.0503
     36 H6         41.7309   30.4313    1.8494 H         1 24R         0.1842
     37 H7         42.8708   39.9611   -0.5926 H         1 24R         0.0995
     38 H8         42.7469   37.5333    2.9410 H         1 24R         0.0663
     39 H9         43.4685   42.0618    2.7041 H         1 24R         0.0605
     40 H10        42.4789   42.3125    1.2262 H         1 24R         0.0605
     41 H11        44.2481   42.0346    1.0861 H         1 24R         0.0605
     42 H12        41.4239   27.4983    2.2880 H         1 24R         0.0611
     43 H13        40.6684   27.7569    4.4400 H         1 24R         0.0873
     44 H14        38.8477   29.3380    4.3050 H         1 24R         0.1998
     45 H15        38.9989   28.4948    2.8994 H         1 24R         0.1998
     46 H16        39.5165   30.0551    2.9829 H         1 24R         0.1998
     47 H17        43.7856   28.4458    2.1892 H         1 24R         0.0289
     48 H18        43.3610   27.4967    3.6540 H         1 24R         0.0289
     49 H19        43.4252   30.5503    3.4445 H         1 24R         0.0266
     50 H20        44.6532   29.5149    4.2485 H         1 24R         0.0266
     51 H21        43.0637   30.4208    5.9055 H         1 24R         0.0267
     52 H22        42.8986   28.6368    5.7761 H         1 24R         0.0267
     53 H23        40.6842   29.6448    5.8554 H         1 24R         0.0320
     54 H24        41.1019   30.7586    4.5094 H         1 24R         0.0320
@<TRIPOS>BOND
     1    1    2 2  
     2    1    6 1  
     3    2    3 1  
     4    2   18 1  
     5    3    4 2  
     6    4    5 1  
     7    5    6 1  
     8    5    8 2  
     9    6    7 1  
    10    7    9 2  
    11    8    9 1  
    12    8   10 1  
    13   10   11 2  
    14   10   14 1  
    15   11   12 1  
    16   12   13 1  
    17   13   14 2  
    18   13   15 1  
    19   15   16 am 
    20   15   17 2  
    21   16   24 1  
    22   18   19 2  
    23   18   22 1  
    24   19   20 1  
    25   20   21 1  
    26   20   23 1  
    27   21   22 2  
    28   24   25 1  
    29   24   27 1  
    30   25   26 1  
    31   25   30 1  
    32   27   28 1  
    33   28   29 1  
    34   29   30 1  
    35    1   31 1  
    36    3   32 1  
    37    9   33 1  
    38   11   34 1  
    39   14   35 1  
    40   16   36 1  
    41   19   37 1  
    42   22   38 1  
    43   23   39 1  
    44   23   40 1  
    45   23   41 1  
    46   24   42 1  
    47   25   43 1  
    48   26   44 1  
    49   26   45 1  
    50   26   46 1  
    51   27   47 1  
    52   27   48 1  
    53   28   49 1  
    54   28   50 1  
    55   29   51 1  
    56   29   52 1  
    57   30   53 1  
    58   30   54 1  
@<TRIPOS>SUBSTRUCTURE
     1 24R         1

