### 
### Created by X-TOOL on Mon Sep 10 21:13:28 2018
### 

@<TRIPOS>MOLECULE
5eb2_ligand
   27    28     1     0     0
SMALL
GAST_HUCK


@<TRIPOS>ATOM
      1 N         -35.7330  -57.2740   -6.4680 N.4       1 TRP         0.2336
      2 CA        -36.4260  -56.7720   -7.6520 C.3       1 TRP         0.0324
      3 C         -37.8890  -57.2380   -7.6900 C.2       1 TRP         0.0858
      4 O         -38.2530  -58.1430   -8.4520 O.co2     1 TRP        -0.5642
      5 CB        -35.6900  -57.2120   -8.9270 C.3       1 TRP         0.0190
      6 CG        -36.0930  -56.4370  -10.1580 C.2       1 TRP        -0.0392
      7 CD1       -36.9190  -56.8610  -11.1710 C.2       1 TRP         0.0167
      8 CD2       -35.6960  -55.0970  -10.4980 C.ar      1 TRP        -0.0213
      9 NE1       -37.0510  -55.8670  -12.1170 N.pl3     1 TRP        -0.2890
     10 CE2       -36.3130  -54.7760  -11.7270 C.ar      1 TRP         0.0603
     11 CE3       -34.8780  -54.1400   -9.8810 C.ar      1 TRP        -0.0747
     12 CZ2       -36.1340  -53.5360  -12.3540 C.ar      1 TRP        -0.0443
     13 CZ3       -34.7020  -52.9000  -10.5050 C.ar      1 TRP        -0.0792
     14 CH2       -35.3270  -52.6130  -11.7290 C.ar      1 TRP        -0.0768
     15 OXT       -38.7420  -56.7170   -6.9600 O.co2     1 TRP        -0.5642
     16 H1        -34.7784  -56.9503   -6.4749 H         1 TRP         0.2011
     17 H2        -35.7460  -58.2819   -6.4731 H         1 TRP         0.2011
     18 H3        -36.1963  -56.9362   -5.6390 H         1 TRP         0.2011
     19 H4        -36.4193  -55.6728   -7.6111 H         1 TRP         0.1040
     20 H5        -35.9038  -58.2768   -9.1016 H         1 TRP         0.0423
     21 H6        -34.6099  -57.0759   -8.7691 H         1 TRP         0.0423
     22 H7        -37.3984  -57.8376  -11.2193 H         1 TRP         0.0795
     23 H8        -37.6127  -55.9319  -12.9779 H         1 TRP         0.2216
     24 H9        -34.3906  -54.3568   -8.9374 H         1 TRP         0.0540
     25 H10       -36.6148  -53.3113  -13.2992 H         1 TRP         0.0541
     26 H11       -34.0743  -52.1504  -10.0368 H         1 TRP         0.0510
     27 H12       -35.1707  -51.6449  -12.1910 H         1 TRP         0.0530
@<TRIPOS>BOND
     1    1    2 1  
     2    2    3 1  
     3    2    5 1  
     4    3    4 ar 
     5    3   15 ar 
     6    5    6 1  
     7    6    7 2  
     8    6    8 1  
     9    7    9 1  
    10    8   10 ar 
    11    8   11 ar 
    12    9   10 1  
    13   10   12 ar 
    14   11   13 ar 
    15   12   14 ar 
    16   13   14 ar 
    17    1   16 1  
    18    1   17 1  
    19    1   18 1  
    20    2   19 1  
    21    5   20 1  
    22    5   21 1  
    23    7   22 1  
    24    9   23 1  
    25   11   24 1  
    26   12   25 1  
    27   13   26 1  
    28   14   27 1  
@<TRIPOS>SUBSTRUCTURE
     1 TRP         1

