### 
### Created by X-TOOL on Mon Sep 10 21:13:27 2018
### 

@<TRIPOS>MOLECULE
5eb3_ligand
   23    23     1     0     0
SMALL
GAST_HUCK


@<TRIPOS>ATOM
      1 OP4        25.5010    4.2350   34.4050 O.3       1 UEG        -0.3837
      2 C5A        24.6570    4.0190   33.2990 C.3       1 UEG         0.0762
      3 C5         24.8430    5.2230   32.4220 C.ar      1 UEG        -0.0021
      4 C6         25.7400    6.1800   32.8690 C.ar      1 UEG        -0.0134
      5 N1         25.9640    7.2950   32.1360 N.ar      1 UEG        -0.3257
      6 C2         25.2990    7.4630   30.9620 C.ar      1 UEG         0.0389
      7 C3         24.4020    6.5100   30.5070 C.ar      1 UEG         0.1139
      8 C4         24.1730    5.3770   31.2390 C.ar      1 UEG         0.0284
      9 C4A        23.1760    4.3460   30.7320 C.3       1 UEG         0.0793
     10 O4A        23.7670    3.0780   30.5510 O.3       1 UEG        -0.3838
     11 O3         23.7310    6.7100   29.2880 O.3       1 UEG        -0.3348
     12 C2A        25.5580    8.7120   30.1560 C.3       1 UEG        -0.0224
     13 H1         25.4295    3.5015   35.0045 H         1 UEG         0.2124
     14 H2         23.6092    3.9362   33.6235 H         1 UEG         0.0706
     15 H3         24.9487    3.1032   32.7640 H         1 UEG         0.0706
     16 H4         26.2630    6.0351   33.8074 H         1 UEG         0.0621
     17 H5         22.7708    4.6888   29.7685 H         1 UEG         0.0705
     18 H6         22.3583    4.2548   31.4621 H         1 UEG         0.0705
     19 H7         23.1120    2.4668   30.2349 H         1 UEG         0.2124
     20 H8         24.0019    7.5388   28.9109 H         1 UEG         0.2454
     21 H9         24.9456    8.6924   29.2424 H         1 UEG         0.0382
     22 H10        26.6225    8.7580   29.8829 H         1 UEG         0.0382
     23 H11        25.2946    9.5962   30.7550 H         1 UEG         0.0382
@<TRIPOS>BOND
     1    1    2 1  
     2    2    3 1  
     3    3    4 ar 
     4    3    8 ar 
     5    4    5 ar 
     6    5    6 ar 
     7    6    7 ar 
     8    6   12 1  
     9    7    8 ar 
    10    7   11 1  
    11    8    9 1  
    12    9   10 1  
    13    1   13 1  
    14    2   14 1  
    15    2   15 1  
    16    4   16 1  
    17    9   17 1  
    18    9   18 1  
    19   10   19 1  
    20   11   20 1  
    21   12   21 1  
    22   12   22 1  
    23   12   23 1  
@<TRIPOS>SUBSTRUCTURE
     1 UEG         1

