### 
### Created by X-TOOL on Mon Sep 10 21:13:23 2018
### 

@<TRIPOS>MOLECULE
5ece_ligand
   56    60     1     0     0
SMALL
GAST_HUCK


@<TRIPOS>ATOM
      1 C1         14.7510   -3.4340   44.6540 C.ar      1 5N2        -0.0598
      2 C2         14.6400   -4.2000   43.5030 C.ar      1 5N2        -0.0589
      3 C3         13.4590   -4.2130   42.7770 C.ar      1 5N2        -0.0440
      4 C7         11.4070   -1.6720   44.6600 C.2       1 5N2         0.0661
      5 C10        11.1380   -3.3750   42.4110 C.2       1 5N2         0.2362
      6 C12        11.3970   -0.7980   45.8940 C.3       1 5N2         0.0272
      7 C13        11.6830    0.6680   45.6520 C.ar      1 5N2        -0.0266
      8 C14        12.3310    1.4400   46.6160 C.ar      1 5N2        -0.0543
      9 C15        12.5930    2.7850   46.3890 C.ar      1 5N2        -0.0627
     10 C16        12.2120    3.3760   45.1920 C.ar      1 5N2        -0.0488
     11 C19        11.1120    3.1470   42.8790 C.2       1 5N2         0.2059
     12 C22         9.8740    5.1640   43.8360 C.3       1 5N2         0.0541
     13 C27         6.5710    6.1000   42.3200 C.ar      1 5N2         0.1513
     14 C30         4.1950    7.4860   41.9880 C.ar      1 5N2        -0.0367
     15 C31         4.5820    6.9130   43.1870 C.ar      1 5N2         0.0050
     16 C33         7.1330    6.6800   39.8470 C.1       1 5N2         0.0974
     17 C4         12.3860   -3.4160   43.1850 C.ar      1 5N2         0.0610
     18 C5         12.5230   -2.5840   44.3150 C.ar      1 5N2         0.0127
     19 C6         13.7040   -2.6210   45.0620 C.ar      1 5N2        -0.0505
     20 N8         10.2970   -1.6770   43.9990 N.2       1 5N2        -0.1828
     21 N9         10.2080   -2.5130   42.8630 N.am      1 5N2        -0.1718
     22 O11        10.9180   -4.0700   41.4240 O.2       1 5N2        -0.3937
     23 C17        11.5160    2.6340   44.2320 C.ar      1 5N2         0.0436
     24 C18        11.2950    1.2740   44.4540 C.ar      1 5N2        -0.0388
     25 O20        11.4020    2.4790   41.9030 O.2       1 5N2        -0.3845
     26 N21        10.4220    4.3100   42.7690 N.am      1 5N2        -0.2685
     27 C23         8.3360    5.0930   43.8270 C.3       1 5N2         0.0528
     28 N24         7.7920    5.3970   42.4930 N.pl3     1 5N2        -0.2822
     29 C25         8.4190    4.6000   41.4280 C.3       1 5N2         0.0528
     30 C26         9.9260    4.7690   41.4660 C.3       1 5N2         0.0541
     31 C28         6.2690    6.7350   40.9980 C.ar      1 5N2         0.1402
     32 C29         5.0430    7.3990   40.8950 C.ar      1 5N2        -0.0192
     33 N32         5.7160    6.2080   43.3540 N.ar      1 5N2        -0.2719
     34 N34         7.8410    6.6030   38.9560 N.1       1 5N2        -0.3364
     35 H1         15.6628   -3.4710   45.2390 H         1 5N2         0.0642
     36 H2         15.4834   -4.7932   43.1685 H         1 5N2         0.0609
     37 H3         13.3682   -4.8388   41.8965 H         1 5N2         0.0659
     38 H4         12.1585   -1.1823   46.5885 H         1 5N2         0.0581
     39 H5         10.4032   -0.8778   46.3587 H         1 5N2         0.0581
     40 H6         12.6334    0.9854   47.5525 H         1 5N2         0.0595
     41 H7         13.0957    3.3740   47.1476 H         1 5N2         0.0611
     42 H8         12.4545    4.4151   45.0008 H         1 5N2         0.0612
     43 H9         10.1919    6.2039   43.6702 H         1 5N2         0.0542
     44 H10        10.2493    4.8167   44.8099 H         1 5N2         0.0542
     45 H11         3.2419    7.9957   41.9049 H         1 5N2         0.0622
     46 H12         3.9313    7.0400   44.0446 H         1 5N2         0.0853
     47 H13        13.8011   -2.0166   45.9566 H         1 5N2         0.0617
     48 H14         9.3597   -2.4581   42.3363 H         1 5N2         0.2569
     49 H15        10.8151    0.6787   43.6856 H         1 5N2         0.0610
     50 H16         7.9398    5.8216   44.5496 H         1 5N2         0.0546
     51 H17         8.0228    4.0797   44.1188 H         1 5N2         0.0546
     52 H18         8.0402    4.9361   40.4515 H         1 5N2         0.0546
     53 H19         8.1686    3.5387   41.5729 H         1 5N2         0.0546
     54 H20        10.3851    4.1716   40.6646 H         1 5N2         0.0542
     55 H21        10.1825    5.8294   41.3257 H         1 5N2         0.0542
     56 H22         4.7532    7.8495   39.9526 H         1 5N2         0.0800
@<TRIPOS>BOND
     1    1    2 ar 
     2   19    1 ar 
     3    3    2 ar 
     4   17    3 ar 
     5    6    4 1  
     6    4   18 1  
     7    4   20 2  
     8   17    5 1  
     9   21    5 am 
    10    5   22 2  
    11    7    6 1  
    12    7    8 ar 
    13   24    7 ar 
    14    9    8 ar 
    15   10    9 ar 
    16   23   10 ar 
    17   11   23 1  
    18   11   25 2  
    19   26   11 am 
    20   12   26 1  
    21   27   12 1  
    22   28   13 1  
    23   13   31 ar 
    24   13   33 ar 
    25   15   14 ar 
    26   14   32 ar 
    27   33   15 ar 
    28   31   16 1  
    29   16   34 3  
    30   18   17 ar 
    31   18   19 ar 
    32   20   21 1  
    33   23   24 ar 
    34   26   30 1  
    35   27   28 1  
    36   28   29 1  
    37   29   30 1  
    38   31   32 ar 
    39    1   35 1  
    40    2   36 1  
    41    3   37 1  
    42    6   38 1  
    43    6   39 1  
    44    8   40 1  
    45    9   41 1  
    46   10   42 1  
    47   12   43 1  
    48   12   44 1  
    49   14   45 1  
    50   15   46 1  
    51   19   47 1  
    52   21   48 1  
    53   24   49 1  
    54   27   50 1  
    55   27   51 1  
    56   29   52 1  
    57   29   53 1  
    58   30   54 1  
    59   30   55 1  
    60   32   56 1  
@<TRIPOS>SUBSTRUCTURE
     1 5N2         1

