### 
### Created by X-TOOL on Mon Sep 10 21:13:26 2018
### 

@<TRIPOS>MOLECULE
5ech_ligand
   32    32     1     0     0
SMALL
GAST_HUCK


@<TRIPOS>ATOM
      1 O01         3.8280   22.4500  -51.1040 O.2       1 JAA        -0.3913
      2 O02         8.5670   27.5840  -50.3890 O.co2     1 JAA        -0.5690
      3 O03         6.4940   27.9380  -50.0700 O.co2     1 JAA        -0.5690
      4 C04         5.9410   25.2520  -50.5650 C.3       1 JAA        -0.0086
      5 C05         5.6920   23.6100  -50.5110 C.3       1 JAA         0.0385
      6 C06         5.4560   25.5740  -51.6580 C.3       1 JAA        -0.0304
      7 C07         4.0570   24.9020  -51.5140 C.3       1 JAA         0.0219
      8 C08         4.4900   23.4390  -51.0090 C.2       1 JAA         0.1085
      9 C09         5.9630   23.6230  -49.0520 C.3       1 JAA        -0.0273
     10 C10         7.3200   25.7190  -50.5820 C.3       1 JAA         0.0055
     11 C11         5.3650   22.4510  -48.3560 C.3       1 JAA        -0.0341
     12 C12         7.4260   27.1710  -50.3240 C.2       1 JAA         0.0352
     13 C13         4.9650   22.7360  -47.1420 C.2       1 JAA        -0.0988
     14 C14         5.0490   24.1910  -46.8690 C.2       1 JAA        -0.1017
     15 C15         4.6010   24.6390  -45.6100 C.3       1 JAA        -0.0486
     16 H1          5.4133   25.7304  -49.7268 H         1 JAA         0.0348
     17 H2          6.4115   22.9866  -51.0621 H         1 JAA         0.0535
     18 H3          6.0278   25.1588  -52.5010 H         1 JAA         0.0295
     19 H4          5.3793   26.6657  -51.7693 H         1 JAA         0.0295
     20 H5          3.5253   24.8593  -52.4760 H         1 JAA         0.0494
     21 H6          3.4315   25.4198  -50.7719 H         1 JAA         0.0494
     22 H7          5.5407   24.5431  -48.6219 H         1 JAA         0.0312
     23 H8          7.0515   23.6105  -48.8942 H         1 JAA         0.0312
     24 H9          7.7541   25.5030  -51.5693 H         1 JAA         0.0435
     25 H10         7.8851   25.1803  -49.8071 H         1 JAA         0.0435
     26 H11         6.1191   21.6522  -48.2999 H         1 JAA         0.0390
     27 H12         4.5006   22.0990  -48.9381 H         1 JAA         0.0390
     28 H13         4.6146   21.9969  -46.4230 H         1 JAA         0.0450
     29 H14         5.4409   24.8851  -47.6110 H         1 JAA         0.0447
     30 H15         4.7206   25.7306  -45.5454 H         1 JAA         0.0353
     31 H16         5.1931   24.1578  -44.8176 H         1 JAA         0.0353
     32 H17         3.5397   24.3784  -45.4844 H         1 JAA         0.0353
@<TRIPOS>BOND
     1    8    1 2  
     2   12    2 ar 
     3   12    3 ar 
     4    4    5 1  
     5    4    6 1  
     6   10    4 1  
     7    5    8 1  
     8    5    9 1  
     9    6    7 1  
    10    7    8 1  
    11    9   11 1  
    12   10   12 1  
    13   11   13 1  
    14   13   14 2  
    15   14   15 1  
    16    4   16 1  
    17    5   17 1  
    18    6   18 1  
    19    6   19 1  
    20    7   20 1  
    21    7   21 1  
    22    9   22 1  
    23    9   23 1  
    24   10   24 1  
    25   10   25 1  
    26   11   26 1  
    27   11   27 1  
    28   13   28 1  
    29   14   29 1  
    30   15   30 1  
    31   15   31 1  
    32   15   32 1  
@<TRIPOS>SUBSTRUCTURE
     1 JAA         1

