### 
### Created by X-TOOL on Mon Sep 10 21:13:29 2018
### 

@<TRIPOS>MOLECULE
5eci_ligand
   34    34     1     0     0
SMALL
GAST_HUCK


@<TRIPOS>ATOM
      1 O01       -40.4540   36.4910   50.7080 O.2       1 JAA        -0.3913
      2 O02       -43.9430   32.2460   49.2210 O.co2     1 JAA        -0.5690
      3 O03       -43.2030   30.2660   49.5080 O.co2     1 JAA        -0.5690
      4 C04       -41.7040   33.2400   50.5690 C.3       1 JAA        -0.0088
      5 C05       -40.4690   34.2710   50.1940 C.3       1 JAA         0.0370
      6 C06       -41.7080   33.2550   51.8010 C.3       1 JAA        -0.0304
      7 C07       -41.8880   34.7990   51.9380 C.3       1 JAA         0.0219
      8 C08       -40.8180   35.3520   50.8530 C.2       1 JAA         0.1084
      9 C09       -40.8680   34.0610   48.7780 C.3       1 JAA        -0.0339
     10 C10       -41.7360   31.8430   50.1730 C.3       1 JAA         0.0055
     11 C11       -39.8090   34.2700   47.7900 C.3       1 JAA        -0.0507
     12 C12       -43.0500   31.4670   49.5900 C.2       1 JAA         0.0352
     13 C13       -40.1160   33.5580   46.7630 C.3       1 JAA        -0.0532
     14 C14       -41.2830   34.0850   46.0230 C.3       1 JAA        -0.0559
     15 C15       -41.8800   33.0780   45.2130 C.3       1 JAA        -0.0653
     16 H1        -42.6269   33.6914   50.1760 H         1 JAA         0.0348
     17 H2        -39.4343   33.9751   50.4217 H         1 JAA         0.0533
     18 H3        -40.7628   32.8963   52.2345 H         1 JAA         0.0295
     19 H4        -42.5471   32.6885   52.2312 H         1 JAA         0.0295
     20 H5        -41.6431   35.1427   52.9538 H         1 JAA         0.0494
     21 H6        -42.9128   35.1074   51.6836 H         1 JAA         0.0494
     22 H7        -41.6877   34.7580   48.5494 H         1 JAA         0.0293
     23 H8        -41.2274   33.0263   48.6765 H         1 JAA         0.0293
     24 H9        -41.5464   31.2173   51.0576 H         1 JAA         0.0435
     25 H10       -40.9501   31.6667   49.4238 H         1 JAA         0.0435
     26 H11       -38.8400   33.9476   48.1988 H         1 JAA         0.0267
     27 H12       -39.7543   35.3328   47.5118 H         1 JAA         0.0267
     28 H13       -40.3469   32.5369   47.1006 H         1 JAA         0.0265
     29 H14       -39.2519   33.5327   46.0829 H         1 JAA         0.0265
     30 H15       -40.9544   34.9143   45.3794 H         1 JAA         0.0263
     31 H16       -42.0279   34.4532   46.7438 H         1 JAA         0.0263
     32 H17       -42.7425   33.5017   44.6776 H         1 JAA         0.0230
     33 H18       -42.2162   32.2466   45.8499 H         1 JAA         0.0230
     34 H19       -41.1427   32.7077   44.4855 H         1 JAA         0.0230
@<TRIPOS>BOND
     1    8    1 2  
     2   12    2 ar 
     3   12    3 ar 
     4    4    5 1  
     5    4    6 1  
     6   10    4 1  
     7    5    8 1  
     8    5    9 1  
     9    6    7 1  
    10    7    8 1  
    11    9   11 1  
    12   10   12 1  
    13   11   13 1  
    14   13   14 1  
    15   14   15 1  
    16    4   16 1  
    17    5   17 1  
    18    6   18 1  
    19    6   19 1  
    20    7   20 1  
    21    7   21 1  
    22    9   22 1  
    23    9   23 1  
    24   10   24 1  
    25   10   25 1  
    26   11   26 1  
    27   11   27 1  
    28   13   28 1  
    29   13   29 1  
    30   14   30 1  
    31   14   31 1  
    32   15   32 1  
    33   15   33 1  
    34   15   34 1  
@<TRIPOS>SUBSTRUCTURE
     1 JAA         1

