### 
### Created by X-TOOL on Mon Sep 10 21:13:27 2018
### 

@<TRIPOS>MOLECULE
5ecv_ligand
   30    31     1     0     0
SMALL
GAST_HUCK


@<TRIPOS>ATOM
      1 C10        31.8980   74.9700   61.5560 C.ar      1 5M2        -0.0237
      2 C13        35.1240   78.1480   62.8420 C.2       1 5M2        -0.0322
      3 C01        32.1090   76.9240   60.3030 C.3       1 5M2        -0.0343
      4 C02        32.5830   76.0140   61.3090 C.ar      1 5M2        -0.0472
      5 C03        33.8240   76.2350   62.0710 C.ar      1 5M2        -0.0132
      6 C04        34.2240   75.3290   63.0140 C.ar      1 5M2        -0.0753
      7 C05        33.5300   74.2450   63.3010 C.ar      1 5M2        -0.0512
      8 C06        32.3570   74.0340   62.5900 C.ar      1 5M2         0.0569
      9 N07        31.5040   73.0590   62.6620 N.pl3     1 5M2        -0.2833
     10 C08        30.4120   73.3150   61.6820 C.2       1 5M2         0.0185
     11 C09        30.6390   74.4260   61.0370 C.2       1 5M2        -0.0667
     12 C11        34.7060   77.4050   61.8440 C.2       1 5M2         0.0677
     13 O12        35.1080   77.6350   60.5770 O.3       1 5M2        -0.3487
     14 C14        36.3450   79.1660   62.7160 C.3       1 5M2         0.1211
     15 O15        36.6010   79.6970   61.4560 O.3       1 5M2        -0.3710
     16 C16        37.5880   79.0850   63.6820 C.2       1 5M2         0.0699
     17 O17        38.7180   79.2900   63.1370 O.co2     1 5M2        -0.5644
     18 O18        37.3430   78.7740   64.8930 O.co2     1 5M2        -0.5644
     19 H1         34.6134   78.0655   63.8003 H         1 5M2         0.0386
     20 H2         31.1682   76.5436   59.8784 H         1 5M2         0.0390
     21 H3         32.8614   77.0134   59.5056 H         1 5M2         0.0390
     22 H4         31.9344   77.9116   60.7548 H         1 5M2         0.0390
     23 H5         35.1501   75.5094   63.5478 H         1 5M2         0.0502
     24 H6         33.8622   73.5473   64.0612 H         1 5M2         0.0482
     25 H7         31.5707   72.2457   63.2905 H         1 5M2         0.2260
     26 H8         29.5494   72.6687   61.5265 H         1 5M2         0.0905
     27 H9         30.0133   74.8654   60.2615 H         1 5M2         0.0282
     28 H10        35.6642   78.4049   60.5573 H         1 5M2         0.2415
     29 H11        35.8550   80.0395   63.1709 H         1 5M2         0.0863
     30 H12        36.7938   78.9916   60.8495 H         1 5M2         0.2149
@<TRIPOS>BOND
     1    4    1 ar 
     2    1    8 ar 
     3    1   11 1  
     4   12    2 2  
     5    2   14 1  
     6    4    3 1  
     7    5    4 ar 
     8    5    6 ar 
     9    5   12 1  
    10    6    7 ar 
    11    7    8 ar 
    12    8    9 1  
    13    9   10 1  
    14   10   11 2  
    15   12   13 1  
    16   14   15 1  
    17   14   16 1  
    18   16   17 ar 
    19   16   18 ar 
    20    2   19 1  
    21    3   20 1  
    22    3   21 1  
    23    3   22 1  
    24    6   23 1  
    25    7   24 1  
    26    9   25 1  
    27   10   26 1  
    28   11   27 1  
    29   13   28 1  
    30   14   29 1  
    31   15   30 1  
@<TRIPOS>SUBSTRUCTURE
     1 5M2         1

