### 
### Created by X-TOOL on Mon Sep 10 21:13:26 2018
### 

@<TRIPOS>MOLECULE
5edb_ligand
   32    34     1     0     0
SMALL
GAST_HUCK


@<TRIPOS>ATOM
      1 C5          6.2500    8.0400   19.1300 C.ar      1 5M8         0.0349
      2 C6          5.7890    7.7450   21.4630 C.ar      1 5M8         0.0365
      3 C7          4.6360    7.2330   17.3440 C.2       1 5M8         0.0658
      4 C8          3.7690    6.6660   22.2030 C.ar      1 5M8        -0.0337
      5 C17         2.7900    4.8440   19.5660 C.ar      1 5M8        -0.0490
      6 C20         1.6040    4.1590   19.3230 C.ar      1 5M8        -0.0579
      7 C21         0.5060    4.8410   18.8260 C.ar      1 5M8        -0.0588
      8 C1          5.0240    7.3700   18.7530 C.ar      1 5M8         0.0479
      9 C2          4.1950    6.9250   19.7530 C.ar      1 5M8         0.0188
     10 C3          4.5470    7.0900   21.1210 C.ar      1 5M8         0.0119
     11 N4          6.5950    8.1930   20.4280 N.ar      1 5M8        -0.3010
     12 C9          2.9090    6.2500   19.4250 C.ar      1 5M8        -0.0042
     13 O10         4.1150    8.0870   16.6380 O.co2     1 5M8        -0.5618
     14 C11         6.1470    7.9100   22.8130 C.ar      1 5M8        -0.0429
     15 C12         4.1800    6.8400   23.5240 C.ar      1 5M8         0.0444
     16 O13         4.7970    5.9890   16.8560 O.co2     1 5M8        -0.5618
     17 C14         5.3910    7.4920   23.8340 C.ar      1 5M8        -0.0443
     18 CL1         3.2510    6.2730   24.8000 Cl        1 5M8        -0.0700
     19 C16         7.1100    8.5310   17.9870 C.3       1 5M8        -0.0126
     20 C18         1.7460    6.9280   18.9590 C.ar      1 5M8        -0.0490
     21 C19         0.5750    6.2270   18.6490 C.ar      1 5M8        -0.0579
     22 H1          2.8163    6.1869   22.0086 H         1 5M8         0.0659
     23 H2          3.6611    4.2785   19.8766 H         1 5M8         0.0651
     24 H3          1.5395    3.0954   19.5219 H         1 5M8         0.0626
     25 H4         -0.4017    4.3040   18.5756 H         1 5M8         0.0642
     26 H5          7.0861    8.4024   23.0381 H         1 5M8         0.0621
     27 H6          5.6980    7.6487   24.8618 H         1 5M8         0.0655
     28 H7          8.0093    9.0206   18.3889 H         1 5M8         0.0438
     29 H8          6.5397    9.2513   17.3822 H         1 5M8         0.0438
     30 H9          7.4066    7.6782   17.3587 H         1 5M8         0.0438
     31 H10         1.7684    8.0055   18.8425 H         1 5M8         0.0651
     32 H11        -0.2867    6.7631   18.2681 H         1 5M8         0.0626
@<TRIPOS>BOND
     1    8    1 ar 
     2    1   11 ar 
     3    1   19 1  
     4   10    2 ar 
     5    2   11 ar 
     6    2   14 ar 
     7    8    3 1  
     8    3   13 ar 
     9    3   16 ar 
    10   10    4 ar 
    11    4   15 ar 
    12    5    6 ar 
    13   12    5 ar 
    14    6    7 ar 
    15    7   21 ar 
    16    9    8 ar 
    17    9   10 ar 
    18    9   12 1  
    19   12   20 ar 
    20   14   17 ar 
    21   15   17 ar 
    22   15   18 1  
    23   20   21 ar 
    24    4   22 1  
    25    5   23 1  
    26    6   24 1  
    27    7   25 1  
    28   14   26 1  
    29   17   27 1  
    30   19   28 1  
    31   19   29 1  
    32   19   30 1  
    33   20   31 1  
    34   21   32 1  
@<TRIPOS>SUBSTRUCTURE
     1 5M8         1

