### 
### Created by X-TOOL on Mon Sep 10 21:13:26 2018
### 

@<TRIPOS>MOLECULE
5edc_ligand
   44    47     1     0     0
SMALL
GAST_HUCK


@<TRIPOS>ATOM
      1 N1          6.1510    8.0970   19.7160 N.ar      1 5M7        -0.2916
      2 C2          5.7440    7.9180   18.4540 C.ar      1 5M7         0.1242
      3 C3          4.4690    7.2500   18.1540 C.ar      1 5M7         0.0668
      4 C4          3.6870    6.7870   19.1930 C.ar      1 5M7         0.0171
      5 C5          5.3750    7.6390   20.7510 C.ar      1 5M7         0.0282
      6 C6          4.1390    6.9700   20.5450 C.ar      1 5M7         0.0074
      7 C7          3.3770    6.5070   21.6320 C.ar      1 5M7        -0.0364
      8 C8          3.8360    6.7050   22.9070 C.ar      1 5M7         0.0420
      9 C9          5.0680    7.3660   23.1430 C.ar      1 5M7        -0.0467
     10 C10         5.8220    7.8250   22.0980 C.ar      1 5M7        -0.0467
     11 C11         2.4210    6.0910   18.9340 C.ar      1 5M7        -0.0050
     12 C12         2.4310    4.6860   19.0380 C.ar      1 5M7        -0.0491
     13 C13         1.2310    6.7690   18.5800 C.ar      1 5M7        -0.0491
     14 C14         0.0690    6.0200   18.3300 C.ar      1 5M7        -0.0579
     15 C15         1.2690    3.9620   18.8010 C.ar      1 5M7        -0.0579
     16 C16         0.0940    4.6330   18.4490 C.ar      1 5M7        -0.0588
     17 C17         4.0210    7.0860   16.7610 C.2       1 5M7         0.0650
     18 O18         3.7880    6.0490   16.1440 O.co2     1 5M7        -0.5630
     19 O19         3.8200    8.2970   16.1430 O.co2     1 5M7        -0.5630
     20 N20         6.5480    8.4130   17.3530 N.pl3     1 5M7        -0.2900
     21 C21         6.6680    7.4950   16.2180 C.3       1 5M7         0.0317
     22 C22         7.8660    8.8560   17.8230 C.3       1 5M7         0.0317
     23 C23         8.6720    7.6920   18.4190 C.3       1 5M7        -0.0323
     24 C24         7.8200    6.5040   16.4130 C.3       1 5M7        -0.0323
     25 C25         8.1700    6.3690   17.8810 C.3       1 5M7        -0.0493
     26 CL1         2.9120    6.1670   24.2290 Cl        1 5M7        -0.0720
     27 H1          2.4350    5.9981   21.4625 H         1 5M7         0.0654
     28 H2          5.4152    7.5088   24.1599 H         1 5M7         0.0648
     29 H3          6.7610    8.3312   22.2906 H         1 5M7         0.0602
     30 H4          3.3463    4.1692   19.3032 H         1 5M7         0.0651
     31 H5          1.2159    7.8501   18.5028 H         1 5M7         0.0651
     32 H6         -0.8480    6.5225   18.0442 H         1 5M7         0.0626
     33 H7          1.2734    2.8816   18.8886 H         1 5M7         0.0626
     34 H8         -0.8109    4.0650   18.2660 H         1 5M7         0.0642
     35 H9          6.8508    8.0793   15.3041 H         1 5M7         0.0525
     36 H10         5.7281    6.9333   16.1123 H         1 5M7         0.0525
     37 H11         7.7294    9.6280   18.5946 H         1 5M7         0.0525
     38 H12         8.4240    9.2797   16.9750 H         1 5M7         0.0525
     39 H13         8.5657    7.7013   19.5138 H         1 5M7         0.0285
     40 H14         9.7324    7.8121   18.1525 H         1 5M7         0.0285
     41 H15         8.7023    6.8638   15.8634 H         1 5M7         0.0285
     42 H16         7.5201    5.5206   16.0218 H         1 5M7         0.0285
     43 H17         7.2744    6.0641   18.4421 H         1 5M7         0.0267
     44 H18         8.9541    5.6067   17.9996 H         1 5M7         0.0267
@<TRIPOS>BOND
     1    1    2 ar 
     2    1    5 ar 
     3    2    3 ar 
     4    2   20 1  
     5    3    4 ar 
     6    3   17 1  
     7    4    6 ar 
     8    4   11 1  
     9    5    6 ar 
    10    5   10 ar 
    11    6    7 ar 
    12    7    8 ar 
    13    8    9 ar 
    14    8   26 1  
    15    9   10 ar 
    16   11   12 ar 
    17   11   13 ar 
    18   12   15 ar 
    19   13   14 ar 
    20   14   16 ar 
    21   15   16 ar 
    22   17   18 ar 
    23   17   19 ar 
    24   20   21 1  
    25   20   22 1  
    26   21   24 1  
    27   22   23 1  
    28   23   25 1  
    29   24   25 1  
    30    7   27 1  
    31    9   28 1  
    32   10   29 1  
    33   12   30 1  
    34   13   31 1  
    35   14   32 1  
    36   15   33 1  
    37   16   34 1  
    38   21   35 1  
    39   21   36 1  
    40   22   37 1  
    41   22   38 1  
    42   23   39 1  
    43   23   40 1  
    44   24   41 1  
    45   24   42 1  
    46   25   43 1  
    47   25   44 1  
@<TRIPOS>SUBSTRUCTURE
     1 5M7         1

