### 
### Created by X-TOOL on Mon Sep 10 21:13:28 2018
### 

@<TRIPOS>MOLECULE
5edi_ligand
   47    50     1     0     0
SMALL
GAST_HUCK


@<TRIPOS>ATOM
      1 C01        91.0320   -7.9310   16.8210 C.2       1 5M9         0.0697
      2 C02        91.8210   -6.8510   16.4270 C.2       1 5M9        -0.0529
      3 C04        90.8710   -9.1040   15.9580 C.2       1 5M9         0.1249
      4 C06        92.3270   -8.0750   14.2910 C.2       1 5M9         0.1565
      5 N09        91.5390  -10.0560   13.6750 N.2       1 5M9        -0.1972
      6 C10        92.6540  -10.2880   11.3650 C.3       1 5M9         0.0136
      7 C11        93.5440  -11.5020   11.7510 C.3       1 5M9         0.0415
      8 C18        94.1810  -14.2500    6.1790 C.3       1 5M9         0.0275
      9 C19        93.1320  -14.7190    5.2250 C.3       1 5M9        -0.0316
     10 C20        91.9150  -14.9110    6.0200 C.3       1 5M9        -0.0316
     11 C21        92.1210  -14.1150    7.2750 C.3       1 5M9         0.0275
     12 C22        96.4280  -11.8400   10.7290 C.3       1 5M9         0.0569
     13 C23        90.0020  -10.3390   16.3200 C.3       1 5M9         0.0126
     14 C24        93.3690   -5.6630   14.7580 C.3       1 5M9        -0.0331
     15 C03        92.4940   -6.8640   15.1520 C.2       1 5M9        -0.0015
     16 N05        91.5410   -9.1080   14.6520 N.pl3     1 5M9        -0.1384
     17 N07        92.8040   -8.3920   13.0630 N.2       1 5M9        -0.3152
     18 C08        92.3290   -9.5800   12.6820 C.2       1 5M9         0.0554
     19 C12        93.9720  -12.1330   10.4530 C.2       1 5M9         0.1378
     20 N13        93.1560  -12.6330    9.5450 N.2       1 5M9        -0.2778
     21 C14        93.9230  -13.0660    8.5260 C.2       1 5M9         0.1420
     22 N15        95.1640  -12.8440    8.8100 N.2       1 5M9        -0.2086
     23 N16        95.2160  -12.2630   10.0290 N.pl3     1 5M9        -0.1983
     24 N17        93.4600  -13.7040    7.2800 N.pl3     1 5M9        -0.2969
     25 CL1        90.2690   -7.8440   18.3790 Cl        1 5M9        -0.0900
     26 H1         91.9297   -5.9916   17.0870 H         1 5M9         0.0562
     27 H2         91.7304  -10.6296   10.8748 H         1 5M9         0.0478
     28 H3         93.1989   -9.6117   10.6900 H         1 5M9         0.0478
     29 H4         92.9695  -12.2206   12.3539 H         1 5M9         0.0549
     30 H5         94.4230  -11.1657   12.3204 H         1 5M9         0.0549
     31 H6         94.8132  -13.4809    5.7112 H         1 5M9         0.0512
     32 H7         94.8092  -15.0912    6.5072 H         1 5M9         0.0512
     33 H8         93.4368  -15.6675    4.7587 H         1 5M9         0.0285
     34 H9         92.9620  -13.9640    4.4433 H         1 5M9         0.0285
     35 H10        91.7771  -15.9757    6.2594 H         1 5M9         0.0285
     36 H11        91.0361  -14.5416    5.4714 H         1 5M9         0.0285
     37 H12        91.9133  -14.7386    8.1570 H         1 5M9         0.0512
     38 H13        91.4562  -13.2387    7.2807 H         1 5M9         0.0512
     39 H14        97.3090  -12.0856   10.1178 H         1 5M9         0.0584
     40 H15        96.4947  -12.3621   11.6949 H         1 5M9         0.0584
     41 H16        96.3921  -10.7541   10.9008 H         1 5M9         0.0584
     42 H17        89.5647  -10.1993   17.3196 H         1 5M9         0.0478
     43 H18        90.6295  -11.2424   16.3173 H         1 5M9         0.0478
     44 H19        89.1962  -10.4501   15.5796 H         1 5M9         0.0478
     45 H20        93.3288   -4.9037   15.5528 H         1 5M9         0.0362
     46 H21        92.9958   -5.2301   13.8182 H         1 5M9         0.0362
     47 H22        94.4085   -5.9958   14.6212 H         1 5M9         0.0362
@<TRIPOS>BOND
     1    2    1 1  
     2    3    1 2  
     3    1   25 1  
     4   15    2 2  
     5    3   13 1  
     6   16    3 1  
     7    4   15 1  
     8    4   16 1  
     9   17    4 2  
    10    5   16 1  
    11   18    5 2  
    12    7    6 1  
    13    6   18 1  
    14   19    7 1  
    15    8    9 1  
    16   24    8 1  
    17   10    9 1  
    18   11   10 1  
    19   24   11 1  
    20   23   12 1  
    21   15   14 1  
    22   18   17 1  
    23   20   19 2  
    24   19   23 1  
    25   21   20 1  
    26   21   22 2  
    27   21   24 1  
    28   22   23 1  
    29    2   26 1  
    30    6   27 1  
    31    6   28 1  
    32    7   29 1  
    33    7   30 1  
    34    8   31 1  
    35    8   32 1  
    36    9   33 1  
    37    9   34 1  
    38   10   35 1  
    39   10   36 1  
    40   11   37 1  
    41   11   38 1  
    42   12   39 1  
    43   12   40 1  
    44   12   41 1  
    45   13   42 1  
    46   13   43 1  
    47   13   44 1  
    48   14   45 1  
    49   14   46 1  
    50   14   47 1  
@<TRIPOS>SUBSTRUCTURE
     1 5M9         1

