### 
### Created by X-TOOL on Mon Sep 10 21:13:24 2018
### 

@<TRIPOS>MOLECULE
5edq_ligand
   43    47     1     0     0
SMALL
GAST_HUCK


@<TRIPOS>ATOM
      1 C4        -51.3930   -1.1170  -24.8240 C.ar      1 5N3         0.0845
      2 C14       -55.5810    1.8310  -25.1950 C.2       1 5N3         0.0127
      3 C5        -52.1070   -0.5880  -25.9020 C.ar      1 5N3         0.1845
      4 C7        -53.5250    0.4880  -24.4130 C.ar      1 5N3         0.1048
      5 C9        -54.6630    1.4150  -24.2100 C.2       1 5N3         0.0390
      6 C10       -54.9710    2.0740  -23.0530 C.2       1 5N3         0.0716
      7 C3        -51.8090   -0.7950  -23.5340 C.ar      1 5N3         0.0467
      8 C1        -50.0310   -0.4510  -21.8250 C.3       1 5N3        -0.0579
      9 C2        -50.8860   -1.4930  -22.5630 C.3       1 5N3         0.0693
     10 N6        -53.1550    0.1980  -25.6510 N.ar      1 5N3        -0.2334
     11 N8        -52.8640   -0.0020  -23.3660 N.ar      1 5N3        -0.2849
     12 N11       -56.0480    2.8350  -23.2920 N.pl3     1 5N3        -0.2114
     13 N13       -56.4080    2.6650  -24.6330 N.2       1 5N3        -0.2123
     14 N15       -51.7040   -0.8790  -27.1960 N.pl3     1 5N3        -0.2413
     15 C16       -52.3170   -0.3730  -28.3420 C.2       1 5N3         0.1413
     16 C17       -52.6250    1.0250  -28.6660 C.ar      1 5N3         0.0407
     17 C18       -52.4990    2.2630  -28.0050 C.ar      1 5N3        -0.0614
     18 C19       -52.9100    3.4190  -28.6290 C.ar      1 5N3        -0.0719
     19 C20       -53.4120    3.3920  -29.9350 C.ar      1 5N3        -0.0569
     20 C21       -53.5810    2.1760  -30.5750 C.ar      1 5N3         0.0644
     21 C22       -53.1740    0.9940  -29.9640 C.ar      1 5N3         0.0974
     22 N23       -53.1860   -0.3050  -30.3760 N.pl3     1 5N3        -0.2281
     23 N25       -52.6480   -1.1010  -29.3700 N.2       1 5N3        -0.2026
     24 CL        -54.2180    2.0570  -32.1770 Cl        1 5N3        -0.0773
     25 C27       -50.1940   -2.0250  -24.7290 C.3       1 5N3         0.0980
     26 O28       -50.0650   -2.3910  -23.3400 O.3       1 5N3        -0.3853
     27 C29       -51.7030   -2.3080  -21.5560 C.3       1 5N3        -0.0579
     28 H1        -55.5960    1.5129  -26.2364 H         1 5N3         0.0694
     29 H2        -54.4373    1.9950  -22.1070 H         1 5N3         0.1105
     30 H3        -49.3598   -0.9614  -21.1186 H         1 5N3         0.0164
     31 H4        -50.6876    0.2383  -21.2739 H         1 5N3         0.0164
     32 H5        -49.4335    0.1159  -22.5541 H         1 5N3         0.0164
     33 H6        -56.5265    3.4389  -22.6084 H         1 5N3         0.2624
     34 H7        -50.8993   -1.5101  -27.3192 H         1 5N3         0.2167
     35 H8        -52.0790    2.3050  -27.0065 H         1 5N3         0.0601
     36 H9        -52.8439    4.3636  -28.1013 H         1 5N3         0.0525
     37 H10       -53.6665    4.3159  -30.4416 H         1 5N3         0.0587
     38 H11       -53.5362   -0.6423  -31.2840 H         1 5N3         0.2362
     39 H12       -49.2903   -1.4975  -25.0682 H         1 5N3         0.0816
     40 H13       -50.3477   -2.9229  -25.3456 H         1 5N3         0.0816
     41 H14       -52.3113   -3.0507  -22.0930 H         1 5N3         0.0164
     42 H15       -52.3626   -1.6349  -20.9887 H         1 5N3         0.0164
     43 H16       -51.0219   -2.8238  -20.8632 H         1 5N3         0.0164
@<TRIPOS>BOND
     1    3    1 ar 
     2    1    7 ar 
     3    1   25 1  
     4    5    2 1  
     5    2   13 2  
     6   10    3 ar 
     7    3   14 1  
     8    4    5 1  
     9    4   10 ar 
    10    4   11 ar 
    11    5    6 2  
    12    6   12 1  
    13    7    9 1  
    14    7   11 ar 
    15    9    8 1  
    16    9   26 1  
    17    9   27 1  
    18   12   13 1  
    19   14   15 1  
    20   15   16 1  
    21   15   23 2  
    22   16   17 ar 
    23   16   21 ar 
    24   17   18 ar 
    25   18   19 ar 
    26   19   20 ar 
    27   20   21 ar 
    28   20   24 1  
    29   21   22 1  
    30   22   23 1  
    31   25   26 1  
    32    2   28 1  
    33    6   29 1  
    34    8   30 1  
    35    8   31 1  
    36    8   32 1  
    37   12   33 1  
    38   14   34 1  
    39   17   35 1  
    40   18   36 1  
    41   19   37 1  
    42   22   38 1  
    43   25   39 1  
    44   25   40 1  
    45   27   41 1  
    46   27   42 1  
    47   27   43 1  
@<TRIPOS>SUBSTRUCTURE
     1 5N3         1

