### 
### Created by X-TOOL on Mon Sep 10 21:13:24 2018
### 

@<TRIPOS>MOLECULE
5edr_ligand
   46    50     1     0     0
SMALL
GAST_HUCK


@<TRIPOS>ATOM
      1 C4        -51.1190   -0.9520  -24.6210 C.ar      1 5N4         0.0883
      2 C14       -54.7240    1.7880  -21.8010 C.3       1 5N4         0.0605
      3 C5        -51.7440   -0.4470  -25.7700 C.ar      1 5N4         0.1886
      4 C11       -56.4270    2.4670  -24.9100 C.2       1 5N4         0.0054
      5 C7        -53.3540    0.5510  -24.4070 C.ar      1 5N4         0.1497
      6 C9        -54.5890    1.3630  -24.3160 C.2       1 5N4         0.1273
      7 C10       -55.3590    1.7240  -25.3860 C.2       1 5N4        -0.0296
      8 C3        -51.6850   -0.6700  -23.3750 C.ar      1 5N4         0.0533
      9 C1        -50.1220   -0.1900  -21.5060 C.3       1 5N4        -0.0575
     10 C2        -50.8250   -1.3030  -22.3020 C.3       1 5N4         0.0711
     11 N6        -52.8600    0.2680  -25.6050 N.ar      1 5N4        -0.2231
     12 N8        -52.7860    0.0640  -23.3140 N.ar      1 5N4        -0.2726
     13 N12       -56.3170    2.5860  -23.6120 N.2       1 5N4        -0.2075
     14 N13       -55.1790    1.8890  -23.1920 N.pl3     1 5N4        -0.1968
     15 N15       -51.2130   -0.6850  -27.0360 N.pl3     1 5N4        -0.2407
     16 C16       -51.7040   -0.1170  -28.2290 C.2       1 5N4         0.1413
     17 C17       -52.0740    1.2860  -28.5080 C.ar      1 5N4         0.0401
     18 C18       -52.1010    2.4780  -27.7580 C.ar      1 5N4        -0.0616
     19 C19       -52.5440    3.6370  -28.3490 C.ar      1 5N4        -0.0725
     20 C20       -52.9260    3.6680  -29.7020 C.ar      1 5N4        -0.0710
     21 C21       -52.8910    2.5310  -30.4620 C.ar      1 5N4        -0.0368
     22 C22       -52.4770    1.3230  -29.8700 C.ar      1 5N4         0.0834
     23 N23       -52.3510    0.0440  -30.3440 N.pl3     1 5N4        -0.2289
     24 N25       -51.8870   -0.7920  -29.3330 N.2       1 5N4        -0.2027
     25 C26       -49.8800   -1.7790  -24.3900 C.3       1 5N4         0.0996
     26 O27       -49.8780   -2.1470  -22.9930 O.3       1 5N4        -0.3842
     27 C28       -51.6770   -2.1740  -21.3640 C.3       1 5N4        -0.0575
     28 H1        -55.4272    2.3226  -21.1455 H         1 5N4         0.0601
     29 H2        -53.7238    2.2364  -21.7089 H         1 5N4         0.0601
     30 H3        -54.6799    0.7293  -21.5055 H         1 5N4         0.0601
     31 H4        -57.2283    2.8844  -25.5180 H         1 5N4         0.0685
     32 H5        -55.1670    1.4722  -26.4280 H         1 5N4         0.0436
     33 H6        -49.4939   -0.6399  -20.7230 H         1 5N4         0.0165
     34 H7        -50.8769    0.4613  -21.0413 H         1 5N4         0.0165
     35 H8        -49.4924    0.4044  -22.1845 H         1 5N4         0.0165
     36 H9        -50.4053   -1.3204  -27.1050 H         1 5N4         0.2167
     37 H10       -51.7753    2.4811  -26.7241 H         1 5N4         0.0599
     38 H11       -52.6001    4.5455  -27.7603 H         1 5N4         0.0524
     39 H12       -53.2512    4.6015  -30.1469 H         1 5N4         0.0581
     40 H13       -53.1784    2.5601  -31.5068 H         1 5N4         0.0553
     41 H14       -52.5675   -0.2545  -31.3057 H         1 5N4         0.2358
     42 H15       -48.9819   -1.1900  -24.6277 H         1 5N4         0.0823
     43 H16       -49.9041   -2.6810  -25.0191 H         1 5N4         0.0823
     44 H17       -52.1727   -2.9642  -21.9470 H         1 5N4         0.0165
     45 H18       -52.4374   -1.5489  -20.8731 H         1 5N4         0.0165
     46 H19       -51.0305   -2.6321  -20.6010 H         1 5N4         0.0165
@<TRIPOS>BOND
     1    3    1 ar 
     2    1    8 ar 
     3    1   25 1  
     4   14    2 1  
     5   11    3 ar 
     6    3   15 1  
     7    7    4 1  
     8    4   13 2  
     9    6    5 1  
    10    5   11 ar 
    11    5   12 ar 
    12    6    7 2  
    13    6   14 1  
    14    8   10 1  
    15    8   12 ar 
    16   10    9 1  
    17   10   26 1  
    18   10   27 1  
    19   13   14 1  
    20   15   16 1  
    21   16   17 1  
    22   16   24 2  
    23   17   18 ar 
    24   17   22 ar 
    25   18   19 ar 
    26   19   20 ar 
    27   20   21 ar 
    28   21   22 ar 
    29   22   23 1  
    30   23   24 1  
    31   25   26 1  
    32    2   28 1  
    33    2   29 1  
    34    2   30 1  
    35    4   31 1  
    36    7   32 1  
    37    9   33 1  
    38    9   34 1  
    39    9   35 1  
    40   15   36 1  
    41   18   37 1  
    42   19   38 1  
    43   20   39 1  
    44   21   40 1  
    45   23   41 1  
    46   25   42 1  
    47   25   43 1  
    48   27   44 1  
    49   27   45 1  
    50   27   46 1  
@<TRIPOS>SUBSTRUCTURE
     1 5N4         1

