### 
### Created by X-TOOL on Mon Sep 10 21:13:25 2018
### 

@<TRIPOS>MOLECULE
5eds_ligand
   50    53     1     0     0
SMALL
GAST_HUCK


@<TRIPOS>ATOM
      1 C20        16.7290   22.1290   19.6290 C.3       1 5MT         0.0594
      2 S1         18.3800   21.5970   20.0450 S.o2      1 5MT        -0.0077
      3 O1         19.2870   21.8020   18.8610 O.2       1 5MT        -0.1698
      4 O2         18.9030   22.3700   21.2230 O.2       1 5MT        -0.1698
      5 C18        18.2930   19.8950   20.4560 C.ar      1 5MT         0.0821
      6 C19        19.1250   18.9760   19.8180 C.ar      1 5MT        -0.0051
      7 C17        17.3790   19.4640   21.4200 C.ar      1 5MT        -0.0455
      8 C16        17.2910   18.1120   21.7440 C.ar      1 5MT        -0.0660
      9 C15        18.1200   17.1950   21.1010 C.ar      1 5MT        -0.0298
     10 C14        19.0410   17.6270   20.1450 C.ar      1 5MT         0.0968
     11 N5         19.8400   16.7670   19.5250 N.pl3     1 5MT        -0.1872
     12 C9         19.6560   16.3620   18.2830 C.ar      1 5MT         0.0958
     13 C10        18.6920   16.6430   17.3190 C.ar      1 5MT        -0.0058
     14 C11        18.7670   16.0360   16.0660 C.ar      1 5MT         0.1182
     15 F1         17.8370   16.2970   15.1250 F         1 5MT        -0.1920
     16 C12        19.8050   15.1510   15.7840 C.ar      1 5MT        -0.0436
     17 C13        20.7700   14.8820   16.7500 C.ar      1 5MT        -0.0653
     18 C8         20.6990   15.4860   18.0030 C.ar      1 5MT         0.0216
     19 N6         21.4730   15.4020   19.0860 N.2       1 5MT        -0.3146
     20 C7         20.9360   16.1830   20.0170 C.2       1 5MT         0.1641
     21 C6         21.5270   16.3850   21.4240 C.3       1 5MT         0.1235
     22 C21        22.6420   17.4160   21.2640 C.3       1 5MT        -0.0228
     23 N4         22.0950   15.1400   22.0150 N.pl3     1 5MT        -0.2740
     24 C2         21.3480   14.1470   22.5280 C.ar      1 5MT         0.1541
     25 N2         20.0160   14.2560   22.5140 N.ar      1 5MT        -0.2563
     26 C1         19.2320   13.2960   23.0020 C.ar      1 5MT         0.0658
     27 N1         19.7100   12.1800   23.5270 N.ar      1 5MT        -0.2566
     28 C4         21.0370   11.9960   23.5720 C.ar      1 5MT         0.1489
     29 N3         21.5220   10.8740   24.0880 N.pl3     1 5MT        -0.3103
     30 C3         21.8940   12.9760   23.0740 C.ar      1 5MT         0.1776
     31 C5         23.2970   12.7380   23.1370 C.1       1 5MT         0.0901
     32 N7         24.4220   12.5580   23.1840 N.1       1 5MT        -0.3468
     33 H1         16.3645   21.5524   18.7660 H         1 5MT         0.0468
     34 H2         16.7415   23.1994   19.3759 H         1 5MT         0.0468
     35 H3         16.0628   21.9631   20.4885 H         1 5MT         0.0468
     36 H4         19.8344   19.3116   19.0702 H         1 5MT         0.0588
     37 H5         16.7372   20.1825   21.9168 H         1 5MT         0.0563
     38 H6         16.5820   17.7754   22.4917 H         1 5MT         0.0596
     39 H7         18.0494   16.1410   21.3443 H         1 5MT         0.0569
     40 H8         17.8852   17.3318   17.5418 H         1 5MT         0.0531
     41 H9         19.8611   14.6723   14.8131 H         1 5MT         0.0514
     42 H10        21.5812   14.1988   16.5260 H         1 5MT         0.0532
     43 H11        20.7457   16.7701   22.0957 H         1 5MT         0.0834
     44 H12        23.1086   17.6062   22.2418 H         1 5MT         0.0284
     45 H13        22.2213   18.3529   20.8701 H         1 5MT         0.0284
     46 H14        23.3993   17.0316   20.5650 H         1 5MT         0.0284
     47 H15        23.1194   15.0344   22.0313 H         1 5MT         0.1923
     48 H16        18.1575   13.4352   22.9674 H         1 5MT         0.1109
     49 H17        22.5401   10.7231   24.1271 H         1 5MT         0.1847
     50 H18        20.8804   10.1539   24.4494 H         1 5MT         0.1847
@<TRIPOS>BOND
     1    1    2 1  
     2    2    3 2  
     3    2    4 2  
     4    2    5 1  
     5    5    6 ar 
     6    5    7 ar 
     7    6   10 ar 
     8    7    8 ar 
     9    8    9 ar 
    10    9   10 ar 
    11   10   11 1  
    12   11   12 1  
    13   11   20 1  
    14   12   13 ar 
    15   12   18 ar 
    16   13   14 ar 
    17   14   15 1  
    18   14   16 ar 
    19   16   17 ar 
    20   17   18 ar 
    21   18   19 1  
    22   19   20 2  
    23   20   21 1  
    24   21   22 1  
    25   21   23 1  
    26   23   24 1  
    27   24   25 ar 
    28   24   30 ar 
    29   25   26 ar 
    30   26   27 ar 
    31   27   28 ar 
    32   28   29 1  
    33   28   30 ar 
    34   30   31 1  
    35   31   32 3  
    36    1   33 1  
    37    1   34 1  
    38    1   35 1  
    39    6   36 1  
    40    7   37 1  
    41    8   38 1  
    42    9   39 1  
    43   13   40 1  
    44   16   41 1  
    45   17   42 1  
    46   21   43 1  
    47   22   44 1  
    48   22   45 1  
    49   22   46 1  
    50   23   47 1  
    51   26   48 1  
    52   29   49 1  
    53   29   50 1  
@<TRIPOS>SUBSTRUCTURE
     1 5MT         1

