### 
### Created by X-TOOL on Mon Sep 10 21:13:29 2018
### 

@<TRIPOS>MOLECULE
5edu_ligand
   44    44     1     0     0
SMALL
GAST_HUCK


@<TRIPOS>ATOM
      1 O1         -2.6760    1.7310   10.3130 O.3       1 TSN        -0.2729
      2 O2         -3.5680    3.8130    8.9150 O.2       1 TSN        -0.3988
      3 O3         -1.0750    7.5530    2.9690 O.2       1 TSN        -0.3812
      4 N1         -1.8540    2.7660    9.8730 N.am      1 TSN        -0.1684
      5 N2         -2.5010   13.5320    4.5170 N.pl3     1 TSN        -0.3118
      6 C1         -1.1890    9.6210    4.1020 C.ar      1 TSN         0.0217
      7 C2         -2.0240   10.1880    3.1460 C.ar      1 TSN        -0.0543
      8 C3         -2.4630   11.4990    3.2870 C.ar      1 TSN        -0.0377
      9 C4         -2.0670   12.2510    4.3870 C.ar      1 TSN         0.0456
     10 C5         -1.2290   11.6840    5.3440 C.ar      1 TSN        -0.0377
     11 C6         -0.7910   10.3710    5.2020 C.ar      1 TSN        -0.0543
     12 C7         -0.7190    8.2050    3.9380 C.2       1 TSN         0.1385
     13 C8          0.1780    7.5780    4.9610 C.3       1 TSN         0.0582
     14 C9         -0.6160    6.5000    5.6590 C.2       1 TSN        -0.0497
     15 C10        -0.3490    6.0280    6.8890 C.2       1 TSN        -0.0439
     16 C11        -1.2260    4.9700    7.4250 C.2       1 TSN        -0.0556
     17 C12        -1.4820    4.8480    8.7240 C.2       1 TSN        -0.0023
     18 C13        -2.3780    3.7630    9.1720 C.2       1 TSN         0.2026
     19 C14         1.3640    6.9590    4.2310 C.3       1 TSN        -0.0365
     20 C15         0.8020    6.5450    7.7030 C.3       1 TSN        -0.0375
     21 C17        -3.3760   14.1160    3.5100 C.3       1 TSN         0.0163
     22 C16        -2.0940   14.3310    5.6610 C.3       1 TSN         0.0163
     23 H1         -2.1567    1.0994   10.7965 H         1 TSN         0.2489
     24 H2         -0.8765    2.7575   10.0839 H         1 TSN         0.2198
     25 H3         -2.3341    9.6048    2.2865 H         1 TSN         0.0638
     26 H4         -3.1146   11.9355    2.5387 H         1 TSN         0.0531
     27 H5         -0.9169   12.2676    6.2025 H         1 TSN         0.0531
     28 H6         -0.1393    9.9332    5.9494 H         1 TSN         0.0638
     29 H7          0.5263    8.3278    5.6865 H         1 TSN         0.0699
     30 H8         -1.4660    6.0743    5.1278 H         1 TSN         0.0697
     31 H9         -1.6801    4.2634    6.7319 H         1 TSN         0.0698
     32 H10        -1.0394    5.5350    9.4438 H         1 TSN         0.0537
     33 H11         1.9369    7.7503    3.7254 H         1 TSN         0.0283
     34 H12         0.9995    6.2370    3.4855 H         1 TSN         0.0283
     35 H13         2.0116    6.4431    4.9551 H         1 TSN         0.0283
     36 H14         1.3318    7.3242    7.1353 H         1 TSN         0.0349
     37 H15         1.4938    5.7193    7.9257 H         1 TSN         0.0349
     38 H16         0.4237    6.9704    8.6442 H         1 TSN         0.0349
     39 H17        -3.6163   15.1524    3.7896 H         1 TSN         0.0480
     40 H18        -4.3041   13.5290    3.4457 H         1 TSN         0.0480
     41 H19        -2.8686   14.1079    2.5341 H         1 TSN         0.0480
     42 H20        -1.4397   13.7326    6.3120 H         1 TSN         0.0480
     43 H21        -2.9849   14.6444    6.2250 H         1 TSN         0.0480
     44 H22        -1.5494   15.2206    5.3118 H         1 TSN         0.0480
@<TRIPOS>BOND
     1    4    1 1  
     2   18    2 2  
     3   12    3 2  
     4   18    4 am 
     5    9    5 1  
     6    5   21 1  
     7    5   22 1  
     8    6    7 ar 
     9    6   11 ar 
    10   12    6 1  
    11    7    8 ar 
    12    8    9 ar 
    13   10    9 ar 
    14   11   10 ar 
    15   13   12 1  
    16   14   13 1  
    17   13   19 1  
    18   15   14 2  
    19   16   15 1  
    20   15   20 1  
    21   17   16 2  
    22   17   18 1  
    23    1   23 1  
    24    4   24 1  
    25    7   25 1  
    26    8   26 1  
    27   10   27 1  
    28   11   28 1  
    29   13   29 1  
    30   14   30 1  
    31   16   31 1  
    32   17   32 1  
    33   19   33 1  
    34   19   34 1  
    35   19   35 1  
    36   20   36 1  
    37   20   37 1  
    38   20   38 1  
    39   21   39 1  
    40   21   40 1  
    41   21   41 1  
    42   22   42 1  
    43   22   43 1  
    44   22   44 1  
@<TRIPOS>SUBSTRUCTURE
     1 TSN         1

