### 
### Created by X-TOOL on Mon Sep 10 21:13:29 2018
### 

@<TRIPOS>MOLECULE
5ee7_ligand
   67    71     1     0     0
SMALL
GAST_HUCK


@<TRIPOS>ATOM
      1 N1        -32.0820    1.6940  -39.7040 N.2       1 5MV        -0.2057
      2 N3        -27.2990    5.9770  -34.7060 N.am      1 5MV        -0.2855
      3 C4        -37.0510    1.8110  -41.0300 C.ar      1 5MV        -0.0347
      4 C5        -36.9220    1.2550  -39.7500 C.ar      1 5MV         0.0406
      5 C6        -35.6450    1.0170  -39.2110 C.ar      1 5MV        -0.0408
      6 C7        -33.1720    1.0560  -39.3210 C.2       1 5MV         0.0405
      7 C8        -32.8920    0.1390  -38.2720 C.2       1 5MV        -0.0321
      8 C10       -30.4550   -1.1390  -34.6860 C.ar      1 5MV        -0.0591
      9 C13       -29.5540   -1.1570  -37.3610 C.ar      1 5MV        -0.0479
     10 C15       -29.2750   -1.8180  -35.0100 C.ar      1 5MV        -0.0282
     11 C17       -27.3550   -3.1760  -34.3070 C.ar      1 5MV         0.0923
     12 C20       -29.7320    1.7480  -39.1140 C.3       1 5MV         0.1136
     13 C21       -28.9070    4.7000  -35.9900 C.ar      1 5MV         0.0427
     14 C22       -27.8660    3.9620  -36.5820 C.ar      1 5MV        -0.0484
     15 C24       -29.4690    2.8000  -38.0220 C.ar      1 5MV        -0.0037
     16 C26       -30.2370    4.4870  -36.4060 C.ar      1 5MV        -0.0484
     17 C28       -28.5870    5.6900  -34.9220 C.2       1 5MV         0.2000
     18 C1        -34.4770    1.3250  -39.9410 C.ar      1 5MV        -0.0125
     19 C2        -34.6150    1.8920  -41.2300 C.ar      1 5MV        -0.0408
     20 C3        -35.8960    2.1280  -41.7650 C.ar      1 5MV         0.0406
     21 CL1       -36.0690    2.8080  -43.3360 Cl        1 5MV        -0.0709
     22 CL2       -38.3270    0.8630  -38.8340 Cl        1 5MV        -0.0709
     23 C9        -31.5540    0.2510  -38.0390 C.2       1 5MV         0.0928
     24 C11       -31.1680   -0.4810  -35.6930 C.ar      1 5MV        -0.0547
     25 C12       -30.7470   -0.4710  -37.0400 C.ar      1 5MV         0.0074
     26 C14       -28.8220   -1.8290  -36.3510 C.ar      1 5MV        -0.0239
     27 C16       -28.5510   -2.4830  -33.9990 C.ar      1 5MV        -0.0287
     28 C18       -26.9110   -3.1820  -35.6440 C.ar      1 5MV        -0.0272
     29 C19       -27.6340   -2.5190  -36.6550 C.ar      1 5MV        -0.0561
     30 C25       -30.5150    3.5410  -37.4120 C.ar      1 5MV        -0.0514
     31 N2        -31.0790    1.2090  -38.9330 N.pl3     1 5MV        -0.1863
     32 O1        -26.5950   -3.8490  -33.3750 O.3       1 5MV        -0.3202
     33 C27       -26.6640   -3.3970  -32.0290 C.3       1 5MV         0.0599
     34 O2        -29.5060    6.1930  -34.2850 O.2       1 5MV        -0.3878
     35 C29       -26.8570    6.9180  -33.6870 C.3       1 5MV         0.0417
     36 C30       -27.0710    6.3810  -32.2630 C.3       1 5MV         0.0203
     37 C31       -26.5520    7.3620  -31.2210 C.2       1 5MV         0.0367
     38 O3        -27.3490    7.7650  -30.3480 O.co2     1 5MV        -0.5689
     39 O4        -25.3480    7.7050  -31.3010 O.co2     1 5MV        -0.5689
     40 C32       -29.5920    2.3540  -40.5240 C.3       1 5MV        -0.0218
     41 C23       -28.1450    3.0210  -37.5850 C.ar      1 5MV        -0.0514
     42 H1        -26.6081    5.5247  -35.2700 H         1 5MV         0.1844
     43 H2        -38.0335    1.9950  -41.4495 H         1 5MV         0.0622
     44 H3        -35.5563    0.5900  -38.2186 H         1 5MV         0.0623
     45 H4        -33.5977   -0.5151  -37.7620 H         1 5MV         0.0377
     46 H5        -30.8133   -1.1233  -33.6630 H         1 5MV         0.0592
     47 H6        -29.1973   -1.1692  -38.3846 H         1 5MV         0.0623
     48 H7        -29.0001    0.9338  -39.0073 H         1 5MV         0.0844
     49 H8        -26.8427    4.1210  -36.2617 H         1 5MV         0.0652
     50 H9        -31.0445    5.0503  -35.9524 H         1 5MV         0.0652
     51 H10       -33.7328    2.1452  -41.8068 H         1 5MV         0.0623
     52 H11       -32.0800    0.0420  -35.4286 H         1 5MV         0.0615
     53 H12       -28.9130   -2.4636  -32.9774 H         1 5MV         0.0500
     54 H13       -25.9970   -3.7060  -35.8992 H         1 5MV         0.0590
     55 H14       -27.2718   -2.5406  -37.6765 H         1 5MV         0.0619
     56 H15       -31.5400    3.3768  -37.7241 H         1 5MV         0.0571
     57 H16       -26.0123   -4.0203  -31.3991 H         1 5MV         0.0579
     58 H17       -27.7011   -3.4713  -31.6699 H         1 5MV         0.0579
     59 H18       -26.3319   -2.3497  -31.9764 H         1 5MV         0.0579
     60 H19       -27.4235    7.8540  -33.8006 H         1 5MV         0.0537
     61 H20       -25.7851    7.1182  -33.8318 H         1 5MV         0.0537
     62 H21       -26.5353    5.4264  -32.1552 H         1 5MV         0.0450
     63 H22       -28.1464    6.2186  -32.0986 H         1 5MV         0.0450
     64 H23       -28.5762    2.7566  -40.6508 H         1 5MV         0.0284
     65 H24       -30.3257    3.1639  -40.6496 H         1 5MV         0.0284
     66 H25       -29.7740    1.5741  -41.2781 H         1 5MV         0.0284
     67 H26       -27.3335    2.4566  -38.0299 H         1 5MV         0.0571
@<TRIPOS>BOND
     1    6    1 2  
     2    1   31 1  
     3   17    2 am 
     4    2   35 1  
     5    4    3 ar 
     6   20    3 ar 
     7    5    4 ar 
     8    4   22 1  
     9   18    5 ar 
    10    7    6 1  
    11    6   18 1  
    12   23    7 2  
    13   10    8 ar 
    14    8   24 ar 
    15   25    9 ar 
    16    9   26 ar 
    17   26   10 ar 
    18   10   27 ar 
    19   27   11 ar 
    20   11   28 ar 
    21   11   32 1  
    22   12   15 1  
    23   31   12 1  
    24   12   40 1  
    25   14   13 ar 
    26   16   13 ar 
    27   13   17 1  
    28   41   14 ar 
    29   15   30 ar 
    30   15   41 ar 
    31   30   16 ar 
    32   17   34 2  
    33   18   19 ar 
    34   19   20 ar 
    35   20   21 1  
    36   23   25 1  
    37   23   31 1  
    38   24   25 ar 
    39   26   29 ar 
    40   28   29 ar 
    41   32   33 1  
    42   35   36 1  
    43   36   37 1  
    44   37   38 ar 
    45   37   39 ar 
    46    2   42 1  
    47    3   43 1  
    48    5   44 1  
    49    7   45 1  
    50    8   46 1  
    51    9   47 1  
    52   12   48 1  
    53   14   49 1  
    54   16   50 1  
    55   19   51 1  
    56   24   52 1  
    57   27   53 1  
    58   28   54 1  
    59   29   55 1  
    60   30   56 1  
    61   33   57 1  
    62   33   58 1  
    63   33   59 1  
    64   35   60 1  
    65   35   61 1  
    66   36   62 1  
    67   36   63 1  
    68   40   64 1  
    69   40   65 1  
    70   40   66 1  
    71   41   67 1  
@<TRIPOS>SUBSTRUCTURE
     1 5MV         1

