### 
### Created by X-TOOL on Mon Sep 10 21:13:29 2018
### 

@<TRIPOS>MOLECULE
5eef_ligand
   44    44     1     0     0
SMALL
GAST_HUCK


@<TRIPOS>ATOM
      1 O1        -17.0420  -35.1790  -11.4350 O.3       1 TSN        -0.2729
      2 O2        -16.1850  -37.6000  -11.7880 O.2       1 TSN        -0.3988
      3 O3        -17.1660  -44.1550  -14.6320 O.2       1 TSN        -0.3812
      4 N1        -17.8850  -36.2440  -11.5740 N.am      1 TSN        -0.1684
      5 N2        -19.6510  -48.7420  -11.0320 N.pl3     1 TSN        -0.3118
      6 C1        -18.5460  -45.3900  -13.2140 C.ar      1 TSN         0.0217
      7 C2        -17.6170  -46.3610  -12.9480 C.ar      1 TSN        -0.0543
      8 C3        -17.9660  -47.4790  -12.2290 C.ar      1 TSN        -0.0377
      9 C4        -19.2550  -47.6120  -11.7660 C.ar      1 TSN         0.0456
     10 C5        -20.1610  -46.6260  -12.0390 C.ar      1 TSN        -0.0377
     11 C6        -19.8210  -45.5150  -12.7500 C.ar      1 TSN        -0.0543
     12 C7        -18.1630  -44.1830  -13.9710 C.2       1 TSN         0.1385
     13 C8        -19.0630  -43.0010  -13.8670 C.3       1 TSN         0.0582
     14 C9        -18.2970  -41.7960  -13.3970 C.2       1 TSN        -0.0497
     15 C10       -18.7470  -40.8830  -12.5470 C.2       1 TSN        -0.0439
     16 C11       -17.8340  -39.7660  -12.2600 C.2       1 TSN        -0.0556
     17 C12       -18.2750  -38.5520  -12.0070 C.2       1 TSN        -0.0023
     18 C13       -17.3680  -37.4350  -11.7620 C.2       1 TSN         0.2026
     19 C14       -19.7030  -42.7710  -15.2260 C.3       1 TSN        -0.0365
     20 C15       -20.1000  -40.9830  -11.9440 C.3       1 TSN        -0.0375
     21 C17       -18.7730  -49.8740  -10.9060 C.3       1 TSN         0.0163
     22 C16       -20.9400  -48.8130  -10.3820 C.3       1 TSN         0.0163
     23 H1        -16.5120  -35.0917  -12.2186 H         1 TSN         0.2489
     24 H2        -18.8763  -36.1187  -11.5333 H         1 TSN         0.2198
     25 H3        -16.6005  -46.2468  -13.3068 H         1 TSN         0.0638
     26 H4        -17.2313  -48.2503  -12.0281 H         1 TSN         0.0531
     27 H5        -21.1784  -46.7309  -11.6798 H         1 TSN         0.0531
     28 H6        -20.5547  -44.7410  -12.9440 H         1 TSN         0.0638
     29 H7        -19.8548  -43.2154  -13.1342 H         1 TSN         0.0699
     30 H8        -17.2891  -41.6617  -13.7868 H         1 TSN         0.0697
     31 H9        -16.7605  -39.9491  -12.2568 H         1 TSN         0.0698
     32 H10       -19.3493  -38.3756  -11.9796 H         1 TSN         0.0537
     33 H11       -20.2514  -43.6746  -15.5306 H         1 TSN         0.0283
     34 H12       -18.9207  -42.5497  -15.9670 H         1 TSN         0.0283
     35 H13       -20.4001  -41.9224  -15.1641 H         1 TSN         0.0283
     36 H14       -20.5950  -41.8971  -12.3036 H         1 TSN         0.0349
     37 H15       -20.6963  -40.1051  -12.2334 H         1 TSN         0.0349
     38 H16       -20.0112  -41.0209  -10.8483 H         1 TSN         0.0349
     39 H17       -19.2608  -50.6505  -10.2985 H         1 TSN         0.0480
     40 H18       -17.8381  -49.5605  -10.4184 H         1 TSN         0.0480
     41 H19       -18.5485  -50.2769  -11.9046 H         1 TSN         0.0480
     42 H20       -21.4951  -47.8813  -10.5658 H         1 TSN         0.0480
     43 H21       -20.7979  -48.9477   -9.2996 H         1 TSN         0.0480
     44 H22       -21.5080  -49.6639  -10.7860 H         1 TSN         0.0480
@<TRIPOS>BOND
     1    4    1 1  
     2   18    2 2  
     3   12    3 2  
     4   18    4 am 
     5    9    5 1  
     6    5   21 1  
     7    5   22 1  
     8    6    7 ar 
     9    6   11 ar 
    10   12    6 1  
    11    7    8 ar 
    12    8    9 ar 
    13   10    9 ar 
    14   11   10 ar 
    15   13   12 1  
    16   14   13 1  
    17   13   19 1  
    18   15   14 2  
    19   16   15 1  
    20   15   20 1  
    21   17   16 2  
    22   17   18 1  
    23    1   23 1  
    24    4   24 1  
    25    7   25 1  
    26    8   26 1  
    27   10   27 1  
    28   11   28 1  
    29   13   29 1  
    30   14   30 1  
    31   16   31 1  
    32   17   32 1  
    33   19   33 1  
    34   19   34 1  
    35   19   35 1  
    36   20   36 1  
    37   20   37 1  
    38   20   38 1  
    39   21   39 1  
    40   21   40 1  
    41   21   41 1  
    42   22   42 1  
    43   22   43 1  
    44   22   44 1  
@<TRIPOS>SUBSTRUCTURE
     1 TSN         1

