### 
### Created by X-TOOL on Mon Sep 10 21:13:25 2018
### 

@<TRIPOS>MOLECULE
5eei_ligand
   39    39     1     0     0
SMALL
GAST_HUCK


@<TRIPOS>ATOM
      1 O1          3.5580   -8.7140    1.6040 O.3       1 SHH        -0.2717
      2 O2          5.0390   -7.0310    2.8860 O.2       1 SHH        -0.3970
      3 N1          4.4390   -7.8860    0.9540 N.am      1 SHH        -0.1642
      4 C1          5.1450   -7.0400    1.6670 C.2       1 SHH         0.1988
      5 C2          6.0770   -6.1070    0.9290 C.3       1 SHH         0.0389
      6 C3          5.5460   -5.7040   -0.4290 C.3       1 SHH        -0.0361
      7 C4          6.4250   -4.6400   -1.0500 C.3       1 SHH        -0.0509
      8 C5          5.9100   -3.2480   -0.7060 C.3       1 SHH        -0.0508
      9 C6          6.3920   -2.2720   -1.7590 C.3       1 SHH        -0.0356
     10 C7          5.7660   -0.9010   -1.5470 C.3       1 SHH         0.0432
     11 C8          6.2230   -0.3080   -0.2340 C.2       1 SHH         0.2036
     12 O3          5.4330   -0.1540    0.6850 O.2       1 SHH        -0.3849
     13 N2          7.5170   -0.0110   -0.1990 N.am      1 SHH        -0.2339
     14 C9          8.2540    0.5420    0.8680 C.ar      1 SHH         0.0662
     15 C10         9.6320    0.4080    0.8200 C.ar      1 SHH        -0.0413
     16 C11        10.4350    0.9430    1.8220 C.ar      1 SHH        -0.0755
     17 C12         9.8590    1.6490    2.8680 C.ar      1 SHH        -0.0772
     18 C13         8.4860    1.7870    2.9330 C.ar      1 SHH        -0.0755
     19 C14         7.6880    1.2500    1.9350 C.ar      1 SHH        -0.0413
     20 H1          2.9149   -8.1897    2.0666 H         1 SHH         0.2490
     21 H2          4.5406   -7.9265   -0.0400 H         1 SHH         0.2216
     22 H3          7.0448   -6.6118    0.7926 H         1 SHH         0.0502
     23 H4          6.2188   -5.1998    1.5346 H         1 SHH         0.0502
     24 H5          4.5256   -5.3091   -0.3156 H         1 SHH         0.0289
     25 H6          5.5269   -6.5860   -1.0861 H         1 SHH         0.0289
     26 H7          6.4258   -4.7648   -2.1429 H         1 SHH         0.0267
     27 H8          7.4505   -4.7503   -0.6676 H         1 SHH         0.0267
     28 H9          6.2928   -2.9460    0.2800 H         1 SHH         0.0267
     29 H10         4.8102   -3.2558   -0.6858 H         1 SHH         0.0267
     30 H11         6.1119   -2.6470   -2.7544 H         1 SHH         0.0290
     31 H12         7.4865   -2.1831   -1.6953 H         1 SHH         0.0290
     32 H13         4.6706   -1.0007   -1.5374 H         1 SHH         0.0508
     33 H14         6.0664   -0.2348   -2.3691 H         1 SHH         0.0508
     34 H15         8.0329   -0.2037   -1.0337 H         1 SHH         0.2257
     35 H16        10.0901   -0.1202   -0.0084 H         1 SHH         0.0502
     36 H17        11.5100    0.8083    1.7855 H         1 SHH         0.0577
     37 H18        10.4856    2.0920    3.6336 H         1 SHH         0.0487
     38 H19         8.0329    2.3151    3.7642 H         1 SHH         0.0577
     39 H20         6.6128    1.3798    1.9812 H         1 SHH         0.0502
@<TRIPOS>BOND
     1    3    1 1  
     2    4    2 2  
     3    3    4 am 
     4    4    5 1  
     5    5    6 1  
     6    6    7 1  
     7    7    8 1  
     8    8    9 1  
     9    9   10 1  
    10   10   11 1  
    11   11   12 2  
    12   11   13 am 
    13   13   14 1  
    14   14   15 ar 
    15   14   19 ar 
    16   15   16 ar 
    17   16   17 ar 
    18   17   18 ar 
    19   18   19 ar 
    20    1   20 1  
    21    3   21 1  
    22    5   22 1  
    23    5   23 1  
    24    6   24 1  
    25    6   25 1  
    26    7   26 1  
    27    7   27 1  
    28    8   28 1  
    29    8   29 1  
    30    9   30 1  
    31    9   31 1  
    32   10   32 1  
    33   10   33 1  
    34   13   34 1  
    35   15   35 1  
    36   16   36 1  
    37   17   37 1  
    38   18   38 1  
    39   19   39 1  
@<TRIPOS>SUBSTRUCTURE
     1 SHH         1

