### 
### Created by X-TOOL on Mon Sep 10 21:13:25 2018
### 

@<TRIPOS>MOLECULE
5eek_ligand
   44    44     1     0     0
SMALL
GAST_HUCK


@<TRIPOS>ATOM
      1 O1         -9.0830   25.2290   -3.8200 O.3       1 TSN        -0.2729
      2 O2         -7.0580   25.4010   -5.7880 O.2       1 TSN        -0.3988
      3 O3          0.0180   26.4510   -4.8850 O.2       1 TSN        -0.3812
      4 N1         -8.1250   26.2210   -3.9840 N.am      1 TSN        -0.1684
      5 N2          1.5440   30.0120   -9.9050 N.pl3     1 TSN        -0.3118
      6 C1          0.1460   28.2360   -6.4360 C.ar      1 TSN         0.0217
      7 C2          1.0520   27.5640   -7.2450 C.ar      1 TSN        -0.0543
      8 C3          1.5100   28.1570   -8.4120 C.ar      1 TSN        -0.0377
      9 C4          1.0780   29.4310   -8.7660 C.ar      1 TSN         0.0456
     10 C5          0.1770   30.1090   -7.9490 C.ar      1 TSN        -0.0377
     11 C6         -0.2900   29.5150   -6.7820 C.ar      1 TSN        -0.0543
     12 C7         -0.3490   27.5840   -5.1810 C.2       1 TSN         0.1385
     13 C8         -1.3440   28.3140   -4.3250 C.3       1 TSN         0.0582
     14 C9         -2.6460   27.5830   -4.5530 C.2       1 TSN        -0.0497
     15 C10        -3.8820   28.1030   -4.5030 C.2       1 TSN        -0.0439
     16 C11        -4.9990   27.1600   -4.7140 C.2       1 TSN        -0.0556
     17 C12        -6.2980   27.4540   -4.8130 C.2       1 TSN        -0.0023
     18 C13        -7.1900   26.2700   -4.9370 C.2       1 TSN         0.2026
     19 C14        -0.9480   28.2200   -2.8510 C.3       1 TSN        -0.0365
     20 C15        -4.1380   29.5490   -4.1480 C.3       1 TSN        -0.0375
     21 C17         1.1160   31.3510  -10.2720 C.3       1 TSN         0.0163
     22 C16         2.4890   29.2990  -10.7550 C.3       1 TSN         0.0163
     23 H1         -9.6242   25.4344   -3.0667 H         1 TSN         0.2489
     24 H2         -8.1361   26.9722   -3.3241 H         1 TSN         0.2198
     25 H3          1.4012   26.5767   -6.9649 H         1 TSN         0.0638
     26 H4          2.2069   27.6260   -9.0504 H         1 TSN         0.0531
     27 H5         -0.1609   31.1018   -8.2234 H         1 TSN         0.0531
     28 H6         -0.9895   30.0432   -6.1441 H         1 TSN         0.0638
     29 H7         -1.4238   29.3691   -4.6256 H         1 TSN         0.0699
     30 H8         -2.5739   26.5209   -4.7824 H         1 TSN         0.0697
     31 H9         -4.7337   26.1072   -4.7983 H         1 TSN         0.0698
     32 H10        -6.6733   28.4763   -4.8037 H         1 TSN         0.0537
     33 H11         0.0004   28.7539   -2.6914 H         1 TSN         0.0283
     34 H12        -0.8255   27.1634   -2.5709 H         1 TSN         0.0283
     35 H13        -1.7339   28.6752   -2.2304 H         1 TSN         0.0283
     36 H14        -3.1781   30.0745   -4.0358 H         1 TSN         0.0349
     37 H15        -4.6971   29.6009   -3.2021 H         1 TSN         0.0349
     38 H16        -4.7250   30.0245   -4.9476 H         1 TSN         0.0349
     39 H17         1.5974   31.6438  -11.2167 H         1 TSN         0.0480
     40 H18         1.4033   32.0579   -9.4797 H         1 TSN         0.0480
     41 H19         0.0233   31.3652  -10.3976 H         1 TSN         0.0480
     42 H20         2.6956   28.3086  -10.3232 H         1 TSN         0.0480
     43 H21         3.4256   29.8719  -10.8230 H         1 TSN         0.0480
     44 H22         2.0592   29.1782  -11.7603 H         1 TSN         0.0480
@<TRIPOS>BOND
     1    4    1 1  
     2   18    2 2  
     3   12    3 2  
     4   18    4 am 
     5    9    5 1  
     6    5   21 1  
     7    5   22 1  
     8    6    7 ar 
     9    6   11 ar 
    10   12    6 1  
    11    7    8 ar 
    12    8    9 ar 
    13   10    9 ar 
    14   11   10 ar 
    15   13   12 1  
    16   14   13 1  
    17   13   19 1  
    18   15   14 2  
    19   16   15 1  
    20   15   20 1  
    21   17   16 2  
    22   17   18 1  
    23    1   23 1  
    24    4   24 1  
    25    7   25 1  
    26    8   26 1  
    27   10   27 1  
    28   11   28 1  
    29   13   29 1  
    30   14   30 1  
    31   16   31 1  
    32   17   32 1  
    33   19   33 1  
    34   19   34 1  
    35   19   35 1  
    36   20   36 1  
    37   20   37 1  
    38   20   38 1  
    39   21   39 1  
    40   21   40 1  
    41   21   41 1  
    42   22   42 1  
    43   22   43 1  
    44   22   44 1  
@<TRIPOS>SUBSTRUCTURE
     1 TSN         1

