### 
### Created by X-TOOL on Mon Sep 10 21:13:28 2018
### 

@<TRIPOS>MOLECULE
5een_ligand
   34    35     1     0     0
SMALL
GAST_HUCK


@<TRIPOS>ATOM
      1 O3         28.3030   98.2600   28.4070 O.2       1 5OG        -0.3260
      2 C12        27.7090   98.8410   29.2420 C.2       1 5OG         0.3012
      3 N2         26.2840   98.7420   29.3640 N.2       1 5OG         0.0326
      4 O4         25.6580   97.9840   28.4970 O.2       1 5OG        -0.1755
      5 C11        28.3390   99.7190   30.2840 C.2       1 5OG         0.0262
      6 C10        29.5380   99.4540   30.7560 C.2       1 5OG        -0.0359
      7 C9         30.1800   99.9720   31.9680 C.ar      1 5OG        -0.0118
      8 C8         31.3560   99.4140   32.4460 C.ar      1 5OG        -0.0224
      9 C13        29.6630  101.0420   32.7010 C.ar      1 5OG        -0.0495
     10 C14        30.3030  101.5010   33.8430 C.ar      1 5OG        -0.0558
     11 C15        31.4720  100.9130   34.2780 C.ar      1 5OG        -0.0313
     12 C7         32.0080   99.8310   33.5760 C.ar      1 5OG         0.1181
     13 S          33.5290   99.1400   34.1640 S.o2      1 5OG         0.0902
     14 O1         33.3760   98.3310   35.5670 O.2       1 5OG        -0.1446
     15 O2         33.9750   97.8910   33.2500 O.2       1 5OG        -0.1446
     16 N1         34.7950  100.1640   34.1440 N.am      1 5OG        -0.1870
     17 C1         35.0470  101.1380   33.1600 C.ar      1 5OG         0.0625
     18 C6         35.7410  100.8250   31.9730 C.ar      1 5OG        -0.0455
     19 C5         35.9560  101.7860   31.0100 C.ar      1 5OG        -0.0779
     20 C4         35.4750  103.0750   31.1720 C.ar      1 5OG        -0.0792
     21 C3         34.7720  103.3880   32.3170 C.ar      1 5OG        -0.0779
     22 C2         34.5500  102.4410   33.2930 C.ar      1 5OG        -0.0455
     23 H1         27.7960  100.5873   30.6543 H         1 5OG         0.0683
     24 H2         30.1331   98.7568   30.1680 H         1 5OG         0.0757
     25 H3         31.7887   98.5919   31.8874 H         1 5OG         0.0673
     26 H4         28.7478  101.5213   32.3728 H         1 5OG         0.0653
     27 H5         29.8800  102.3300   34.3988 H         1 5OG         0.0627
     28 H6         31.9735  101.2894   35.1622 H         1 5OG         0.0664
     29 H7         35.4502  100.0947   34.8962 H         1 5OG         0.2163
     30 H8         36.1091   99.8175   31.8168 H         1 5OG         0.0481
     31 H9         36.5090  101.5303   30.1134 H         1 5OG         0.0572
     32 H10        35.6484  103.8266   30.4103 H         1 5OG         0.0471
     33 H11        34.3888  104.3932   32.4508 H         1 5OG         0.0572
     34 H12        33.9823  102.7082   34.1769 H         1 5OG         0.0481
@<TRIPOS>BOND
     1    1    2 2  
     2    2    3 1  
     3    2    5 1  
     4    3    4 2  
     5    5    6 2  
     6    6    7 1  
     7    7    8 ar 
     8    7    9 ar 
     9    8   12 ar 
    10    9   10 ar 
    11   10   11 ar 
    12   11   12 ar 
    13   12   13 1  
    14   13   14 2  
    15   13   15 2  
    16   13   16 am 
    17   16   17 1  
    18   17   18 ar 
    19   17   22 ar 
    20   18   19 ar 
    21   19   20 ar 
    22   20   21 ar 
    23   21   22 ar 
    24    5   23 1  
    25    6   24 1  
    26    8   25 1  
    27    9   26 1  
    28   10   27 1  
    29   11   28 1  
    30   16   29 1  
    31   18   30 1  
    32   19   31 1  
    33   20   32 1  
    34   21   33 1  
    35   22   34 1  
@<TRIPOS>SUBSTRUCTURE
     1 5OG         1

