### 
### Created by X-TOOL on Mon Sep 10 21:13:27 2018
### 

@<TRIPOS>MOLECULE
5ef7_ligand
   41    42     1     0     0
SMALL
GAST_HUCK


@<TRIPOS>ATOM
      1 O4         -8.8770   14.8870   27.8290 O.2       1 5OJ        -0.3815
      2 C7         -8.0650   15.7460   28.1160 C.2       1 5OJ         0.2184
      3 N2         -7.4770   15.6770   29.4150 N.am      1 5OJ        -0.2160
      4 C14        -7.8250   14.6130   30.3880 C.3       1 5OJ         0.0787
      5 C15        -7.1010   13.2500   30.0910 C.3       1 5OJ         0.0696
      6 O3         -7.5790   12.3230   31.0220 O.3       1 5OJ        -0.3925
      7 C8         -6.4760   16.6690   29.8540 C.ar      1 5OJ         0.0693
      8 C13        -6.7870   18.0310   30.0840 C.ar      1 5OJ        -0.0411
      9 C12        -5.8120   18.9380   30.5020 C.ar      1 5OJ        -0.0755
     10 C11        -4.4940   18.5350   30.7210 C.ar      1 5OJ        -0.0772
     11 C10        -4.1760   17.2020   30.5050 C.ar      1 5OJ        -0.0755
     12 C9         -5.1400   16.2870   30.0800 C.ar      1 5OJ        -0.0411
     13 C6         -7.7280   16.8260   27.0710 C.3       1 5OJ         0.0786
     14 C5         -7.9550   16.4690   25.6050 C.ar      1 5OJ        -0.0192
     15 C4         -8.6360   17.3130   24.7280 C.ar      1 5OJ        -0.0521
     16 C3         -8.8510   16.9980   23.3940 C.ar      1 5OJ        -0.0482
     17 C16        -7.5020   15.2760   25.0430 C.ar      1 5OJ        -0.0521
     18 C17        -7.7080   14.9470   23.7090 C.ar      1 5OJ        -0.0482
     19 C2         -8.3920   15.8030   22.8470 C.ar      1 5OJ         0.0447
     20 C1         -8.5690   15.4240   21.4130 C.2       1 5OJ         0.2229
     21 O1         -8.7840   16.2070   20.5120 O.2       1 5OJ        -0.3879
     22 N1         -8.4060   14.0070   21.1380 N.am      1 5OJ        -0.1643
     23 O2         -8.5440   13.6470   19.8630 O.3       1 5OJ        -0.2721
     24 H1         -8.9119   14.4476   30.3531 H         1 5OJ         0.0609
     25 H2         -7.5376   14.9506   31.3947 H         1 5OJ         0.0609
     26 H3         -6.0129   13.3684   30.2001 H         1 5OJ         0.0582
     27 H4         -7.3327   12.9136   29.0697 H         1 5OJ         0.0582
     28 H5         -7.1619   11.4825   30.8731 H         1 5OJ         0.2095
     29 H6         -7.8032   18.3764   29.9323 H         1 5OJ         0.0502
     30 H7         -6.0838   19.9755   30.6596 H         1 5OJ         0.0577
     31 H8         -3.7413   19.2423   31.0500 H         1 5OJ         0.0487
     32 H9         -3.1590   16.8647   30.6696 H         1 5OJ         0.0577
     33 H10        -4.8524   15.2542   29.9195 H         1 5OJ         0.0502
     34 H11        -6.6645   17.0811   27.1891 H         1 5OJ         0.0674
     35 H12        -8.3441   17.7089   27.2963 H         1 5OJ         0.0674
     36 H13        -9.0139   18.2564   25.1051 H         1 5OJ         0.0574
     37 H14        -9.3881   17.6977   22.7639 H         1 5OJ         0.0652
     38 H15        -6.9664   14.5756   25.6736 H         1 5OJ         0.0574
     39 H16        -7.3288   14.0047   23.3304 H         1 5OJ         0.0652
     40 H17        -8.2033   13.3446   21.8592 H         1 5OJ         0.2210
     41 H18        -8.4205   12.7083   19.7850 H         1 5OJ         0.2491
@<TRIPOS>BOND
     1    1    2 2  
     2    2    3 am 
     3    2   13 1  
     4    3    4 1  
     5    3    7 1  
     6    4    5 1  
     7    5    6 1  
     8    7    8 ar 
     9    7   12 ar 
    10    8    9 ar 
    11    9   10 ar 
    12   10   11 ar 
    13   11   12 ar 
    14   13   14 1  
    15   14   15 ar 
    16   14   17 ar 
    17   15   16 ar 
    18   16   19 ar 
    19   17   18 ar 
    20   18   19 ar 
    21   19   20 1  
    22   20   21 2  
    23   20   22 am 
    24   22   23 1  
    25    4   24 1  
    26    4   25 1  
    27    5   26 1  
    28    5   27 1  
    29    6   28 1  
    30    8   29 1  
    31    9   30 1  
    32   10   31 1  
    33   11   32 1  
    34   12   33 1  
    35   13   34 1  
    36   13   35 1  
    37   15   36 1  
    38   16   37 1  
    39   17   38 1  
    40   18   39 1  
    41   22   40 1  
    42   23   41 1  
@<TRIPOS>SUBSTRUCTURE
     1 5OJ         1

