### 
### Created by X-TOOL on Mon Sep 10 21:13:28 2018
### 

@<TRIPOS>MOLECULE
5ef8_ligand
   50    52     1     0     0
SMALL
GAST_HUCK


@<TRIPOS>ATOM
      1 O1        -15.7390   22.3530  -46.4220 O.2       1 LBH        -0.3930
      2 C21       -15.8380   23.5970  -46.4510 C.2       1 LBH         0.2115
      3 N3        -16.9890   24.2110  -47.0540 N.am      1 LBH        -0.1664
      4 O2        -17.9510   23.4530  -47.5800 O.3       1 LBH        -0.2726
      5 C20       -14.7220   24.4720  -45.8450 C.2       1 LBH         0.0087
      6 C19       -14.1140   24.1080  -44.6540 C.2       1 LBH        -0.0431
      7 C16       -12.7680   24.7340  -44.2930 C.ar      1 LBH        -0.0207
      8 C15       -11.7490   24.7600  -45.2590 C.ar      1 LBH        -0.0554
      9 C14       -10.5330   25.3180  -44.9570 C.ar      1 LBH        -0.0501
     10 C17       -12.5500   25.2790  -43.0160 C.ar      1 LBH        -0.0554
     11 C18       -11.3240   25.8430  -42.7090 C.ar      1 LBH        -0.0501
     12 C13       -10.3080   25.8730  -43.6720 C.ar      1 LBH         0.0059
     13 C12        -8.9580   26.4850  -43.3430 C.3       1 LBH         0.0023
     14 N2         -7.8870   25.4700  -43.4980 N.4       1 LBH         0.2406
     15 C11        -7.9970   24.4890  -42.4070 C.3       1 LBH        -0.0300
     16 C10        -8.5710   23.1600  -42.9060 C.3       1 LBH        -0.0017
     17 C3         -8.5780   22.0750  -41.7700 C.2       1 LBH        -0.0437
     18 C4         -7.5520   21.0400  -41.5510 C.ar      1 LBH        -0.0318
     19 C9         -7.9690   20.3230  -40.4440 C.ar      1 LBH         0.0558
     20 N1         -9.1810   20.8540  -39.9770 N.pl3     1 LBH        -0.2818
     21 C2         -9.5500   21.8800  -40.7400 C.2       1 LBH         0.0350
     22 C1        -10.8010   22.7040  -40.5490 C.3       1 LBH        -0.0124
     23 C8         -7.1630   19.2160  -39.9650 C.ar      1 LBH        -0.0483
     24 C7         -5.9630   18.8830  -40.6290 C.ar      1 LBH        -0.0802
     25 C6         -5.5480   19.6150  -41.7490 C.ar      1 LBH        -0.0830
     26 C5         -6.3410   20.7020  -42.2180 C.ar      1 LBH        -0.0799
     27 H1        -17.0682   25.2075  -47.0790 H         1 LBH         0.2203
     28 H2        -18.6338   24.0105  -47.9343 H         1 LBH         0.2490
     29 H3        -14.4098   25.3815  -46.3561 H         1 LBH         0.0631
     30 H4        -14.5873   23.3886  -43.9874 H         1 LBH         0.0735
     31 H5        -11.9234   24.3393  -46.2427 H         1 LBH         0.0638
     32 H6         -9.7444   25.3346  -45.7005 H         1 LBH         0.0573
     33 H7        -13.3397   25.2577  -42.2738 H         1 LBH         0.0638
     34 H8        -11.1505   26.2611  -41.7240 H         1 LBH         0.0573
     35 H9         -8.9667   26.8491  -42.3051 H         1 LBH         0.0992
     36 H10        -8.7638   27.3259  -44.0250 H         1 LBH         0.0992
     37 H11        -6.9860   25.9203  -43.4583 H         1 LBH         0.2030
     38 H12        -7.9901   25.0023  -44.3849 H         1 LBH         0.2030
     39 H13        -8.6584   24.8940  -41.6269 H         1 LBH         0.0826
     40 H14        -6.9974   24.3107  -41.9840 H         1 LBH         0.0826
     41 H15        -7.9570   22.7971  -43.7434 H         1 LBH         0.0372
     42 H16        -9.6026   23.3230  -43.2513 H         1 LBH         0.0372
     43 H17        -9.7069   20.5020  -39.1644 H         1 LBH         0.2216
     44 H18       -10.8488   23.4831  -41.3241 H         1 LBH         0.0408
     45 H19       -10.7811   23.1759  -39.5556 H         1 LBH         0.0408
     46 H20       -11.6843   22.0533  -40.6283 H         1 LBH         0.0408
     47 H21        -7.4815   18.6462  -39.0996 H         1 LBH         0.0531
     48 H22        -5.3596   18.0569  -40.2706 H         1 LBH         0.0502
     49 H23        -4.6265   19.3553  -42.2573 H         1 LBH         0.0500
     50 H24        -6.0218   21.2718  -43.0832 H         1 LBH         0.0510
@<TRIPOS>BOND
     1    1    2 2  
     2    2    3 am 
     3    2    5 1  
     4    3    4 1  
     5    5    6 2  
     6    6    7 1  
     7    7    8 ar 
     8    7   10 ar 
     9    8    9 ar 
    10    9   12 ar 
    11   10   11 ar 
    12   11   12 ar 
    13   12   13 1  
    14   13   14 1  
    15   14   15 1  
    16   15   16 1  
    17   16   17 1  
    18   17   18 1  
    19   17   21 2  
    20   18   19 ar 
    21   18   26 ar 
    22   19   20 1  
    23   19   23 ar 
    24   20   21 1  
    25   21   22 1  
    26   23   24 ar 
    27   24   25 ar 
    28   25   26 ar 
    29    3   27 1  
    30    4   28 1  
    31    5   29 1  
    32    6   30 1  
    33    8   31 1  
    34    9   32 1  
    35   10   33 1  
    36   11   34 1  
    37   13   35 1  
    38   13   36 1  
    39   14   37 1  
    40   14   38 1  
    41   15   39 1  
    42   15   40 1  
    43   16   41 1  
    44   16   42 1  
    45   20   43 1  
    46   22   44 1  
    47   22   45 1  
    48   22   46 1  
    49   23   47 1  
    50   24   48 1  
    51   25   49 1  
    52   26   50 1  
@<TRIPOS>SUBSTRUCTURE
     1 LBH         1

