### 
### Created by X-TOOL on Mon Sep 10 21:13:26 2018
### 

@<TRIPOS>MOLECULE
5efb_ligand
   38    39     1     0     0
SMALL
GAST_HUCK


@<TRIPOS>ATOM
      1 O01        82.4430   19.4790   18.6850 O.2       1 5OK        -0.1446
      2 S02        81.3750   18.5160   18.7930 S.o2      1 5OK         0.0894
      3 N03        81.2040   17.9620   20.3640 N.am      1 5OK        -0.1870
      4 C04        82.3710   17.6650   21.1980 C.ar      1 5OK         0.0644
      5 C05        83.5340   18.3880   20.9970 C.ar      1 5OK        -0.0291
      6 C06        84.6910   18.1750   21.7300 C.ar      1 5OK         0.0140
      7 C07        85.9130   19.0000   21.4140 C.1       1 5OK        -0.0568
      8 C08        86.8740   19.6660   21.1910 C.1       1 5OK        -0.0562
      9 C09        88.0720   20.5240   20.8340 C.2       1 5OK         0.0056
     10 C10        89.3180   20.0610   21.0650 C.2       1 5OK         0.0206
     11 C11        90.4280   21.0980   20.9320 C.2       1 5OK         0.2155
     12 N12        91.4740   21.0850   21.9190 N.am      1 5OK        -0.1657
     13 O13        92.5120   21.9860   21.8990 O.3       1 5OK        -0.2725
     14 O14        90.3810   21.9140   20.0170 O.2       1 5OK        -0.3907
     15 C15        84.7200   17.1970   22.7000 C.ar      1 5OK        -0.0618
     16 C16        83.5690   16.4540   22.9230 C.ar      1 5OK        -0.0751
     17 C17        82.4050   16.6810   22.1810 C.ar      1 5OK        -0.0442
     18 C18        81.8530   17.2110   17.6700 C.ar      1 5OK         0.1140
     19 C19        81.0290   16.5190   16.7640 C.ar      1 5OK        -0.0346
     20 C20        81.6200   15.5200   15.9650 C.ar      1 5OK        -0.0599
     21 C21        82.9900   15.2660   16.0990 C.ar      1 5OK        -0.0616
     22 C22        83.7850   15.9770   16.9970 C.ar      1 5OK        -0.0599
     23 C23        83.2040   16.9580   17.7800 C.ar      1 5OK        -0.0346
     24 O24        80.2430   19.2200   18.2970 O.2       1 5OK        -0.1446
     25 H1         80.2868   17.8313   20.7403 H         1 5OK         0.2160
     26 H2         83.5403   19.1556   20.2316 H         1 5OK         0.0496
     27 H3         87.9274   21.5093   20.3932 H         1 5OK         0.0834
     28 H4         89.5164   19.0228   21.3272 H         1 5OK         0.0675
     29 H5         91.4452   20.3972   22.6444 H         1 5OK         0.2204
     30 H6         93.0941   21.8130   22.6295 H         1 5OK         0.2490
     31 H7         85.6201   17.0122   23.2752 H         1 5OK         0.0496
     32 H8         83.5721   15.6839   23.6859 H         1 5OK         0.0577
     33 H9         81.5208   16.0843   22.3738 H         1 5OK         0.0493
     34 H10        79.9724   16.7471   16.6830 H         1 5OK         0.0637
     35 H11        81.0227   14.9567   15.2572 H         1 5OK         0.0618
     36 H12        83.4454   14.4953   15.4877 H         1 5OK         0.0618
     37 H13        84.8445   15.7637   17.0804 H         1 5OK         0.0618
     38 H14        83.8087   17.5260   18.4777 H         1 5OK         0.0637
@<TRIPOS>BOND
     1    1    2 2  
     2    2    3 am 
     3    2   18 1  
     4    2   24 2  
     5    3    4 1  
     6    4    5 ar 
     7    4   17 ar 
     8    5    6 ar 
     9    6    7 1  
    10    6   15 ar 
    11    7    8 3  
    12    8    9 1  
    13    9   10 2  
    14   10   11 1  
    15   11   12 am 
    16   11   14 2  
    17   12   13 1  
    18   15   16 ar 
    19   16   17 ar 
    20   18   19 ar 
    21   18   23 ar 
    22   19   20 ar 
    23   20   21 ar 
    24   21   22 ar 
    25   22   23 ar 
    26    3   25 1  
    27    5   26 1  
    28    9   27 1  
    29   10   28 1  
    30   12   29 1  
    31   13   30 1  
    32   15   31 1  
    33   16   32 1  
    34   17   33 1  
    35   19   34 1  
    36   20   35 1  
    37   21   36 1  
    38   22   37 1  
    39   23   38 1  
@<TRIPOS>SUBSTRUCTURE
     1 5OK         1

