### 
### Created by X-TOOL on Mon Sep 10 21:13:28 2018
### 

@<TRIPOS>MOLECULE
5efh_ligand
   40    39     1     0     0
SMALL
GAST_HUCK


@<TRIPOS>ATOM
      1 C2         77.9900  190.1850  130.6040 C.3       1 FKS        -0.0305
      2 C3         78.4240  189.2870  131.7940 C.3       1 FKS         0.0275
      3 C4         79.8310  189.6790  132.3360 C.3       1 FKS        -0.0288
      4 C6         81.2150  189.6810  134.2430 C.3       1 FKS        -0.0337
      5 C7         81.8250  188.7200  135.2760 C.3       1 FKS        -0.0126
      6 C8         82.9800  189.3530  136.0530 C.3       1 FKS        -0.0481
      7 C9         83.7110  188.3520  136.9420 C.3       1 FKS        -0.0477
      8 C10        84.6780  189.0510  137.8840 C.3       1 FKS         0.0101
      9 C11        85.4970  188.0730  138.7080 C.3       1 FKS         0.2629
     10 C12        86.4260  188.8200  139.6510 C.3       1 FKS         0.4438
     11 F15        87.1920  189.6870  138.9860 F         1 FKS        -0.1654
     12 F16        87.2130  187.9240  140.2540 F         1 FKS        -0.1654
     13 F17        85.7060  189.4810  140.5530 F         1 FKS        -0.1654
     14 N5         80.0380  189.1180  133.6580 N.4       1 FKS         0.2271
     15 N1         76.6100  189.9220  130.2500 N.4       1 FKS         0.2187
     16 O13        84.6080  187.2690  139.4500 O.3       1 FKS        -0.3581
     17 O14        86.3070  187.2670  137.8780 O.3       1 FKS        -0.3581
     18 H1         78.6331  189.9737  129.7370 H         1 FKS         0.0815
     19 H2         78.0957  191.2419  130.8900 H         1 FKS         0.0815
     20 H3         78.4518  188.2401  131.4576 H         1 FKS         0.0369
     21 H4         77.6887  189.3921  132.6053 H         1 FKS         0.0369
     22 H5         79.9055  190.7750  132.3917 H         1 FKS         0.0816
     23 H6         80.6027  189.2932  131.6537 H         1 FKS         0.0816
     24 H7         81.9535  189.8754  133.4513 H         1 FKS         0.0814
     25 H8         80.9534  190.6265  134.7406 H         1 FKS         0.0814
     26 H9         82.1994  187.8288  134.7510 H         1 FKS         0.0317
     27 H10        81.0410  188.4236  135.9884 H         1 FKS         0.0317
     28 H11        82.5787  190.1581  136.6861 H         1 FKS         0.0267
     29 H12        83.6979  189.7750  135.3343 H         1 FKS         0.0267
     30 H13        84.2733  187.6523  136.3062 H         1 FKS         0.0267
     31 H14        82.9721  187.7946  137.5364 H         1 FKS         0.0267
     32 H15        84.1028  189.6928  138.5675 H         1 FKS         0.0320
     33 H16        85.3640  189.6714  137.2886 H         1 FKS         0.0320
     34 H17        80.1459  188.1185  133.5845 H         1 FKS         0.2013
     35 H18        79.2418  189.3281  134.2394 H         1 FKS         0.2013
     36 H19        76.3432  190.5116  129.4772 H         1 FKS         0.1994
     37 H20        76.0171  190.1168  131.0415 H         1 FKS         0.1994
     38 H21        76.5096  188.9547  129.9849 H         1 FKS         0.1994
     39 H22        84.0694  187.8221  140.0036 H         1 FKS         0.2130
     40 H23        86.9009  187.8198  137.3839 H         1 FKS         0.2130
@<TRIPOS>BOND
     1    2    1 1  
     2    1   15 1  
     3    3    2 1  
     4   14    3 1  
     5    4    5 1  
     6    4   14 1  
     7    5    6 1  
     8    6    7 1  
     9    7    8 1  
    10    8    9 1  
    11    9   10 1  
    12    9   16 1  
    13    9   17 1  
    14   10   11 1  
    15   10   12 1  
    16   10   13 1  
    17    1   18 1  
    18    1   19 1  
    19    2   20 1  
    20    2   21 1  
    21    3   22 1  
    22    3   23 1  
    23    4   24 1  
    24    4   25 1  
    25    5   26 1  
    26    5   27 1  
    27    6   28 1  
    28    6   29 1  
    29    7   30 1  
    30    7   31 1  
    31    8   32 1  
    32    8   33 1  
    33   14   34 1  
    34   14   35 1  
    35   15   36 1  
    36   15   37 1  
    37   15   38 1  
    38   16   39 1  
    39   17   40 1  
@<TRIPOS>SUBSTRUCTURE
     1 FKS         1

