### 
### Created by X-TOOL on Mon Sep 10 21:13:26 2018
### 

@<TRIPOS>MOLECULE
5efj_ligand
   63    66     1     0     0
SMALL
GAST_HUCK


@<TRIPOS>ATOM
      1 O01        -7.6400   24.8630   -5.8300 O.3       1 5OM        -0.3626
      2 C02        -8.2770   25.8800   -5.1100 C.3       1 5OM         0.1936
      3 C03        -7.4120   27.1480   -5.0200 C.3       1 5OM         0.0037
      4 C04        -6.1120   26.9290   -4.2440 C.3       1 5OM        -0.0481
      5 C05        -5.2700   28.2340   -4.2280 C.3       1 5OM        -0.0529
      6 C06        -3.7750   27.9760   -3.8620 C.3       1 5OM        -0.0491
      7 C07        -3.0330   29.3320   -3.7460 C.3       1 5OM         0.0108
      8 C08        -1.5700   29.1580   -3.3320 C.3       1 5OM         0.2888
      9 N09        -1.1020   30.4490   -2.9590 N.am      1 5OM        -0.1032
     10 C27        -0.8400   28.4390   -4.4560 C.2       1 5OM         0.2651
     11 O28        -0.6760   27.2340   -4.3550 O.2       1 5OM        -0.3384
     12 O02        -8.6190   25.4380   -3.7930 O.3       1 5OM        -0.3626
     13 C30        -9.4650   26.3380   -5.9730 C.3       1 5OM         0.1352
     14 C31       -10.3450   27.2220   -5.2860 C.3       1 5OM         0.0796
     15 O32       -10.7100   25.8250   -5.4940 O.3       1 5OM        -0.3662
     16 N          -0.3520   29.0800   -5.6700 N.am      1 DPR        -0.2309
     17 CA         -0.4400   30.5870   -6.0650 C.3       1 DPR         0.1525
     18 CB         -0.2980   30.5360   -7.5970 C.2       1 DPR        -0.0524
     19 CG          0.4370   29.4850   -7.8480 C.2       1 DPR        -0.0710
     20 CD          0.2230   28.4590   -6.6360 C.3       1 DPR         0.0564
     21 C           0.6410   31.2740   -5.5550 C.2       1 DPR         0.2125
     22 O           1.7370   30.7290   -5.3850 O.2       1 DPR        -0.3919
     23 N           0.4400   32.6610   -5.1810 N.am      1 ALA        -0.2626
     24 CA          1.4720   33.5310   -4.6830 C.3       1 ALA         0.1283
     25 C           2.3860   32.9300   -3.6340 C.2       1 ALA         0.2036
     26 O           3.6020   33.0340   -3.8310 O.2       1 ALA        -0.3944
     27 CB          0.8230   34.8150   -4.1850 C.3       1 ALA        -0.0244
     28 N           1.9600   32.2680   -2.4270 N.am      1 DAL        -0.2640
     29 CA          0.6170   32.0680   -2.0320 C.3       1 DAL         0.1299
     30 CB          0.5250   32.1670   -0.5160 C.3       1 DAL        -0.0244
     31 C           0.2080   30.6570   -2.4310 C.2       1 DAL         0.2286
     32 O           0.9870   29.7060   -2.3470 O.2       1 DAL        -0.3943
     33 OXT        -0.9200   30.4030   -2.8560 O.3       1 DAL        -0.2121
     34 H1         -7.4233   25.1798   -6.6991 H         1 5OM         0.2128
     35 H2         -7.9932   27.9342   -4.5159 H         1 5OM         0.0318
     36 H3         -7.1609   27.4745   -6.0400 H         1 5OM         0.0318
     37 H4         -5.5318   26.1283   -4.7258 H         1 5OM         0.0267
     38 H5         -6.3505   26.6380   -3.2104 H         1 5OM         0.0267
     39 H6         -5.7009   28.9228   -3.4865 H         1 5OM         0.0265
     40 H7         -5.3144   28.6948   -5.2258 H         1 5OM         0.0265
     41 H8         -3.3047   27.3661   -4.6474 H         1 5OM         0.0265
     42 H9         -3.7188   27.4434   -2.9012 H         1 5OM         0.0265
     43 H10        -3.5427   29.9513   -2.9932 H         1 5OM         0.0303
     44 H11        -3.0669   29.8388   -4.7217 H         1 5OM         0.0303
     45 H12        -9.0491   26.1440   -3.3250 H         1 5OM         0.2128
     46 H13        -9.2239   26.4407   -7.0413 H         1 5OM         0.0673
     47 H14       -10.8691   28.0169   -5.8368 H         1 5OM         0.0588
     48 H15       -10.0899   27.5812   -4.2781 H         1 5OM         0.0588
     49 H16        -1.3866   31.0460   -5.7436 H         1 DPR         0.0926
     50 H17        -0.7217   31.2308   -8.3207 H         1 DPR         0.0494
     51 H18         1.0751   29.3347   -8.7176 H         1 DPR         0.0482
     52 H19        -0.4091   27.6217   -6.9666 H         1 DPR         0.0655
     53 H20         1.1970   28.0731   -6.3008 H         1 DPR         0.0655
     54 H21        -0.4808   33.0392   -5.2760 H         1 ALA         0.1884
     55 H22         2.1123   33.7897   -5.5392 H         1 ALA         0.0797
     56 H23         1.5992   35.4928   -3.8001 H         1 ALA         0.0277
     57 H24         0.1113   34.5780   -3.3804 H         1 ALA         0.0277
     58 H25         0.2896   35.3020   -5.0147 H         1 ALA         0.0277
     59 H26         2.6734   31.9212   -1.8181 H         1 DAL         0.1883
     60 H27        -0.0385   32.8122   -2.5079 H         1 DAL         0.0796
     61 H28        -0.5176   32.0124   -0.2011 H         1 DAL         0.0276
     62 H29         0.8618   33.1629   -0.1924 H         1 DAL         0.0276
     63 H30         1.1641   31.3973   -0.0588 H         1 DAL         0.0276
@<TRIPOS>BOND
     1    1    2 1  
     2    2    3 1  
     3    2   12 1  
     4    2   13 1  
     5    3    4 1  
     6    4    5 1  
     7    5    6 1  
     8    6    7 1  
     9    7    8 1  
    10    8    9 1  
    11    8   10 1  
    12    8   33 1  
    13    9   31 am 
    14    9   33 1  
    15   10   11 2  
    16   10   16 am 
    17   13   14 1  
    18   13   15 1  
    19   14   15 1  
    20   16   17 1  
    21   16   20 1  
    22   17   18 1  
    23   17   21 1  
    24   18   19 2  
    25   19   20 1  
    26   21   22 2  
    27   21   23 am 
    28   23   24 1  
    29   24   25 1  
    30   24   27 1  
    31   25   26 2  
    32   25   28 am 
    33   28   29 1  
    34   29   30 1  
    35   29   31 1  
    36   31   32 2  
    37    1   34 1  
    38    3   35 1  
    39    3   36 1  
    40    4   37 1  
    41    4   38 1  
    42    5   39 1  
    43    5   40 1  
    44    6   41 1  
    45    6   42 1  
    46    7   43 1  
    47    7   44 1  
    48   12   45 1  
    49   13   46 1  
    50   14   47 1  
    51   14   48 1  
    52   17   49 1  
    53   18   50 1  
    54   19   51 1  
    55   20   52 1  
    56   20   53 1  
    57   23   54 1  
    58   24   55 1  
    59   27   56 1  
    60   27   57 1  
    61   27   58 1  
    62   28   59 1  
    63   29   60 1  
    64   30   61 1  
    65   30   62 1  
    66   30   63 1  
@<TRIPOS>SUBSTRUCTURE
     1 5OM         1

