### 
### Created by X-TOOL on Mon Sep 10 21:13:29 2018
### 

@<TRIPOS>MOLECULE
5ega_ligand
   35    36     1     0     0
SMALL
GAST_HUCK


@<TRIPOS>ATOM
      1 C01       -26.9030   17.2970   -5.9880 C.ar      1 GK0        -0.0320
      2 C03       -28.1660   16.8710   -5.5540 C.ar      1 GK0         0.0302
      3 C04       -28.3110   15.9330   -4.5190 C.ar      1 GK0        -0.0320
      4 C06       -27.1990   15.3950   -3.9140 C.ar      1 GK0         0.1138
      5 O07       -27.3080   14.4540   -2.8560 O.3       1 GK0        -0.3389
      6 C09       -25.9650   15.8240   -4.3700 C.ar      1 GK0         0.1495
      7 O10       -24.8210   15.3770   -3.8120 O.3       1 GK0        -0.3383
      8 C12       -25.7860   16.7440   -5.3700 C.ar      1 GK0         0.1138
      9 O13       -24.4380   17.0530   -5.6550 O.3       1 GK0        -0.3389
     10 C15       -29.4910   17.3910   -6.1070 C.2       1 GK0         0.2369
     11 O16       -29.7890   18.5660   -5.9570 O.2       1 GK0        -0.3745
     12 N17       -30.3660   16.4250   -6.6860 N.am      1 GK0        -0.1703
     13 N18       -31.6350   16.6870   -7.2120 N.2       1 GK0        -0.1911
     14 C19       -32.6040   17.3470   -6.6020 C.2       1 GK0         0.0193
     15 C22       -36.4070   17.5760   -8.7130 C.ar      1 GK0         0.1440
     16 O23       -37.6400   17.6430   -9.4060 O.3       1 GK0        -0.3414
     17 C25       -36.2790   18.1350   -7.4340 C.ar      1 GK0         0.1075
     18 O26       -37.3970   18.7670   -6.8470 O.3       1 GK0        -0.3402
     19 C28       -35.0510   18.0720   -6.7440 C.ar      1 GK0        -0.0471
     20 C30       -33.9420   17.4580   -7.3430 C.ar      1 GK0        -0.0453
     21 C31       -34.0780   16.8870   -8.6190 C.ar      1 GK0        -0.0471
     22 C33       -35.3010   16.9570   -9.2910 C.ar      1 GK0         0.1075
     23 O34       -35.3980   16.3950  -10.5670 O.3       1 GK0        -0.3402
     24 H1        -26.8002   18.0321   -6.7780 H         1 GK0         0.0474
     25 H2        -29.3012   15.6323   -4.1962 H         1 GK0         0.0474
     26 H3        -26.4389   14.1993   -2.5695 H         1 GK0         0.2437
     27 H4        -24.0789   15.7765   -4.2505 H         1 GK0         0.2421
     28 H5        -24.0246   17.4088   -4.8772 H         1 GK0         0.2437
     29 H6        -30.0443   15.4787   -6.7187 H         1 GK0         0.2518
     30 H7        -32.4590   17.7915   -5.6185 H         1 GK0         0.0691
     31 H8        -37.5505   17.2183  -10.2511 H         1 GK0         0.2408
     32 H9        -37.1592   19.0943   -5.9874 H         1 GK0         0.2437
     33 H10       -34.9644   18.4980   -5.7510 H         1 GK0         0.0409
     34 H11       -33.2330   16.3913   -9.0831 H         1 GK0         0.0409
     35 H12       -36.2798   16.5163  -10.8990 H         1 GK0         0.2437
@<TRIPOS>BOND
     1    2    1 ar 
     2    1    8 ar 
     3    2    3 ar 
     4   10    2 1  
     5    3    4 ar 
     6    4    5 1  
     7    4    6 ar 
     8    6    7 1  
     9    8    6 ar 
    10    8    9 1  
    11   10   11 2  
    12   12   10 am 
    13   13   12 1  
    14   14   13 2  
    15   20   14 1  
    16   15   16 1  
    17   17   15 ar 
    18   15   22 ar 
    19   17   18 1  
    20   19   17 ar 
    21   19   20 ar 
    22   20   21 ar 
    23   21   22 ar 
    24   22   23 1  
    25    1   24 1  
    26    3   25 1  
    27    5   26 1  
    28    7   27 1  
    29    9   28 1  
    30   12   29 1  
    31   14   30 1  
    32   16   31 1  
    33   18   32 1  
    34   19   33 1  
    35   21   34 1  
    36   23   35 1  
@<TRIPOS>SUBSTRUCTURE
     1 GK0         1

