### 
### Created by X-TOOL on Mon Sep 10 21:13:20 2018
### 

@<TRIPOS>MOLECULE
5egm_ligand
   64    70     1     0     0
SMALL
GAST_HUCK


@<TRIPOS>ATOM
      1 CL        -13.2820  -39.0900  -11.2380 Cl        1 5NY        -0.0665
      2 C25       -14.6290  -40.1850  -11.1740 C.ar      1 5NY         0.0567
      3 C24       -14.5260  -41.2870  -10.3410 C.ar      1 5NY        -0.0064
      4 C23       -15.5700  -42.2140  -10.3010 C.ar      1 5NY         0.1104
      5 N2        -15.4580  -43.3800   -9.4780 N.pl3     1 5NY        -0.1733
      6 C27       -14.8610  -43.4900   -8.2620 C.2       1 5NY         0.1361
      7 N4        -15.0050  -44.6920   -7.7810 N.2       1 5NY        -0.2517
      8 N3        -15.7120  -45.4250   -8.7260 N.2       1 5NY        -0.2517
      9 C26       -15.9580  -44.6210   -9.7220 C.2       1 5NY         0.1361
     10 C22       -16.6950  -42.0250  -11.0860 C.ar      1 5NY        -0.0202
     11 C21       -16.7900  -40.9210  -11.9090 C.ar      1 5NY        -0.0455
     12 C20       -15.7560  -39.9830  -11.9770 C.ar      1 5NY         0.0556
     13 C19       -15.9080  -38.8960  -12.9860 C.2       1 5NY         0.1927
     14 O         -16.2330  -39.1610  -14.1430 O.2       1 5NY        -0.3888
     15 N1        -15.7610  -37.6310  -12.5390 N.am      1 5NY        -0.3088
     16 C10       -15.8390  -36.4360  -13.3980 C.3       1 5NY         0.0736
     17 C9        -15.4040  -35.2520  -12.4700 C.3       1 5NY         0.0589
     18 N         -14.0000  -35.4440  -12.0340 N.pl3     1 5NY        -0.2549
     19 C4        -13.4380  -34.9870  -10.8350 C.ar      1 5NY         0.0628
     20 C3        -14.0370  -34.2670   -9.8060 C.ar      1 5NY        -0.0492
     21 C2        -13.2510  -33.9500   -8.7050 C.ar      1 5NY        -0.0754
     22 C13       -17.2640  -36.2170  -13.9350 C.ar      1 5NY        -0.0223
     23 C18       -18.3680  -36.7970  -13.3110 C.ar      1 5NY        -0.0373
     24 C17       -19.6540  -36.5420  -13.7610 C.ar      1 5NY        -0.0323
     25 C16       -19.8600  -35.7050  -14.8350 C.ar      1 5NY        -0.0340
     26 C15       -18.7790  -35.1220  -15.4670 C.ar      1 5NY        -0.0323
     27 C14       -17.4910  -35.3760  -15.0230 C.ar      1 5NY        -0.0373
     28 C11       -14.7830  -36.5150  -14.5220 C.3       1 5NY        -0.0319
     29 C12       -13.3690  -36.8440  -14.0180 C.3       1 5NY         0.0112
     30 C8        -13.0550  -36.1600  -12.7160 C.2       1 5NY         0.0749
     31 C7        -11.8580  -36.1880  -11.9920 C.2       1 5NY         0.0434
     32 C5        -12.1240  -35.4070  -10.7850 C.ar      1 5NY        -0.0220
     33 C6        -11.3640  -35.0570   -9.6720 C.ar      1 5NY        -0.0763
     34 C1        -11.9070  -34.3260   -8.6260 C.ar      1 5NY        -0.0651
     35 C         -11.0670  -33.9650   -7.4200 C.3       1 5NY        -0.0377
     36 C28       -10.6130  -36.8490  -12.3430 C.2       1 5NY         0.1503
     37 N8        -10.4030  -37.6050  -13.4310 N.pl3     1 5NY        -0.1644
     38 N7         -9.1100  -37.9670  -13.3870 N.2       1 5NY        -0.0775
     39 N6         -8.5500  -37.4520  -12.3220 N.2       1 5NY        -0.1561
     40 N5         -9.4650  -36.7500  -11.6550 N.2       1 5NY        -0.2355
     41 H1        -13.6442  -41.4285   -9.7265 H         1 5NY         0.0604
     42 H2        -14.3332  -42.6819   -7.7576 H         1 5NY         0.1324
     43 H3        -16.4920  -44.9048  -10.6277 H         1 5NY         0.1324
     44 H4        -17.5036  -42.7463  -11.0541 H         1 5NY         0.0600
     45 H5        -17.6798  -40.7793  -12.5116 H         1 5NY         0.0652
     46 H6        -15.5882  -37.4961  -11.5633 H         1 5NY         0.1731
     47 H7        -16.0593  -35.2205  -11.5870 H         1 5NY         0.0531
     48 H8        -15.4881  -34.3049  -13.0230 H         1 5NY         0.0531
     49 H9        -15.0766  -33.9651   -9.8612 H         1 5NY         0.0529
     50 H10       -13.6923  -33.3957   -7.8845 H         1 5NY         0.0468
     51 H11       -18.2186  -37.4557  -12.4632 H         1 5NY         0.0851
     52 H12       -20.5008  -37.0032  -13.2656 H         1 5NY         0.0698
     53 H13       -20.8668  -35.5044  -15.1831 H         1 5NY         0.0856
     54 H14       -18.9386  -34.4635  -16.3132 H         1 5NY         0.0698
     55 H15       -16.6499  -34.9150  -15.5280 H         1 5NY         0.0851
     56 H16       -14.7508  -35.5438  -15.0374 H         1 5NY         0.0226
     57 H17       -15.0894  -37.2971  -15.2322 H         1 5NY         0.0226
     58 H18       -12.6391  -36.5185  -14.7738 H         1 5NY         0.0507
     59 H19       -13.2884  -37.9316  -13.8749 H         1 5NY         0.0507
     60 H20       -10.3252  -35.3626   -9.6220 H         1 5NY         0.0443
     61 H21       -11.6762  -33.3887   -6.7081 H         1 5NY         0.0370
     62 H22       -10.2065  -33.3593   -7.7405 H         1 5NY         0.0370
     63 H23       -10.7078  -34.8845   -6.9348 H         1 5NY         0.0370
     64 H24       -11.0928  -37.8568  -14.1533 H         1 5NY         0.2647
@<TRIPOS>BOND
     1    1    2 1  
     2    2    3 ar 
     3    2   12 ar 
     4    3    4 ar 
     5    4    5 1  
     6    4   10 ar 
     7    5    6 1  
     8    5    9 1  
     9    6    7 2  
    10    7    8 1  
    11    8    9 2  
    12   10   11 ar 
    13   11   12 ar 
    14   12   13 1  
    15   13   14 2  
    16   13   15 am 
    17   15   16 1  
    18   16   17 1  
    19   16   22 1  
    20   16   28 1  
    21   17   18 1  
    22   18   19 1  
    23   18   30 1  
    24   19   20 ar 
    25   19   32 ar 
    26   20   21 ar 
    27   21   34 ar 
    28   22   23 ar 
    29   22   27 ar 
    30   23   24 ar 
    31   24   25 ar 
    32   25   26 ar 
    33   26   27 ar 
    34   28   29 1  
    35   29   30 1  
    36   30   31 2  
    37   31   32 1  
    38   31   36 1  
    39   32   33 ar 
    40   33   34 ar 
    41   34   35 1  
    42   36   37 1  
    43   36   40 2  
    44   37   38 1  
    45   38   39 2  
    46   39   40 1  
    47    3   41 1  
    48    6   42 1  
    49    9   43 1  
    50   10   44 1  
    51   11   45 1  
    52   15   46 1  
    53   17   47 1  
    54   17   48 1  
    55   20   49 1  
    56   21   50 1  
    57   23   51 1  
    58   24   52 1  
    59   25   53 1  
    60   26   54 1  
    61   27   55 1  
    62   28   56 1  
    63   28   57 1  
    64   29   58 1  
    65   29   59 1  
    66   33   60 1  
    67   35   61 1  
    68   35   62 1  
    69   35   63 1  
    70   37   64 1  
@<TRIPOS>SUBSTRUCTURE
     1 5NY         1

