### 
### Created by X-TOOL on Mon Sep 10 21:13:29 2018
### 

@<TRIPOS>MOLECULE
5egs_ligand
   40    41     1     0     0
SMALL
GAST_HUCK


@<TRIPOS>ATOM
      1 C4          8.7410  -14.5660    3.4000 C.ar      1 5NR        -0.0686
      2 C14        10.8910  -17.9960    9.2580 C.3       1 5NR         0.0091
      3 C5          7.7160  -13.6230    3.2820 C.ar      1 5NR        -0.0687
      4 C6          6.5650  -13.7680    4.0220 C.ar      1 5NR        -0.0686
      5 C7          7.3060  -16.9910    5.9450 C.3       1 5NR        -0.0160
      6 C8          7.2770  -16.4640    7.3710 C.3       1 5NR        -0.0217
      7 C9          8.5230  -15.5740    7.5280 C.3       1 5NR        -0.0077
      8 C10         9.8060  -16.2120    8.0070 C.3       1 5NR        -0.0313
      9 C12         8.5780  -18.3010    8.4680 C.3       1 5NR        -0.0313
     10 C13         7.2430  -17.6210    8.4080 C.3       1 5NR        -0.0077
     11 C3          8.6310  -15.6550    4.2380 C.ar      1 5NR        -0.0603
     12 C1          6.4610  -14.8630    4.8830 C.ar      1 5NR        -0.0603
     13 C2          7.4640  -15.8120    4.9740 C.ar      1 5NR        -0.0428
     14 N11         9.5910  -17.3310    8.9420 N.4       1 5NR         0.2390
     15 C15        11.5010  -18.6970    8.0670 C.3       1 5NR         0.0057
     16 N16        12.7370  -19.3770    8.4810 N.4       1 5NR         0.2223
     17 H1          9.6460  -14.4376    2.8173 H         1 5NR         0.0599
     18 H2         10.7211  -18.7380   10.0521 H         1 5NR         0.0868
     19 H3         11.5977  -17.2323    9.6148 H         1 5NR         0.0868
     20 H4          7.8275  -12.7801    2.6096 H         1 5NR         0.0559
     21 H5          5.7578  -13.0493    3.9387 H         1 5NR         0.0599
     22 H6          6.3668  -17.5215    5.7297 H         1 5NR         0.0429
     23 H7          8.1533  -17.6822    5.8254 H         1 5NR         0.0429
     24 H8          6.3752  -15.8506    7.5136 H         1 5NR         0.0326
     25 H9          8.2673  -14.7800    8.2450 H         1 5NR         0.0321
     26 H10         8.7296  -15.1272    6.5443 H         1 5NR         0.0321
     27 H11        10.4085  -15.4445    8.5148 H         1 5NR         0.0814
     28 H12        10.3552  -16.5897    7.1320 H         1 5NR         0.0814
     29 H13         8.8535  -18.6622    7.4662 H         1 5NR         0.0814
     30 H14         8.5279  -19.1517    9.1636 H         1 5NR         0.0814
     31 H15         6.4759  -18.3518    8.1123 H         1 5NR         0.0321
     32 H16         6.9980  -17.2132    9.3998 H         1 5NR         0.0321
     33 H17         9.4384  -16.3736    4.3207 H         1 5NR         0.0557
     34 H18         5.5729  -14.9720    5.4949 H         1 5NR         0.0557
     35 H19         9.2378  -16.9369    9.7999 H         1 5NR         0.2035
     36 H20        11.7326  -17.9585    7.2854 H         1 5NR         0.0866
     37 H21        10.7893  -19.4373    7.6727 H         1 5NR         0.0866
     38 H22        13.1450  -19.8452    7.6870 H         1 5NR         0.1996
     39 H23        12.5245  -20.0536    9.1973 H         1 5NR         0.1996
     40 H24        13.3889  -18.6985    8.8424 H         1 5NR         0.1996
@<TRIPOS>BOND
     1    1    3 ar 
     2   11    1 ar 
     3   14    2 1  
     4    2   15 1  
     5    3    4 ar 
     6    4   12 ar 
     7    5    6 1  
     8   13    5 1  
     9    6    7 1  
    10    6   10 1  
    11    7    8 1  
    12    8   14 1  
    13   10    9 1  
    14    9   14 1  
    15   11   13 ar 
    16   12   13 ar 
    17   15   16 1  
    18    1   17 1  
    19    2   18 1  
    20    2   19 1  
    21    3   20 1  
    22    4   21 1  
    23    5   22 1  
    24    5   23 1  
    25    6   24 1  
    26    7   25 1  
    27    7   26 1  
    28    8   27 1  
    29    8   28 1  
    30    9   29 1  
    31    9   30 1  
    32   10   31 1  
    33   10   32 1  
    34   11   33 1  
    35   12   34 1  
    36   14   35 1  
    37   15   36 1  
    38   15   37 1  
    39   16   38 1  
    40   16   39 1  
    41   16   40 1  
@<TRIPOS>SUBSTRUCTURE
     1 5NR         1

