### 
### Created by X-TOOL on Mon Sep 10 21:13:28 2018
### 

@<TRIPOS>MOLECULE
5egu_ligand
   66    69     1     0     0
SMALL
GAST_HUCK


@<TRIPOS>ATOM
      1 C1         10.7080   33.4540   69.2080 C.3       1 5NQ        -0.0652
      2 C2         10.7540   34.4050   68.0420 C.3       1 5NQ        -0.0536
      3 C3         11.2440   33.5890   66.8250 C.3       1 5NQ        -0.0278
      4 C4          9.9740   33.0570   66.1990 C.3       1 5NQ         0.0557
      5 N5         10.1610   32.3000   64.9110 N.am      1 5NQ        -0.2018
      6 C6         10.5840   32.9480   63.7890 C.2       1 5NQ         0.3154
      7 O31        10.9650   34.1100   63.8040 O.2       1 5NQ        -0.3875
      8 N7         10.6440   32.2440   62.5930 N.am      1 5NQ        -0.1861
      9 C8         10.2760   30.8690   62.5260 C.2       1 5NQ         0.2213
     10 O32        10.3880   30.2700   61.4270 O.2       1 5NQ        -0.4046
     11 C9          9.8260   30.2800   63.6490 C.2       1 5NQ         0.1533
     12 N11         9.3630   29.0090   63.9310 N.pl3     1 5NQ        -0.2485
     13 C33         9.2580   27.8290   63.0720 C.3       1 5NQ         0.0494
     14 C34        10.6590   27.3560   62.8140 C.3       1 5NQ        -0.0383
     15 C10         9.7690   31.0130   64.8000 C.2       1 5NQ         0.1259
     16 N13         9.2750   30.2020   65.7340 N.2       1 5NQ        -0.2937
     17 C12         9.0380   28.9990   65.2120 C.2       1 5NQ         0.1284
     18 C14         8.4570   27.9130   66.0310 C.3       1 5NQ         0.0872
     19 S15         6.6160   27.7890   65.5770 S.3       1 5NQ        -0.0604
     20 C16         5.8690   26.9200   66.9620 C.2       1 5NQ         0.1171
     21 N20         4.5840   26.5550   67.0550 N.2       1 5NQ        -0.2938
     22 N17         6.5290   26.6080   68.0790 N.2       1 5NQ        -0.1843
     23 N18         5.6260   26.0290   68.8910 N.pl3     1 5NQ        -0.1222
     24 C21         5.8810   25.5500   70.1210 C.2       1 5NQ         0.1289
     25 C26         7.1840   25.6570   70.6760 C.3       1 5NQ         0.0164
     26 C19         4.4460   25.9800   68.2530 C.2       1 5NQ         0.2078
     27 N24         3.4230   25.4570   68.9260 N.2       1 5NQ        -0.2731
     28 C23         3.5790   24.9850   70.1810 C.2       1 5NQ         0.0228
     29 C25         2.4540   24.3650   70.7810 C.3       1 5NQ        -0.0117
     30 C22         4.8490   24.9700   70.8000 C.2       1 5NQ         0.0281
     31 C27         5.0550   24.5030   72.1060 C.3       1 5NQ        -0.0214
     32 C28         4.6160   25.4980   73.1560 C.3       1 5NQ        -0.0475
     33 C29         4.7560   24.9560   74.6070 C.3       1 5NQ        -0.0547
     34 C30         4.4750   26.2360   75.4170 C.3       1 5NQ        -0.0652
     35 H1         10.3630   33.9897   70.1047 H         1 5NQ         0.0230
     36 H2         11.7136   33.0464   69.3887 H         1 5NQ         0.0230
     37 H3         10.0138   32.6310   68.9828 H         1 5NQ         0.0230
     38 H4         11.4516   35.2292   68.2519 H         1 5NQ         0.0263
     39 H5          9.7518   34.8138   67.8460 H         1 5NQ         0.0263
     40 H6         11.8962   32.7634   67.1459 H         1 5NQ         0.0289
     41 H7         11.7878   34.2322   66.1175 H         1 5NQ         0.0289
     42 H8          9.3102   33.9109   65.9982 H         1 5NQ         0.0584
     43 H9          9.4946   32.3822   66.9234 H         1 5NQ         0.0584
     44 H10        10.9511   32.7108   61.7637 H         1 5NQ         0.2253
     45 H11         8.7666   28.0930   62.1239 H         1 5NQ         0.0600
     46 H12         8.6796   27.0421   63.5782 H         1 5NQ         0.0600
     47 H13        10.6323   26.4655   62.1689 H         1 5NQ         0.0256
     48 H14        11.1422   27.1025   63.7691 H         1 5NQ         0.0256
     49 H15        11.2292   28.1534   62.3149 H         1 5NQ         0.0256
     50 H16         8.5664   28.1476   67.1001 H         1 5NQ         0.0654
     51 H17         8.9642   26.9622   65.8105 H         1 5NQ         0.0654
     52 H18         7.1920   25.2109   71.6815 H         1 5NQ         0.0493
     53 H19         7.4680   26.7176   70.7432 H         1 5NQ         0.0493
     54 H20         7.9011   25.1253   70.0333 H         1 5NQ         0.0493
     55 H21         2.7177   24.0290   71.7947 H         1 5NQ         0.0453
     56 H22         2.1465   23.4992   70.1762 H         1 5NQ         0.0453
     57 H23         1.6249   25.0857   70.8377 H         1 5NQ         0.0453
     58 H24         6.1272   24.2979   72.2417 H         1 5NQ         0.0365
     59 H25         4.4837   23.5728   72.2416 H         1 5NQ         0.0365
     60 H26         3.5608   25.7524   72.9777 H         1 5NQ         0.0280
     61 H27         5.2329   26.4036   73.0597 H         1 5NQ         0.0280
     62 H28         5.7673   24.5683   74.7993 H         1 5NQ         0.0264
     63 H29         4.0156   24.1708   74.8198 H         1 5NQ         0.0264
     64 H30         4.5386   26.0111   76.4919 H         1 5NQ         0.0230
     65 H31         3.4670   26.6067   75.1791 H         1 5NQ         0.0230
     66 H32         5.2187   27.0042   75.1585 H         1 5NQ         0.0230
@<TRIPOS>BOND
     1    1    2 1  
     2    2    3 1  
     3    3    4 1  
     4    4    5 1  
     5    5    6 1  
     6    5   15 1  
     7    6    7 2  
     8    6    8 1  
     9    8    9 1  
    10    9   10 2  
    11    9   11 1  
    12   11   12 1  
    13   11   15 2  
    14   12   13 1  
    15   12   17 1  
    16   13   14 1  
    17   15   16 1  
    18   16   17 2  
    19   17   18 1  
    20   18   19 1  
    21   19   20 1  
    22   20   21 1  
    23   20   22 2  
    24   21   26 2  
    25   22   23 1  
    26   23   24 1  
    27   23   26 1  
    28   24   25 1  
    29   24   30 2  
    30   26   27 1  
    31   27   28 2  
    32   28   29 1  
    33   28   30 1  
    34   30   31 1  
    35   31   32 1  
    36   32   33 1  
    37   33   34 1  
    38    1   35 1  
    39    1   36 1  
    40    1   37 1  
    41    2   38 1  
    42    2   39 1  
    43    3   40 1  
    44    3   41 1  
    45    4   42 1  
    46    4   43 1  
    47    8   44 1  
    48   13   45 1  
    49   13   46 1  
    50   14   47 1  
    51   14   48 1  
    52   14   49 1  
    53   18   50 1  
    54   18   51 1  
    55   25   52 1  
    56   25   53 1  
    57   25   54 1  
    58   29   55 1  
    59   29   56 1  
    60   29   57 1  
    61   31   58 1  
    62   31   59 1  
    63   32   60 1  
    64   32   61 1  
    65   33   62 1  
    66   33   63 1  
    67   34   64 1  
    68   34   65 1  
    69   34   66 1  
@<TRIPOS>SUBSTRUCTURE
     1 5NQ         1

