### 
### Created by X-TOOL on Mon Sep 10 21:13:28 2018
### 

@<TRIPOS>MOLECULE
5eh0_ligand
   58    61     1     0     0
SMALL
GAST_HUCK


@<TRIPOS>ATOM
      1 C1          1.0950  -33.5660  -11.9990 C.ar      1 5NW         0.0272
      2 N5          2.2120  -35.4060  -13.7960 N.ar      1 5NW        -0.2847
      3 C6         -1.8270  -38.4100   -9.0690 C.ar      1 5NW        -0.0812
      4 C7         -2.0210  -38.7240   -7.7290 C.ar      1 5NW        -0.0546
      5 C8         -1.8680  -37.7320   -6.7670 C.ar      1 5NW        -0.0415
      6 C9         -1.5410  -36.4420   -7.1480 C.ar      1 5NW         0.1116
      7 C10        -1.5370  -35.6230   -4.8920 C.3       1 5NW         0.0569
      8 C11        -2.4270  -40.0920   -7.3130 C.2       1 5NW        -0.0088
      9 C12        -3.2640  -40.4330   -6.1970 C.2       1 5NW         0.0037
     10 C13        -2.1120  -41.2890   -7.9040 C.2       1 5NW         0.0598
     11 C15         1.8550  -33.1510  -13.1170 C.ar      1 5NW        -0.0396
     12 C18         1.9030  -38.1680  -13.4730 C.3       1 5NW         0.0341
     13 C19         1.0400  -39.4460  -13.5270 C.3       1 5NW        -0.0173
     14 C20        -0.2760  -39.1470  -14.2350 C.3       1 5NW        -0.0582
     15 C21         0.7500  -39.9230  -12.1090 C.3       1 5NW        -0.0582
     16 C22         1.7820  -40.5410  -14.2850 C.3       1 5NW        -0.0582
     17 N6          1.3320  -37.1870  -12.5590 N.pl3     1 5NW        -0.3007
     18 C17         1.5030  -35.8420  -12.7520 C.ar      1 5NW         0.1398
     19 C16         2.3720  -34.0850  -13.9570 C.ar      1 5NW        -0.0081
     20 C           0.8910  -34.9490  -11.7790 C.ar      1 5NW         0.0954
     21 N1          0.1670  -35.4190  -10.7270 N.ar      1 5NW        -0.2526
     22 C3         -0.3440  -34.3810   -9.8970 C.ar      1 5NW         0.2108
     23 N          -0.2000  -33.0540  -10.0260 N.ar      1 5NW        -0.2362
     24 C2          0.5110  -32.6810  -11.0660 C.ar      1 5NW         0.0357
     25 N2         -1.0700  -34.8100   -8.8370 N.pl3     1 5NW        -0.2457
     26 C4         -1.3620  -36.1250   -8.4950 C.ar      1 5NW         0.0930
     27 O          -1.3690  -35.3900   -6.2900 O.3       1 5NW        -0.3260
     28 C5         -1.5010  -37.1250   -9.4530 C.ar      1 5NW        -0.0491
     29 N4         -2.7160  -42.2510   -7.1970 N.pl3     1 5NW        -0.2079
     30 C14        -2.6790  -43.6880   -7.4370 C.3       1 5NW         0.0608
     31 N3         -3.4340  -41.7420   -6.1350 N.2       1 5NW        -0.2150
     32 H1         -1.9330  -39.1833   -9.8212 H         1 5NW         0.0462
     33 H2         -2.0048  -37.9688   -5.7181 H         1 5NW         0.0466
     34 H3         -1.3664  -34.6863   -4.3411 H         1 5NW         0.0573
     35 H4         -0.8145  -36.3819   -4.5573 H         1 5NW         0.0573
     36 H5         -2.5595  -35.9802   -4.7001 H         1 5NW         0.0573
     37 H6         -3.6967  -39.7155   -5.5014 H         1 5NW         0.0667
     38 H7         -1.4869  -41.4301   -8.7845 H         1 5NW         0.1009
     39 H8          2.0236  -32.0963  -13.3021 H         1 5NW         0.0606
     40 H9          1.9596  -37.7299  -14.4804 H         1 5NW         0.0529
     41 H10         2.9145  -38.4318  -13.1305 H         1 5NW         0.0529
     42 H11        -0.8884  -40.0601  -14.2716 H         1 5NW         0.0236
     43 H12        -0.0712  -38.8016  -15.2591 H         1 5NW         0.0236
     44 H13        -0.8184  -38.3636  -13.6854 H         1 5NW         0.0236
     45 H14         1.6976  -40.1400  -11.5942 H         1 5NW         0.0236
     46 H15         0.1363  -40.8351  -12.1472 H         1 5NW         0.0236
     47 H16         0.2069  -39.1382  -11.5620 H         1 5NW         0.0236
     48 H17         1.9928  -40.1996  -15.3092 H         1 5NW         0.0236
     49 H18         1.1602  -41.4476  -14.3215 H         1 5NW         0.0236
     50 H19         2.7284  -40.7658  -13.7714 H         1 5NW         0.0236
     51 H20         0.7867  -37.5131  -11.7483 H         1 5NW         0.1849
     52 H21         2.9484  -33.7415  -14.8084 H         1 5NW         0.0725
     53 H22         0.6600  -31.6182  -11.2189 H         1 5NW         0.0997
     54 H23        -1.4476  -34.0806   -8.2154 H         1 5NW         0.2150
     55 H24        -1.3531  -36.8944  -10.5018 H         1 5NW         0.0499
     56 H25        -3.2811  -44.2028   -6.6738 H         1 5NW         0.0606
     57 H26        -1.6389  -44.0420   -7.3837 H         1 5NW         0.0606
     58 H27        -3.0891  -43.9038   -8.4346 H         1 5NW         0.0606
@<TRIPOS>BOND
     1    1   11 ar 
     2   20    1 ar 
     3   24    1 ar 
     4   18    2 ar 
     5    2   19 ar 
     6    4    3 ar 
     7    3   28 ar 
     8    5    4 ar 
     9    4    8 1  
    10    6    5 ar 
    11   26    6 ar 
    12    6   27 1  
    13   27    7 1  
    14    8    9 1  
    15    8   10 2  
    16    9   31 2  
    17   10   29 1  
    18   11   19 ar 
    19   12   13 1  
    20   17   12 1  
    21   13   14 1  
    22   13   15 1  
    23   13   16 1  
    24   18   17 1  
    25   20   18 ar 
    26   21   20 ar 
    27   22   21 ar 
    28   22   23 ar 
    29   25   22 1  
    30   23   24 ar 
    31   25   26 1  
    32   26   28 ar 
    33   29   30 1  
    34   29   31 1  
    35    3   32 1  
    36    5   33 1  
    37    7   34 1  
    38    7   35 1  
    39    7   36 1  
    40    9   37 1  
    41   10   38 1  
    42   11   39 1  
    43   12   40 1  
    44   12   41 1  
    45   14   42 1  
    46   14   43 1  
    47   14   44 1  
    48   15   45 1  
    49   15   46 1  
    50   15   47 1  
    51   16   48 1  
    52   16   49 1  
    53   16   50 1  
    54   17   51 1  
    55   19   52 1  
    56   24   53 1  
    57   25   54 1  
    58   28   55 1  
    59   30   56 1  
    60   30   57 1  
    61   30   58 1  
@<TRIPOS>SUBSTRUCTURE
     1 5NW         1

