### 
### Created by X-TOOL on Mon Sep 10 21:13:27 2018
### 

@<TRIPOS>MOLECULE
5eh5_ligand
   18    18     1     0     0
SMALL
GAST_HUCK


@<TRIPOS>ATOM
      1 C11        17.5180    4.5090   14.4500 C.ar      1 XCZ        -0.0078
      2 C10        18.2140    3.5550   15.2060 C.ar      1 XCZ         0.0232
      3 C2         16.0950    4.4570   14.4400 C.ar      1 XCZ         0.0455
      4 C4         16.1730    2.6090   15.8380 C.ar      1 XCZ         0.2553
      5 C1         15.2640    5.4480   13.6720 C.3       1 XCZ        -0.0086
      6 N9         17.5180    2.6120   15.8880 N.ar      1 XCZ        -0.2469
      7 N3         15.4670    3.4790   15.1360 N.ar      1 XCZ        -0.2382
      8 N6         15.8220   -0.0600   16.1160 N.am      1 XCZ        -0.2565
      9 O7         15.7790    1.5280   18.1120 O.2       1 XCZ        -0.1452
     10 O8         13.8720    1.5800   16.5520 O.2       1 XCZ        -0.1452
     11 S5         15.3230    1.3680   16.7410 S.o2      1 XCZ         0.0997
     12 H1         18.0500    5.2674   13.8871 H         1 XCZ         0.0719
     13 H2         19.2972    3.5711   15.2449 H         1 XCZ         0.0914
     14 H3         14.1975    5.2160   13.8086 H         1 XCZ         0.0446
     15 H4         15.5180    5.3894   12.6034 H         1 XCZ         0.0446
     16 H5         15.4687    6.4633   14.0425 H         1 XCZ         0.0446
     17 H6         15.4634   -0.9187   16.4822 H         1 XCZ         0.1638
     18 H7         16.4855   -0.0738   15.3679 H         1 XCZ         0.1638
@<TRIPOS>BOND
     1    1    2 ar 
     2    1    3 ar 
     3    2    6 ar 
     4    3    5 1  
     5    3    7 ar 
     6    6    4 ar 
     7    4    7 ar 
     8    4   11 1  
     9   11    8 am 
    10   11    9 2  
    11   11   10 2  
    12    1   12 1  
    13    2   13 1  
    14    5   14 1  
    15    5   15 1  
    16    5   16 1  
    17    8   17 1  
    18    8   18 1  
@<TRIPOS>SUBSTRUCTURE
     1 XCZ         1

