### 
### Created by X-TOOL on Mon Sep 10 21:13:26 2018
### 

@<TRIPOS>MOLECULE
5eh7_ligand
   21    22     1     0     0
SMALL
GAST_HUCK


@<TRIPOS>ATOM
      1 CL1        15.4720    5.8950   15.3890 Cl        1 5O5        -0.0728
      2 C02        15.6050    4.5890   14.2740 C.ar      1 5O5         0.0457
      3 C03        15.1220    4.7590   13.0130 C.ar      1 5O5         0.0424
      4 CL2        14.3980    6.2670   12.5170 Cl        1 5O5        -0.0803
      5 C05        15.2200    3.7150   12.1070 C.ar      1 5O5        -0.0562
      6 C06        15.8000    2.5150   12.4780 C.ar      1 5O5        -0.0320
      7 C07        16.2740    2.3400   13.7610 C.ar      1 5O5         0.0958
      8 O08        16.8050    1.0670   14.0700 O.3       1 5O5        -0.2959
      9 C09        17.3990    0.9040   15.3170 C.3       1 5O5         0.1565
     10 C10        16.3320    0.9650   16.3680 C.2       1 5O5         0.1936
     11 N11        15.1680    0.3040   16.3900 N.pl3     1 5O5        -0.1490
     12 N12        14.5290    0.6890   17.5100 N.2       1 5O5        -0.0729
     13 N13        15.2940    1.5450   18.1590 N.2       1 5O5        -0.1531
     14 N14        16.4080    1.7430   17.4500 N.2       1 5O5        -0.2202
     15 C15        16.2000    3.3970   14.6480 C.ar      1 5O5        -0.0184
     16 H1         14.8392    3.8396   11.0997 H         1 5O5         0.0596
     17 H2         15.8821    1.7094   11.7574 H         1 5O5         0.0545
     18 H3         18.1316    1.7069   15.4861 H         1 5O5         0.0885
     19 H4         17.9067   -0.0709   15.3608 H         1 5O5         0.0885
     20 H5         14.8280   -0.3678   15.6872 H         1 5O5         0.2710
     21 H6         16.6116    3.2915   15.6453 H         1 5O5         0.0548
@<TRIPOS>BOND
     1    1    2 1  
     2    2    3 ar 
     3    2   15 ar 
     4    3    4 1  
     5    3    5 ar 
     6    5    6 ar 
     7    6    7 ar 
     8    7    8 1  
     9    7   15 ar 
    10    8    9 1  
    11    9   10 1  
    12   10   11 1  
    13   10   14 2  
    14   11   12 1  
    15   12   13 2  
    16   13   14 1  
    17    5   16 1  
    18    6   17 1  
    19    9   18 1  
    20    9   19 1  
    21   11   20 1  
    22   15   21 1  
@<TRIPOS>SUBSTRUCTURE
     1 5O5         1

