### 
### Created by X-TOOL on Mon Sep 10 21:13:26 2018
### 

@<TRIPOS>MOLECULE
5eh8_ligand
   25    25     1     0     0
SMALL
GAST_HUCK


@<TRIPOS>ATOM
      1 C01        20.9270   10.0590   14.5660 C.3       1 5O6         0.0607
      2 O02        20.6130    9.1710   13.5200 O.3       1 5O6        -0.3178
      3 C03        19.7420    8.1250   13.8860 C.ar      1 5O6         0.0960
      4 C04        18.6530    8.3930   14.7040 C.ar      1 5O6        -0.0278
      5 C05        17.7850    7.3710   15.0590 C.ar      1 5O6        -0.0571
      6 C06        18.0140    6.1130   14.5540 C.ar      1 5O6        -0.0206
      7 C07        17.0750    5.0150   14.9610 C.2       1 5O6        -0.0402
      8 C08        15.5810    5.2840   15.0290 C.3       1 5O6        -0.0279
      9 C09        17.6840    3.8410   15.2450 C.2       1 5O6        -0.0441
     10 C10        16.9900    2.5850   15.7180 C.2       1 5O6         0.0330
     11 O11        17.5330    1.9010   16.6290 O.co2     1 5O6        -0.5721
     12 O12        15.8750    2.2440   15.2620 O.co2     1 5O6        -0.5721
     13 C13        19.1130    5.8360   13.7500 C.ar      1 5O6        -0.0571
     14 C14        19.9660    6.8600   13.3950 C.ar      1 5O6        -0.0278
     15 H1         21.6076   10.8386   14.1932 H         1 5O6         0.0580
     16 H2         21.4149    9.5062   15.3823 H         1 5O6         0.0580
     17 H3         20.0040   10.5262   14.9399 H         1 5O6         0.0580
     18 H4         18.4810    9.4005   15.0652 H         1 5O6         0.0557
     19 H5         16.9460    7.5597   15.7190 H         1 5O6         0.0627
     20 H6         15.0576    4.3689   15.3430 H         1 5O6         0.0417
     21 H7         15.2183    5.5918   14.0372 H         1 5O6         0.0417
     22 H8         15.3855    6.0860   15.7561 H         1 5O6         0.0417
     23 H9         18.7652    3.7975   15.1224 H         1 5O6         0.0385
     24 H10        19.2981    4.8251   13.4052 H         1 5O6         0.0627
     25 H11        20.8049    6.6696   12.7354 H         1 5O6         0.0557
@<TRIPOS>BOND
     1    1    2 1  
     2    2    3 1  
     3    3    4 ar 
     4    3   14 ar 
     5    4    5 ar 
     6    5    6 ar 
     7    6    7 1  
     8    6   13 ar 
     9    7    8 1  
    10    7    9 2  
    11    9   10 1  
    12   10   11 ar 
    13   10   12 ar 
    14   13   14 ar 
    15    1   15 1  
    16    1   16 1  
    17    1   17 1  
    18    4   18 1  
    19    5   19 1  
    20    8   20 1  
    21    8   21 1  
    22    8   22 1  
    23    9   23 1  
    24   13   24 1  
    25   14   25 1  
@<TRIPOS>SUBSTRUCTURE
     1 5O6         1

