### 
### Created by X-TOOL on Mon Sep 10 21:13:27 2018
### 

@<TRIPOS>MOLECULE
5ehe_ligand
   42    43     1     0     0
SMALL
GAST_HUCK


@<TRIPOS>ATOM
      1 F27        14.3130    5.1380   15.0600 F         1 WWO        -0.1949
      2 C5         15.6280    5.3300   15.0940 C.ar      1 WWO         0.1708
      3 C4         16.3490    4.3490   15.8390 C.ar      1 WWO         0.1616
      4 S7         15.4740    2.9910   16.6990 S.o2      1 WWO         0.0636
      5 O9         13.9060    2.9740   16.6090 O.2       1 WWO        -0.1519
      6 N10        15.7010    1.5080   15.9430 N.am      1 WWO        -0.2621
      7 O8         15.7600    2.7130   18.1560 O.2       1 WWO        -0.1519
      8 C3         17.7560    4.4580   15.8790 C.ar      1 WWO         0.1773
      9 F12        18.4850    3.5140   16.5480 F         1 WWO        -0.1943
     10 C2         18.4070    5.5300   15.2340 C.ar      1 WWO         0.1761
     11 F13        19.7910    5.6530   15.2810 F         1 WWO        -0.1890
     12 C6         16.2570    6.4360   14.4390 C.ar      1 WWO         0.0951
     13 C1         17.6870    6.5010   14.5090 C.ar      1 WWO         0.1356
     14 S11        18.6940    7.8390   13.8060 S.o2      1 WWO        -0.0053
     15 O22        17.7490    8.7110   12.9390 O.2       1 WWO        -0.1719
     16 O23        19.5310    7.1980   12.6480 O.2       1 WWO        -0.1719
     17 C21        19.6460    9.0690   14.7560 C.3       1 WWO         0.0913
     18 C24        20.4130   10.0890   13.9180 C.3       1 WWO         0.0637
     19 O25        20.2630   11.3710   14.4510 O.3       1 WWO        -0.3934
     20 N26        15.5550    7.4230   13.6920 N.pl3     1 WWO        -0.3130
     21 C14        14.8900    7.2510   12.4040 C.3       1 WWO         0.0562
     22 C15        15.0890    8.2720   11.3120 C.ar      1 WWO        -0.0220
     23 C20        16.1830    8.1580   10.4080 C.ar      1 WWO        -0.0585
     24 C19        16.3960    9.0900    9.3680 C.ar      1 WWO        -0.0685
     25 C18        15.4870   10.1550    9.2110 C.ar      1 WWO        -0.0687
     26 C17        14.3880   10.2620   10.0880 C.ar      1 WWO        -0.0685
     27 C16        14.1840    9.3370   11.1410 C.ar      1 WWO        -0.0585
     28 H1         15.2732    0.6853   16.3173 H         1 WWO         0.1633
     29 H2         16.2639    1.4480   15.1187 H         1 WWO         0.1633
     30 H3         20.3718    8.5281   15.3811 H         1 WWO         0.0524
     31 H4         18.9440    9.6180   15.4008 H         1 WWO         0.0524
     32 H5         20.0250   10.0772   12.8888 H         1 WWO         0.0573
     33 H6         21.4802    9.8225   13.9107 H         1 WWO         0.0573
     34 H7         20.7456   11.9925   13.9187 H         1 WWO         0.2095
     35 H8         15.5112    8.3648   14.1068 H         1 WWO         0.1759
     36 H9         13.8097    7.2093   12.6071 H         1 WWO         0.0672
     37 H10        15.2248    6.2842   12.0000 H         1 WWO         0.0672
     38 H11        16.8739    7.3304   10.5213 H         1 WWO         0.0557
     39 H12        17.2449    8.9875    8.7017 H         1 WWO         0.0599
     40 H13        15.6312   10.8855    8.4232 H         1 WWO         0.0559
     41 H14        13.6813   11.0728    9.9528 H         1 WWO         0.0599
     42 H15        13.3381    9.4481   11.8097 H         1 WWO         0.0557
@<TRIPOS>BOND
     1    1    2 1  
     2    2    3 ar 
     3    2   12 ar 
     4    3    4 1  
     5    3    8 ar 
     6    4    5 2  
     7    4    6 am 
     8    4    7 2  
     9    8    9 1  
    10    8   10 ar 
    11   10   11 1  
    12   10   13 ar 
    13   12   13 ar 
    14   12   20 1  
    15   13   14 1  
    16   14   15 2  
    17   14   16 2  
    18   14   17 1  
    19   17   18 1  
    20   18   19 1  
    21   20   21 1  
    22   21   22 1  
    23   22   23 ar 
    24   22   27 ar 
    25   23   24 ar 
    26   24   25 ar 
    27   25   26 ar 
    28   26   27 ar 
    29    6   28 1  
    30    6   29 1  
    31   17   30 1  
    32   17   31 1  
    33   18   32 1  
    34   18   33 1  
    35   19   34 1  
    36   20   35 1  
    37   21   36 1  
    38   21   37 1  
    39   23   38 1  
    40   24   39 1  
    41   25   40 1  
    42   26   41 1  
    43   27   42 1  
@<TRIPOS>SUBSTRUCTURE
     1 WWO         1

