### 
### Created by X-TOOL on Mon Sep 10 21:13:27 2018
### 

@<TRIPOS>MOLECULE
5ehg_ligand
   46    48     1     0     0
SMALL
GAST_HUCK


@<TRIPOS>ATOM
      1 C3         20.2530   51.0480  -10.0570 C.ar      1 5O0        -0.0753
      2 C4         21.4670   51.3160   -9.4430 C.ar      1 5O0        -0.0516
      3 C5         22.6190   50.5940   -9.8210 C.ar      1 5O0         0.0869
      4 C6         24.1730   50.8220   -7.9290 C.2       1 5O0         0.3141
      5 C1         21.3130   49.2980  -11.4440 C.ar      1 5O0        -0.0439
      6 C2         20.2270   50.0700  -11.0430 C.ar      1 5O0         0.0120
      7 C9         28.1480   50.4590   -5.0680 C.ar      1 5O0        -0.0738
      8 O5         30.0980   56.1550   -0.1260 O.co2     1 5O0        -0.5636
      9 S          25.0830   51.2060   -2.5820 S.o2      1 5O0         0.1274
     10 O1         23.7110   51.0750   -2.8800 O.2       1 5O0        -0.1381
     11 O2         25.6910   50.5120   -1.5110 O.2       1 5O0        -0.1381
     12 C13        27.1100   53.3120   -1.0320 C.ar      1 5O0        -0.0267
     13 C18        26.1380   54.9310   -2.6650 C.ar      1 5O0        -0.0267
     14 C17        27.1500   55.8590   -2.3400 C.ar      1 5O0        -0.0562
     15 C16        29.1780   56.5280   -1.0620 C.2       1 5O0         0.0557
     16 C19        25.4320   51.1550   -5.2170 C.ar      1 5O0        -0.0140
     17 O4         29.2800   57.6480   -1.5610 O.co2     1 5O0        -0.5636
     18 O3         25.1230   52.8020   -2.2510 O.3       1 5O0        -0.1637
     19 C15        28.1410   55.5190   -1.3700 C.ar      1 5O0        -0.0010
     20 C14        28.1160   54.2460   -0.7240 C.ar      1 5O0        -0.0562
     21 C8         27.5410   50.5940   -6.3280 C.ar      1 5O0        -0.0414
     22 C10        27.3960   50.6670   -3.8970 C.ar      1 5O0        -0.0497
     23 C11        26.0120   51.0160   -3.9500 C.ar      1 5O0         0.1079
     24 C12        26.1350   53.6710   -1.9970 C.ar      1 5O0         0.1268
     25 C7         26.1720   50.9500   -6.4030 C.ar      1 5O0         0.0689
     26 N1         23.9000   50.8830   -9.2730 N.am      1 5O0        -0.2183
     27 O          23.3160   50.5460   -7.0610 O.2       1 5O0        -0.3815
     28 N          23.6850   48.8280  -11.1730 N.pl3     1 5O0        -0.3422
     29 CL         18.7780   49.8840  -11.9060 Cl        1 5O0        -0.0883
     30 C          22.5560   49.5600  -10.8210 C.ar      1 5O0         0.0590
     31 N2         25.5270   51.1400   -7.6620 N.am      1 5O0        -0.2147
     32 H1         19.3536   51.5842   -9.7767 H         1 5O0         0.0473
     33 H2         21.5310   52.0781   -8.6747 H         1 5O0         0.0459
     34 H3         21.2111   48.5289  -12.2011 H         1 5O0         0.0471
     35 H4         29.1969   50.1943   -4.9979 H         1 5O0         0.0577
     36 H5         27.0810   52.3441   -0.5448 H         1 5O0         0.0551
     37 H6         25.3817   55.1698   -3.4040 H         1 5O0         0.0551
     38 H7         27.1750   56.8278   -2.8256 H         1 5O0         0.0623
     39 H8         24.3854   51.4277   -5.2899 H         1 5O0         0.0521
     40 H9         28.8763   53.9978    0.0077 H         1 5O0         0.0623
     41 H10        28.1142   50.4275   -7.2329 H         1 5O0         0.0501
     42 H11        27.8783   50.5599   -2.9321 H         1 5O0         0.0506
     43 H12        24.6369   51.1431   -9.8970 H         1 5O0         0.2226
     44 H13        24.5877   49.0224  -10.7167 H         1 5O0         0.1677
     45 H14        23.6184   48.0915  -11.8900 H         1 5O0         0.1677
     46 H15        26.0697   51.5250   -8.4085 H         1 5O0         0.2261
@<TRIPOS>BOND
     1    2    1 ar 
     2    1    6 ar 
     3    3    2 ar 
     4   26    3 1  
     5    3   30 ar 
     6    4   26 am 
     7    4   27 2  
     8   31    4 am 
     9    5    6 ar 
    10   30    5 ar 
    11    6   29 1  
    12   21    7 ar 
    13    7   22 ar 
    14   15    8 ar 
    15    9   10 2  
    16    9   11 2  
    17    9   18 1  
    18   23    9 1  
    19   12   20 ar 
    20   24   12 ar 
    21   13   14 ar 
    22   24   13 ar 
    23   14   19 ar 
    24   15   17 ar 
    25   19   15 1  
    26   16   23 ar 
    27   25   16 ar 
    28   18   24 1  
    29   20   19 ar 
    30   25   21 ar 
    31   23   22 ar 
    32   25   31 1  
    33   30   28 1  
    34    1   32 1  
    35    2   33 1  
    36    5   34 1  
    37    7   35 1  
    38   12   36 1  
    39   13   37 1  
    40   14   38 1  
    41   16   39 1  
    42   20   40 1  
    43   21   41 1  
    44   22   42 1  
    45   26   43 1  
    46   28   44 1  
    47   28   45 1  
    48   31   46 1  
@<TRIPOS>SUBSTRUCTURE
     1 5O0         1

