### 
### Created by X-TOOL on Mon Sep 10 21:13:28 2018
### 

@<TRIPOS>MOLECULE
5ehi_ligand
   47    49     1     0     0
SMALL
GAST_HUCK


@<TRIPOS>ATOM
      1 C1         52.1740   42.8000   11.0560 C.ar      1 5O3        -0.0439
      2 C2         51.0670   42.1030   10.5950 C.ar      1 5O3         0.0120
      3 C3         51.1200   41.2230    9.5450 C.ar      1 5O3        -0.0753
      4 C4         52.3460   40.9760    8.9100 C.ar      1 5O3        -0.0516
      5 C5         53.4780   41.6440    9.3610 C.ar      1 5O3         0.0869
      6 C6         54.9640   41.4720    7.3990 C.2       1 5O3         0.3141
      7 C7         56.9570   41.4170    5.8560 C.ar      1 5O3         0.0689
      8 C8         58.3370   41.6940    5.8340 C.ar      1 5O3        -0.0414
      9 C9         58.9840   41.9900    4.6290 C.ar      1 5O3        -0.0738
     10 C10        58.2580   42.0380    3.4090 C.ar      1 5O3        -0.0502
     11 C11        56.8580   41.7540    3.4130 C.ar      1 5O3         0.1008
     12 C12        56.4800   39.2310    1.1410 C.ar      1 5O3         0.0661
     13 C13        56.9430   38.2780    0.1980 C.ar      1 5O3        -0.0415
     14 C14        56.8780   36.9030    0.5230 C.ar      1 5O3        -0.0635
     15 C15        56.3970   36.4540    1.7810 C.ar      1 5O3        -0.0075
     16 C16        56.3280   35.0290    2.1860 C.2       1 5O3         0.0515
     17 C17        55.9340   37.4020    2.7080 C.ar      1 5O3        -0.0635
     18 C18        55.9680   38.7500    2.3810 C.ar      1 5O3        -0.0415
     19 C19        56.2300   41.4240    4.6560 C.ar      1 5O3        -0.0145
     20 CL         49.5180   42.2840   11.3970 Cl        1 5O3        -0.0883
     21 C          53.4030   42.5640   10.4390 C.ar      1 5O3         0.0590
     22 N3         56.5340   40.6370    0.9240 N.am      1 5O3        -0.1851
     23 N          54.5660   43.2820   10.8600 N.pl3     1 5O3        -0.3422
     24 O          54.0570   41.5160    6.5520 O.2       1 5O3        -0.3815
     25 N1         54.7490   41.4690    8.7540 N.am      1 5O3        -0.2183
     26 S          55.9510   41.7870    1.9800 S.o2      1 5O3         0.0868
     27 O1         54.5690   41.4880    2.2920 O.2       1 5O3        -0.1447
     28 O2         56.2230   43.0690    1.4030 O.2       1 5O3        -0.1447
     29 N2         56.3250   41.3340    7.0900 N.am      1 5O3        -0.2147
     30 O4         56.6300   34.1230    1.2260 O.co2     1 5O3        -0.5654
     31 O3         56.0980   34.5910    3.3130 O.co2     1 5O3        -0.5654
     32 H1         52.0868   43.5079   11.8723 H         1 5O3         0.0471
     33 H2         50.2202   40.7213    9.2077 H         1 5O3         0.0473
     34 H3         52.4092   40.2775    8.0834 H         1 5O3         0.0459
     35 H4         58.9032   41.6779    6.7582 H         1 5O3         0.0501
     36 H5         60.0504   42.1847    4.6265 H         1 5O3         0.0577
     37 H6         58.7622   42.2881    2.4826 H         1 5O3         0.0506
     38 H7         57.3409   38.5988   -0.7579 H         1 5O3         0.0491
     39 H8         57.2043   36.1723   -0.2082 H         1 5O3         0.0606
     40 H9         55.5530   37.0831    3.6714 H         1 5O3         0.0606
     41 H10        55.5890   39.4679    3.0993 H         1 5O3         0.0491
     42 H11        55.1750   41.1753    4.6706 H         1 5O3         0.0520
     43 H12        56.9529   40.9585    0.0748 H         1 5O3         0.2180
     44 H13        54.5045   43.9482   11.6431 H         1 5O3         0.1677
     45 H14        55.4651   43.1329   10.3801 H         1 5O3         0.1677
     46 H15        55.5387   41.3349    9.3526 H         1 5O3         0.2226
     47 H16        56.9253   41.1498    7.8682 H         1 5O3         0.2261
@<TRIPOS>BOND
     1    1    2 ar 
     2   21    1 ar 
     3    3    2 ar 
     4    2   20 1  
     5    4    3 ar 
     6    5    4 ar 
     7    5   21 ar 
     8   25    5 1  
     9    6   24 2  
    10    6   25 am 
    11   29    6 am 
    12    7    8 ar 
    13   19    7 ar 
    14    7   29 1  
    15    9    8 ar 
    16   10    9 ar 
    17   11   10 ar 
    18   11   19 ar 
    19   26   11 1  
    20   12   13 ar 
    21   12   18 ar 
    22   22   12 1  
    23   13   14 ar 
    24   14   15 ar 
    25   15   16 1  
    26   17   15 ar 
    27   16   30 ar 
    28   16   31 ar 
    29   18   17 ar 
    30   21   23 1  
    31   22   26 am 
    32   26   27 2  
    33   26   28 2  
    34    1   32 1  
    35    3   33 1  
    36    4   34 1  
    37    8   35 1  
    38    9   36 1  
    39   10   37 1  
    40   13   38 1  
    41   14   39 1  
    42   17   40 1  
    43   18   41 1  
    44   19   42 1  
    45   22   43 1  
    46   23   44 1  
    47   23   45 1  
    48   25   46 1  
    49   29   47 1  
@<TRIPOS>SUBSTRUCTURE
     1 5O3         1

