### 
### Created by X-TOOL on Mon Sep 10 21:13:27 2018
### 

@<TRIPOS>MOLECULE
5ehn_ligand
   93   100     1     0     0
SMALL
GAST_HUCK


@<TRIPOS>ATOM
      1 N2         36.9630   21.7440    4.2710 N.pl3     1 5NZ        -0.3397
      2 C8         37.5080   22.7730    4.9570 C.ar      1 5NZ         0.0225
      3 C7         38.8600   23.0980    4.7970 C.ar      1 5NZ        -0.0582
      4 C6         39.4630   24.0580    5.6220 C.ar      1 5NZ        -0.0789
      5 C5         38.7140   24.7060    6.6140 C.ar      1 5NZ        -0.0206
      6 C19        36.7220   23.4240    5.9050 C.ar      1 5NZ        -0.0279
      7 C18        37.2570   24.3680    6.7980 C.ar      1 5NZ         0.0395
      8 N3         36.4870   24.9350    7.7810 N.pl3     1 5NZ        -0.2861
      9 C11        37.0240   25.9290    8.6510 C.3       1 5NZ         0.1019
     10 C12        36.1730   26.4980    9.7300 C.ar      1 5NZ        -0.0075
     11 C13        36.1210   25.8300   10.9630 C.ar      1 5NZ        -0.0562
     12 C14        35.2990   26.3230   11.9800 C.ar      1 5NZ        -0.0681
     13 C15        34.5580   27.4960   11.7640 C.ar      1 5NZ        -0.0685
     14 C16        34.6060   28.1640   10.5350 C.ar      1 5NZ        -0.0681
     15 C17        35.4270   27.6660    9.5140 C.ar      1 5NZ        -0.0562
     16 C10        38.4610   26.3420    8.5480 C.ar      1 5NZ        -0.0145
     17 C9         39.0320   27.2750    9.4160 C.ar      1 5NZ        -0.0409
     18 C4         39.3270   25.7400    7.4910 C.ar      1 5NZ        -0.0361
     19 C3         40.6590   26.1570    7.3590 C.ar      1 5NZ        -0.0760
     20 C2         41.1950   27.0440    8.2950 C.ar      1 5NZ        -0.0530
     21 C1         40.3830   27.6170    9.2890 C.ar      1 5NZ         0.0271
     22 N1         40.8990   28.5600   10.1180 N.pl3     1 5NZ        -0.3390
     23 C20        35.0370   24.6200    7.8670 C.3       1 5NZ         0.0315
     24 C21        34.7400   23.3540    8.6650 C.3       1 5NZ        -0.0326
     25 C22        33.2590   23.0170    8.6630 C.3       1 5NZ        -0.0492
     26 C24        32.9830   22.3450    9.9930 C.3       1 5NZ        -0.0395
     27 C25        31.5140   22.0240   10.1650 C.3       1 5NZ         0.0117
     28 C26        31.3300   21.0560   11.3150 C.2       1 5NZ         0.0901
     29 N4         31.3630   21.3530   12.6180 N.pl3     1 5NZ        -0.1694
     30 N5         31.0870   20.2270   13.3780 N.2       1 5NZ        -0.1095
     31 N6         30.9180   19.1810   12.4640 N.2       1 5NZ        -0.2428
     32 C27        31.0440   19.6950   11.2160 C.2       1 5NZ         0.0180
     33 C28        31.4890   22.6210   13.3260 C.3       1 5NZ         0.0969
     34 C29        30.8630   22.5150   14.6770 C.3       1 5NZ         0.0571
     35 N7         29.5220   23.0210   14.8020 N.pl3     1 5NZ        -0.3114
     36 C30        28.4070   22.3000   14.5520 C.ar      1 5NZ         0.0690
     37 C31        27.3680   23.0210   13.7720 C.ar      1 5NZ         0.0197
     38 C32        27.5690   24.3490   13.3630 C.ar      1 5NZ        -0.0528
     39 C33        26.0870   22.3310   13.4780 C.ar      1 5NZ         0.0179
     40 C34        25.1390   23.0040   12.7120 C.ar      1 5NZ        -0.0521
     41 C35        25.3970   24.3100   12.3080 C.ar      1 5NZ        -0.0640
     42 C36        26.5380   25.0000   12.7200 C.ar      1 5NZ        -0.0632
     43 N8         25.8730   21.0570   13.8770 N.ar      1 5NZ        -0.3281
     44 C37        26.7430   20.3330   14.6250 C.ar      1 5NZ         0.0105
     45 C38        26.3220   18.9060   14.9740 C.3       1 5NZ        -0.0081
     46 C39        28.0510   20.9400   15.0750 C.ar      1 5NZ         0.0054
     47 C40        28.9720   20.1250   15.9630 C.3       1 5NZ        -0.0210
     48 C41        28.1660   19.0380   16.6890 C.3       1 5NZ        -0.0439
     49 C42        27.4110   18.1410   15.7070 C.3       1 5NZ        -0.0400
     50 H1         37.5204   21.2439    3.5638 H         1 5NZ         0.1719
     51 H2         35.9903   21.4599    4.4554 H         1 5NZ         0.1719
     52 H3         39.4451   22.6039    4.0297 H         1 5NZ         0.0412
     53 H4         40.5117   24.2999    5.4923 H         1 5NZ         0.0537
     54 H5         35.6636   23.1951    5.9555 H         1 5NZ         0.0403
     55 H6         36.7231   26.7281    7.9575 H         1 5NZ         0.0872
     56 H7         36.7145   24.9376   11.1255 H         1 5NZ         0.0561
     57 H8         35.2339   25.8034   12.9291 H         1 5NZ         0.0600
     58 H9         33.9390   27.8904   12.5617 H         1 5NZ         0.0561
     59 H10        34.0140   29.0578   10.3744 H         1 5NZ         0.0600
     60 H11        35.4852   28.1811    8.5620 H         1 5NZ         0.0561
     61 H12        38.4277   27.7351   10.1895 H         1 5NZ         0.0452
     62 H13        41.2671   25.7943    6.5382 H         1 5NZ         0.0544
     63 H14        42.2491   27.2934    8.2545 H         1 5NZ         0.0460
     64 H15        40.3081   28.9829   10.8480 H         1 5NZ         0.1716
     65 H16        41.8814   28.8526   10.0170 H         1 5NZ         0.1716
     66 H17        34.6472   24.4889    6.8468 H         1 5NZ         0.0519
     67 H18        34.5243   25.4651    8.3497 H         1 5NZ         0.0519
     68 H19        35.0692   23.5031    9.7039 H         1 5NZ         0.0285
     69 H20        35.2960   22.5152    8.2210 H         1 5NZ         0.0285
     70 H21        33.0233   22.3342    7.8334 H         1 5NZ         0.0268
     71 H22        32.6584   23.9334    8.5657 H         1 5NZ         0.0268
     72 H23        33.2980   23.0177   10.8043 H         1 5NZ         0.0290
     73 H24        33.5605   21.4104   10.0466 H         1 5NZ         0.0290
     74 H25        31.1291   21.5693    9.2403 H         1 5NZ         0.0472
     75 H26        30.9603   22.9507   10.3760 H         1 5NZ         0.0472
     76 H27        30.9389   19.1360   10.2874 H         1 5NZ         0.0436
     77 H28        30.9836   23.4111   12.7512 H         1 5NZ         0.0665
     78 H29        32.5542   22.8723   13.4367 H         1 5NZ         0.0665
     79 H30        31.4972   23.0696   15.3842 H         1 5NZ         0.0550
     80 H31        30.8465   21.4510   14.9557 H         1 5NZ         0.0550
     81 H32        29.4040   23.9991   15.1024 H         1 5NZ         0.1816
     82 H33        28.5121   24.8502   13.5484 H         1 5NZ         0.0636
     83 H34        24.2116   22.5165   12.4339 H         1 5NZ         0.0590
     84 H35        24.6902   24.8068   11.6532 H         1 5NZ         0.0621
     85 H36        26.6147   26.0647   12.5314 H         1 5NZ         0.0585
     86 H37        26.0810   18.3716   14.0432 H         1 5NZ         0.0453
     87 H38        25.4286   18.9484   15.6144 H         1 5NZ         0.0453
     88 H39        29.4439   20.7863   16.7046 H         1 5NZ         0.0386
     89 H40        29.7500   19.6519   15.3459 H         1 5NZ         0.0386
     90 H41        27.4407   19.5209   17.3603 H         1 5NZ         0.0284
     91 H42        28.8560   18.4177   17.2799 H         1 5NZ         0.0284
     92 H43        28.1228   17.7397   14.9706 H         1 5NZ         0.0292
     93 H44        26.9514   17.3106   16.2631 H         1 5NZ         0.0292
@<TRIPOS>BOND
     1    1    2 1  
     2    2    3 ar 
     3    2    6 ar 
     4    3    4 ar 
     5    4    5 ar 
     6    5    7 ar 
     7    5   18 1  
     8    6    7 ar 
     9    7    8 1  
    10    8    9 1  
    11    8   23 1  
    12    9   10 1  
    13    9   16 1  
    14   10   11 ar 
    15   10   15 ar 
    16   11   12 ar 
    17   12   13 ar 
    18   13   14 ar 
    19   14   15 ar 
    20   16   17 ar 
    21   16   18 ar 
    22   17   21 ar 
    23   18   19 ar 
    24   19   20 ar 
    25   20   21 ar 
    26   21   22 1  
    27   23   24 1  
    28   24   25 1  
    29   25   26 1  
    30   26   27 1  
    31   27   28 1  
    32   28   29 1  
    33   28   32 2  
    34   29   30 1  
    35   29   33 1  
    36   30   31 2  
    37   31   32 1  
    38   33   34 1  
    39   34   35 1  
    40   35   36 1  
    41   36   37 ar 
    42   36   46 ar 
    43   37   38 ar 
    44   37   39 ar 
    45   38   42 ar 
    46   39   40 ar 
    47   39   43 ar 
    48   40   41 ar 
    49   41   42 ar 
    50   43   44 ar 
    51   44   45 1  
    52   44   46 ar 
    53   45   49 1  
    54   46   47 1  
    55   47   48 1  
    56   48   49 1  
    57    1   50 1  
    58    1   51 1  
    59    3   52 1  
    60    4   53 1  
    61    6   54 1  
    62    9   55 1  
    63   11   56 1  
    64   12   57 1  
    65   13   58 1  
    66   14   59 1  
    67   15   60 1  
    68   17   61 1  
    69   19   62 1  
    70   20   63 1  
    71   22   64 1  
    72   22   65 1  
    73   23   66 1  
    74   23   67 1  
    75   24   68 1  
    76   24   69 1  
    77   25   70 1  
    78   25   71 1  
    79   26   72 1  
    80   26   73 1  
    81   27   74 1  
    82   27   75 1  
    83   32   76 1  
    84   33   77 1  
    85   33   78 1  
    86   34   79 1  
    87   34   80 1  
    88   35   81 1  
    89   38   82 1  
    90   40   83 1  
    91   41   84 1  
    92   42   85 1  
    93   45   86 1  
    94   45   87 1  
    95   47   88 1  
    96   47   89 1  
    97   48   90 1  
    98   48   91 1  
    99   49   92 1  
   100   49   93 1  
@<TRIPOS>SUBSTRUCTURE
     1 5NZ         1

