### 
### Created by X-TOOL on Mon Sep 10 21:13:27 2018
### 

@<TRIPOS>MOLECULE
5ehp_ligand
   43    45     1     0     0
SMALL
GAST_HUCK


@<TRIPOS>ATOM
      1 C2         24.7790   42.3290    1.8970 C.3       1 5OA         0.0765
      2 C3         26.1040   43.1520    1.8850 C.3       1 5OA        -0.0040
      3 C11        18.6640   39.7880    4.5160 C.ar      1 5OA        -0.0573
      4 C12        19.7510   40.1620    5.3310 C.ar      1 5OA        -0.0050
      5 C13        21.1060   40.3950    4.7580 C.ar      1 5OA         0.0394
      6 C14        21.2180   41.3940    3.7860 C.ar      1 5OA         0.0088
      7 C16        23.5360   40.9410    3.5230 C.ar      1 5OA         0.1777
      8 C18        22.2760   39.6590    5.0770 C.ar      1 5OA         0.1219
      9 C22        26.3080   43.8520    0.5100 C.3       1 5OA        -0.0197
     10 C23        28.4420   40.6450    3.6830 C.3       1 5OA        -0.0197
     11 N1         24.7310   41.2530    2.9250 N.pl3     1 5OA        -0.2671
     12 N4         27.2800   42.3040    2.2170 N.4       1 5OA         0.2339
     13 C5         27.1550   41.4680    3.4420 C.3       1 5OA        -0.0040
     14 C6         25.9620   40.4950    3.2570 C.3       1 5OA         0.0765
     15 C7         19.5250   40.4790    6.6680 C.ar      1 5OA         0.0581
     16 C8         18.2490   40.3340    7.2240 C.ar      1 5OA         0.0521
     17 C9         17.1660   39.9360    6.4310 C.ar      1 5OA        -0.0499
     18 C10        17.3810   39.6410    5.0700 C.ar      1 5OA        -0.0634
     19 N15        22.4030   41.6200    3.2000 N.ar      1 5OA        -0.2711
     20 N17        23.4410   39.9650    4.4620 N.ar      1 5OA        -0.2398
     21 N19        22.3150   38.6560    5.9790 N.pl3     1 5OA        -0.3153
     22 CL1        18.0240   40.7330    8.8990 Cl        1 5OA        -0.0707
     23 CL2        20.8330   41.0960    7.6450 Cl        1 5OA        -0.0714
     24 H1         24.6535   41.8650    0.9076 H         1 5OA         0.0584
     25 H2         23.9456   43.0218    2.0854 H         1 5OA         0.0584
     26 H3         26.0223   43.9325    2.6558 H         1 5OA         0.0868
     27 H4         18.8182   39.6130    3.4574 H         1 5OA         0.0601
     28 H5         20.3515   41.9828    3.5076 H         1 5OA         0.0855
     29 H6         27.2469   44.4249    0.5260 H         1 5OA         0.0285
     30 H7         25.4661   44.5331    0.3168 H         1 5OA         0.0285
     31 H8         26.3553   43.0928   -0.2846 H         1 5OA         0.0285
     32 H9         28.3237   40.0373    4.5922 H         1 5OA         0.0285
     33 H10        29.2959   41.3274    3.8066 H         1 5OA         0.0285
     34 H11        28.6218   39.9849    2.8217 H         1 5OA         0.0285
     35 H12        28.0747   42.9121    2.3382 H         1 5OA         0.2020
     36 H13        27.4452   41.6865    1.4376 H         1 5OA         0.2020
     37 H14        26.9724   42.1186    4.3099 H         1 5OA         0.0868
     38 H15        26.1883   39.7935    2.4405 H         1 5OA         0.0584
     39 H16        25.8029   39.9335    4.1894 H         1 5OA         0.0584
     40 H17        16.1734   39.8557    6.8591 H         1 5OA         0.0602
     41 H18        16.5581   39.3013    4.4515 H         1 5OA         0.0612
     42 H19        23.2003   38.1626    6.1625 H         1 5OA         0.1823
     43 H20        21.4595   38.3839    6.4839 H         1 5OA         0.1823
@<TRIPOS>BOND
     1    2    1 1  
     2    1   11 1  
     3    2    9 1  
     4   12    2 1  
     5    4    3 ar 
     6    3   18 ar 
     7    5    4 1  
     8    4   15 ar 
     9    6    5 ar 
    10    8    5 ar 
    11   19    6 ar 
    12   11    7 1  
    13    7   19 ar 
    14    7   20 ar 
    15   20    8 ar 
    16    8   21 1  
    17   13   10 1  
    18   11   14 1  
    19   12   13 1  
    20   13   14 1  
    21   15   16 ar 
    22   15   23 1  
    23   16   17 ar 
    24   16   22 1  
    25   17   18 ar 
    26    1   24 1  
    27    1   25 1  
    28    2   26 1  
    29    3   27 1  
    30    6   28 1  
    31    9   29 1  
    32    9   30 1  
    33    9   31 1  
    34   10   32 1  
    35   10   33 1  
    36   10   34 1  
    37   12   35 1  
    38   12   36 1  
    39   13   37 1  
    40   14   38 1  
    41   14   39 1  
    42   17   40 1  
    43   18   41 1  
    44   21   42 1  
    45   21   43 1  
@<TRIPOS>SUBSTRUCTURE
     1 5OA         1

