### 
### Created by X-TOOL on Mon Sep 10 21:13:28 2018
### 

@<TRIPOS>MOLECULE
5ehq_ligand
   89    96     1     0     0
SMALL
GAST_HUCK


@<TRIPOS>ATOM
      1 N2         37.5590   24.2150    6.4140 N.pl3     1 5O2        -0.2861
      2 C8         36.7810   25.4670    8.5450 C.ar      1 5O2        -0.0075
      3 C7         37.7740   25.2050    7.4510 C.3       1 5O2         0.1019
      4 C6         38.5630   24.0520    5.3170 C.ar      1 5O2         0.0395
      5 C5         38.3710   23.1030    4.1980 C.ar      1 5O2        -0.0279
      6 C19        40.5380   27.5710    8.5930 C.ar      1 5O2         0.0271
      7 C18        41.5130   27.3740    7.6080 C.ar      1 5O2        -0.0530
      8 N3         40.7670   28.4500    9.5900 N.pl3     1 5O2        -0.3390
      9 C11        34.9770   25.9820   10.6450 C.ar      1 5O2        -0.0685
     10 C12        35.2320   26.9660    9.6800 C.ar      1 5O2        -0.0681
     11 C13        36.1190   26.7040    8.6240 C.ar      1 5O2        -0.0562
     12 C14        39.0670   25.9750    7.5210 C.ar      1 5O2        -0.0145
     13 C15        39.3440   26.8590    8.5740 C.ar      1 5O2        -0.0409
     14 C16        40.0970   25.7880    6.4430 C.ar      1 5O2        -0.0361
     15 C17        41.2980   26.5070    6.5300 C.ar      1 5O2        -0.0760
     16 C10        35.6500   24.7540   10.5710 C.ar      1 5O2        -0.0681
     17 C9         36.5790   24.5080    9.5460 C.ar      1 5O2        -0.0562
     18 C4         39.8500   24.7820    5.3560 C.ar      1 5O2        -0.0206
     19 C3         40.8110   24.5520    4.3520 C.ar      1 5O2        -0.0789
     20 C2         40.5750   23.6420    3.3030 C.ar      1 5O2        -0.0582
     21 C1         39.3580   22.9440    3.2090 C.ar      1 5O2         0.0225
     22 N1         39.1560   22.0770    2.1810 N.pl3     1 5O2        -0.3397
     23 C20        36.1890   23.6740    6.2160 C.3       1 5O2         0.0315
     24 C21        35.9180   22.1820    6.4320 C.3       1 5O2        -0.0327
     25 C22        34.9640   21.8410    7.5900 C.3       1 5O2        -0.0499
     26 C24        33.8320   22.8200    7.9170 C.3       1 5O2        -0.0462
     27 C25        32.5500   22.0240    8.1250 C.3       1 5O2        -0.0185
     28 C26        31.9750   22.1360    9.5250 C.2       1 5O2         0.0370
     29 N4         31.5340   21.0830   10.2580 N.2       1 5O2        -0.2265
     30 N5         31.0350   21.5560   11.4750 N.2       1 5O2        -0.1019
     31 N6         31.1830   22.9490   11.3890 N.pl3     1 5O2        -0.1792
     32 C27        31.7330   23.3060   10.2350 C.2       1 5O2         0.0694
     33 C28        30.7220   23.7390   12.5370 C.3       1 5O2         0.0969
     34 C29        30.5710   22.8440   13.7600 C.3       1 5O2         0.0646
     35 N7         29.3270   23.0400   14.4690 N.pl3     1 5O2        -0.2935
     36 C30        28.1600   22.4660   14.0930 C.ar      1 5O2         0.0977
     37 C31        27.1120   23.2810   13.3970 C.ar      1 5O2         0.0377
     38 C32        27.2950   24.6290   13.0790 C.ar      1 5O2        -0.0468
     39 C33        25.7880   22.6580   13.1510 C.ar      1 5O2         0.0172
     40 C34        24.7930   23.4090   12.5260 C.ar      1 5O2        -0.0497
     41 C35        25.0360   24.7460   12.1920 C.ar      1 5O2        -0.0615
     42 C36        26.2590   25.3500   12.4820 C.ar      1 5O2        -0.0598
     43 N8         25.5630   21.3590   13.4460 N.ar      1 5O2        -0.3395
     44 C37        26.4570   20.5460   14.0430 C.ar      1 5O2         0.0172
     45 C38        26.0560   19.0890   14.2600 C.ar      1 5O2        -0.0497
     46 C39        27.8070   21.0570   14.4430 C.ar      1 5O2         0.0377
     47 C40        28.7910   20.1700   15.1910 C.ar      1 5O2        -0.0468
     48 C41        28.2470   18.8060   15.6450 C.ar      1 5O2        -0.0598
     49 C42        26.7570   18.5130   15.4760 C.ar      1 5O2        -0.0615
     50 H1         37.3129   25.9771    6.8176 H         1 5O2         0.0872
     51 H2         37.4573   22.5226    4.1398 H         1 5O2         0.0403
     52 H3         42.4554   27.9046    7.6816 H         1 5O2         0.0460
     53 H4         40.0541   28.6000   10.3181 H         1 5O2         0.1716
     54 H5         41.6548   28.9712    9.6232 H         1 5O2         0.1716
     55 H6         34.2658   26.1686   11.4415 H         1 5O2         0.0561
     56 H7         34.7434   27.9311    9.7493 H         1 5O2         0.0600
     57 H8         36.2940   27.4591    7.8662 H         1 5O2         0.0561
     58 H9         38.6252   26.9875    9.3752 H         1 5O2         0.0452
     59 H10        42.0574   26.3918    5.7650 H         1 5O2         0.0544
     60 H11        35.4517   23.9875   11.3114 H         1 5O2         0.0600
     61 H12        37.1376   23.5792    9.5298 H         1 5O2         0.0561
     62 H13        41.7530   25.0872    4.3875 H         1 5O2         0.0537
     63 H14        41.3436   23.4772    2.5566 H         1 5O2         0.0412
     64 H15        38.2662   21.5633    2.1078 H         1 5O2         0.1719
     65 H16        39.8928   21.9340    1.4756 H         1 5O2         0.1719
     66 H17        35.9041   23.9018    5.1782 H         1 5O2         0.0519
     67 H18        35.5288   24.2201    6.9058 H         1 5O2         0.0519
     68 H19        36.8808   21.6882    6.6300 H         1 5O2         0.0285
     69 H20        35.4831   21.7793    5.5054 H         1 5O2         0.0285
     70 H21        35.5777   21.7396    8.4972 H         1 5O2         0.0267
     71 H22        34.4979   20.8734    7.3525 H         1 5O2         0.0267
     72 H23        33.6995   23.5258    7.0838 H         1 5O2         0.0282
     73 H24        34.0760   23.3767    8.8338 H         1 5O2         0.0282
     74 H25        32.7640   20.9642    7.9226 H         1 5O2         0.0380
     75 H26        31.7966   22.3887    7.4113 H         1 5O2         0.0380
     76 H27        31.9525   24.3211    9.9073 H         1 5O2         0.0898
     77 H28        29.7503   24.1957   12.2980 H         1 5O2         0.0670
     78 H29        31.4556   24.5297   12.7529 H         1 5O2         0.0670
     79 H30        31.4015   23.0544   14.4499 H         1 5O2         0.0569
     80 H31        30.6232   21.7953   13.4323 H         1 5O2         0.0569
     81 H32        29.3284   23.6464   15.3016 H         1 5O2         0.1943
     82 H33        28.2398   25.1144   13.2954 H         1 5O2         0.0675
     83 H34        23.8336   22.9581   12.2994 H         1 5O2         0.0582
     84 H35        24.2607   25.3218   11.6997 H         1 5O2         0.0657
     85 H36        26.4078   26.3961   12.2400 H         1 5O2         0.0582
     86 H37        25.3644   18.5405   13.6308 H         1 5O2         0.0582
     87 H38        29.8103   20.4800   15.3909 H         1 5O2         0.0675
     88 H39        28.9091   18.0647   16.0776 H         1 5O2         0.0582
     89 H40        26.2185   17.9134   16.2010 H         1 5O2         0.0657
@<TRIPOS>BOND
     1    3    1 1  
     2    1    4 1  
     3    1   23 1  
     4    3    2 1  
     5    2   11 ar 
     6    2   17 ar 
     7   12    3 1  
     8    4    5 ar 
     9    4   18 ar 
    10    5   21 ar 
    11    6    7 ar 
    12    6    8 1  
    13   13    6 ar 
    14    7   15 ar 
    15   10    9 ar 
    16    9   16 ar 
    17   11   10 ar 
    18   12   13 ar 
    19   12   14 ar 
    20   14   15 ar 
    21   14   18 1  
    22   16   17 ar 
    23   18   19 ar 
    24   19   20 ar 
    25   20   21 ar 
    26   21   22 1  
    27   23   24 1  
    28   24   25 1  
    29   25   26 1  
    30   26   27 1  
    31   27   28 1  
    32   28   29 1  
    33   28   32 2  
    34   29   30 2  
    35   30   31 1  
    36   31   32 1  
    37   31   33 1  
    38   33   34 1  
    39   34   35 1  
    40   35   36 1  
    41   36   37 ar 
    42   36   46 ar 
    43   37   38 ar 
    44   37   39 ar 
    45   38   42 ar 
    46   39   40 ar 
    47   39   43 ar 
    48   40   41 ar 
    49   41   42 ar 
    50   43   44 ar 
    51   44   45 ar 
    52   44   46 ar 
    53   45   49 ar 
    54   46   47 ar 
    55   47   48 ar 
    56   48   49 ar 
    57    3   50 1  
    58    5   51 1  
    59    7   52 1  
    60    8   53 1  
    61    8   54 1  
    62    9   55 1  
    63   10   56 1  
    64   11   57 1  
    65   13   58 1  
    66   15   59 1  
    67   16   60 1  
    68   17   61 1  
    69   19   62 1  
    70   20   63 1  
    71   22   64 1  
    72   22   65 1  
    73   23   66 1  
    74   23   67 1  
    75   24   68 1  
    76   24   69 1  
    77   25   70 1  
    78   25   71 1  
    79   26   72 1  
    80   26   73 1  
    81   27   74 1  
    82   27   75 1  
    83   32   76 1  
    84   33   77 1  
    85   33   78 1  
    86   34   79 1  
    87   34   80 1  
    88   35   81 1  
    89   38   82 1  
    90   40   83 1  
    91   41   84 1  
    92   42   85 1  
    93   45   86 1  
    94   47   87 1  
    95   48   88 1  
    96   49   89 1  
@<TRIPOS>SUBSTRUCTURE
     1 5O2         1

