### 
### Created by X-TOOL on Mon Sep 10 21:13:28 2018
### 

@<TRIPOS>MOLECULE
5ehr_ligand
   43    45     1     0     0
SMALL
GAST_HUCK


@<TRIPOS>ATOM
      1 C1         21.0510   40.7360    4.9330 C.ar      1 5OD         0.0872
      2 C3         22.3040   41.9870    3.3890 C.ar      1 5OD         0.0435
      3 C11        26.8860   41.3930    3.8170 C.3       1 5OD         0.0133
      4 C12        27.1970   42.7380    3.0440 C.3       1 5OD        -0.0126
      5 C13        25.8660   43.5020    2.7240 C.3       1 5OD         0.0133
      6 C14        24.7590   42.6120    2.1010 C.3       1 5OD         0.0367
      7 C15        19.4320   40.7620    6.8640 C.ar      1 5OD         0.0604
      8 C16        18.1370   40.5960    7.3700 C.ar      1 5OD         0.0533
      9 C17        17.0850   40.1870    6.5240 C.ar      1 5OD        -0.0487
     10 C18        17.3520   39.8990    5.1690 C.ar      1 5OD        -0.0622
     11 C19        18.6480   40.1100    4.6580 C.ar      1 5OD        -0.0551
     12 C23        27.9810   42.4520    1.7320 C.3       1 5OD        -0.0187
     13 N2         21.1390   41.7310    4.0090 N.ar      1 5OD        -0.2933
     14 C4         23.4310   41.1720    3.6090 C.ar      1 5OD         0.1281
     15 N5         23.3420   40.1800    4.5450 N.ar      1 5OD        -0.2474
     16 C6         22.1830   39.9260    5.2010 C.ar      1 5OD         0.1329
     17 N7         22.1780   38.8970    6.0800 N.pl3     1 5OD        -0.3164
     18 C8         19.6960   40.5400    5.5090 C.ar      1 5OD         0.0071
     19 N9         24.6090   41.4200    2.9630 N.pl3     1 5OD        -0.2900
     20 C10        25.7670   40.5530    3.1260 C.3       1 5OD         0.0367
     21 CL1        20.6820   41.3450    7.9130 Cl        1 5OD        -0.0702
     22 CL2        17.8420   40.9550    9.0520 Cl        1 5OD        -0.0704
     23 N22        28.0860   43.5790    3.8750 N.4       1 5OD         0.2228
     24 H1         22.3766   42.8305    2.7120 H         1 5OD         0.0714
     25 H2         26.5619   41.6399    4.8387 H         1 5OD         0.0343
     26 H3         27.8048   40.7897    3.8595 H         1 5OD         0.0343
     27 H4         26.0948   44.3137    2.0177 H         1 5OD         0.0343
     28 H5         25.4791   43.9293    3.6609 H         1 5OD         0.0343
     29 H6         25.0501   42.3065    1.0852 H         1 5OD         0.0526
     30 H7         23.8102   43.1670    2.0593 H         1 5OD         0.0526
     31 H8         16.0773   40.0945    6.9127 H         1 5OD         0.0612
     32 H9         16.5665   39.5185    4.5262 H         1 5OD         0.0615
     33 H10        18.8448   39.9420    3.6053 H         1 5OD         0.0611
     34 H11        28.9116   41.9162    1.9704 H         1 5OD         0.0287
     35 H12        28.2225   43.4028    1.2345 H         1 5OD         0.0287
     36 H13        27.3636   41.8346    1.0630 H         1 5OD         0.0287
     37 H14        23.0342   38.3447    6.2313 H         1 5OD         0.1806
     38 H15        21.3180   38.6661    6.5977 H         1 5OD         0.1806
     39 H16        25.5040   39.6887    3.7536 H         1 5OD         0.0526
     40 H17        26.1140   40.2007    2.1434 H         1 5OD         0.0526
     41 H18        27.6257   43.7970    4.7449 H         1 5OD         0.1999
     42 H19        28.2968   44.4332    3.3832 H         1 5OD         0.1999
     43 H20        28.9413   43.0799    4.0633 H         1 5OD         0.1999
@<TRIPOS>BOND
     1   13    1 ar 
     2    1   16 ar 
     3    1   18 1  
     4    2   13 ar 
     5   14    2 ar 
     6    4    3 1  
     7    3   20 1  
     8    5    4 1  
     9    4   12 1  
    10    4   23 1  
    11    6    5 1  
    12   19    6 1  
    13    7    8 ar 
    14   18    7 ar 
    15    7   21 1  
    16    8    9 ar 
    17    8   22 1  
    18   10    9 ar 
    19   11   10 ar 
    20   18   11 ar 
    21   14   15 ar 
    22   14   19 1  
    23   15   16 ar 
    24   16   17 1  
    25   19   20 1  
    26    2   24 1  
    27    3   25 1  
    28    3   26 1  
    29    5   27 1  
    30    5   28 1  
    31    6   29 1  
    32    6   30 1  
    33    9   31 1  
    34   10   32 1  
    35   11   33 1  
    36   12   34 1  
    37   12   35 1  
    38   12   36 1  
    39   17   37 1  
    40   17   38 1  
    41   20   39 1  
    42   20   40 1  
    43   23   41 1  
    44   23   42 1  
    45   23   43 1  
@<TRIPOS>SUBSTRUCTURE
     1 5OD         1

