### 
### Created by X-TOOL on Mon Sep 10 21:13:26 2018
### 

@<TRIPOS>MOLECULE
5ehv_ligand
   37    38     1     0     0
SMALL
GAST_HUCK


@<TRIPOS>ATOM
      1 O01        25.3860   10.1730   10.3710 O.co2     1 5ON        -0.5633
      2 C02        24.2240    9.6840   10.3380 C.2       1 5ON         0.0525
      3 O03        23.7880    9.1520    9.2820 O.co2     1 5ON        -0.5633
      4 C04        23.3400    9.7570   11.5650 C.2       1 5ON        -0.0277
      5 C05        22.2460    8.9790   11.6350 C.2       1 5ON        -0.0480
      6 C06        21.3690    9.0690   12.8570 C.ar      1 5ON        -0.0280
      7 C07        20.3800    8.1220   13.0630 C.ar      1 5ON        -0.0238
      8 C08        19.5870    8.2180   14.1950 C.ar      1 5ON         0.0959
      9 O09        18.5930    7.2810   14.4220 O.3       1 5ON        -0.3054
     10 C10        18.5000    6.1750   13.5260 C.3       1 5ON         0.1028
     11 C11        17.4350    5.2740   14.0930 C.ar      1 5ON        -0.0194
     12 C12        16.0930    5.6270   14.0030 C.ar      1 5ON        -0.0645
     13 C13        15.1360    4.8190   14.5550 C.ar      1 5ON        -0.0749
     14 C14        15.4890    3.6380   15.1680 C.ar      1 5ON        -0.0656
     15 C15        16.8140    3.2520   15.2590 C.ar      1 5ON        -0.0369
     16 C16        17.2200    1.9440   15.9390 C.3       1 5ON         0.0319
     17 C17        16.4050    0.7620   15.4200 C.2       1 5ON         0.0462
     18 O18        15.3450    0.4040   16.0480 O.co2     1 5ON        -0.5664
     19 O19        16.8000    0.0960   14.4040 O.co2     1 5ON        -0.5664
     20 C20        17.7860    4.0740   14.7060 C.ar      1 5ON        -0.0550
     21 C21        19.7530    9.2480   15.1070 C.ar      1 5ON        -0.0309
     22 C22        20.7340   10.1940   14.8830 C.ar      1 5ON        -0.0676
     23 C23        21.5450   10.1000   13.7590 C.ar      1 5ON        -0.0628
     24 H1         23.5878   10.4327   12.3823 H         1 5ON         0.0638
     25 H2         21.9981    8.2963   10.8236 H         1 5ON         0.0695
     26 H3         20.2288    7.3191   12.3506 H         1 5ON         0.0557
     27 H4         19.4618    5.6439   13.4723 H         1 5ON         0.0777
     28 H5         18.2147    6.5194   12.5210 H         1 5ON         0.0777
     29 H6         15.8051    6.5410   13.4963 H         1 5ON         0.0502
     30 H7         14.0931    5.1110   14.5092 H         1 5ON         0.0582
     31 H8         14.7173    3.0014   15.5854 H         1 5ON         0.0502
     32 H9         17.0582    2.0403   17.0228 H         1 5ON         0.0587
     33 H10        18.2858    1.7558   15.7427 H         1 5ON         0.0587
     34 H11        18.8281    3.7791   14.7517 H         1 5ON         0.0498
     35 H12        19.1208    9.3105   15.9853 H         1 5ON         0.0560
     36 H13        20.8711   11.0095   15.5839 H         1 5ON         0.0595
     37 H14        22.3195   10.8392   13.5891 H         1 5ON         0.0549
@<TRIPOS>BOND
     1    1    2 ar 
     2    2    3 ar 
     3    2    4 1  
     4    4    5 2  
     5    5    6 1  
     6    6    7 ar 
     7    6   23 ar 
     8    7    8 ar 
     9    8    9 1  
    10    8   21 ar 
    11    9   10 1  
    12   10   11 1  
    13   11   12 ar 
    14   11   20 ar 
    15   12   13 ar 
    16   13   14 ar 
    17   14   15 ar 
    18   15   16 1  
    19   15   20 ar 
    20   16   17 1  
    21   17   18 ar 
    22   17   19 ar 
    23   21   22 ar 
    24   22   23 ar 
    25    4   24 1  
    26    5   25 1  
    27    7   26 1  
    28   10   27 1  
    29   10   28 1  
    30   12   29 1  
    31   13   30 1  
    32   14   31 1  
    33   16   32 1  
    34   16   33 1  
    35   20   34 1  
    36   21   35 1  
    37   22   36 1  
    38   23   37 1  
@<TRIPOS>SUBSTRUCTURE
     1 5ON         1

