### 
### Created by X-TOOL on Mon Sep 10 21:13:26 2018
### 

@<TRIPOS>MOLECULE
5ehw_ligand
   18    18     1     0     0
SMALL
GAST_HUCK


@<TRIPOS>ATOM
      1 O01        14.8410    1.2690   15.9360 O.co2     1 5OO        -0.5634
      2 C02        15.9900    0.9440   15.5470 C.2       1 5OO         0.0523
      3 C03        16.9840    2.0510   15.2790 C.2       1 5OO        -0.0278
      4 C04        16.4760    3.2900   15.1200 C.2       1 5OO        -0.0452
      5 C05        17.3510    4.4910   14.8640 C.ar      1 5OO        -0.0053
      6 C06        16.8090    5.7550   15.0010 C.ar      1 5OO         0.0508
      7 CL1        15.1350    5.9370   15.4450 Cl        1 5OO        -0.0674
      8 C08        17.5870    6.8750   14.7870 C.ar      1 5OO        -0.0315
      9 C09        18.9140    6.7220   14.4320 C.ar      1 5OO         0.0428
     10 CL2        19.8880    8.1380   14.1640 Cl        1 5OO        -0.0686
     11 C11        19.4710    5.4610   14.3020 C.ar      1 5OO        -0.0454
     12 C12        18.6820    4.3420   14.5210 C.ar      1 5OO        -0.0513
     13 O13        16.3350   -0.2530   15.4190 O.co2     1 5OO        -0.5634
     14 H1         18.0540    1.8580   15.2176 H         1 5OO         0.0636
     15 H2         15.3973    3.4278   15.1785 H         1 5OO         0.0696
     16 H3         17.1610    7.8658   14.8964 H         1 5OO         0.0634
     17 H4         20.5148    5.3496   14.0314 H         1 5OO         0.0629
     18 H5         19.1088    3.3503   14.4233 H         1 5OO         0.0639
@<TRIPOS>BOND
     1    1    2 ar 
     2    2    3 1  
     3    2   13 ar 
     4    3    4 2  
     5    4    5 1  
     6    5    6 ar 
     7    5   12 ar 
     8    6    7 1  
     9    6    8 ar 
    10    8    9 ar 
    11    9   10 1  
    12    9   11 ar 
    13   11   12 ar 
    14    3   14 1  
    15    4   15 1  
    16    8   16 1  
    17   11   17 1  
    18   12   18 1  
@<TRIPOS>SUBSTRUCTURE
     1 5OO         1

