### 
### Created by X-TOOL on Mon Sep 10 21:13:28 2018
### 

@<TRIPOS>MOLECULE
5ehy_ligand
   31    34     1     0     0
SMALL
GAST_HUCK


@<TRIPOS>ATOM
      1 C1         37.9080  125.7710  133.8000 C.ar      1 5O4        -0.0328
      2 C2         36.9670  124.9270  133.2290 C.ar      1 5O4         0.0177
      3 C3         36.8050  124.8640  131.8320 C.ar      1 5O4         0.0605
      4 C4         37.6590  125.6810  131.0620 C.ar      1 5O4         0.0456
      5 C5         37.6970  125.6430  129.6140 C.2       1 5O4         0.0008
      6 C6         37.7030  126.7530  128.7290 C.2       1 5O4        -0.0542
      7 C7         37.7980  126.2700  127.4890 C.2       1 5O4         0.0822
      8 C8         37.7830  124.5530  128.8250 C.2       1 5O4         0.0980
      9 N1         35.3280  123.4470  132.8100 N.pl3     1 5O4        -0.2329
     10 N2         36.0720  124.0630  133.7670 N.2       1 5O4        -0.2940
     11 N          38.5610  126.5100  131.6120 N.ar      1 5O4        -0.3012
     12 C          38.6690  126.5410  132.9470 C.ar      1 5O4         0.0039
     13 O          37.8490  124.9100  127.5110 O.3       1 5O4        -0.2614
     14 C15        34.8590  124.3830  129.3470 C.ar      1 5O4        -0.0499
     15 C14        34.1720  123.9920  128.2120 C.ar      1 5O4        -0.0614
     16 C13        33.6850  122.7090  128.1020 C.ar      1 5O4        -0.0622
     17 C12        33.8880  121.8100  129.1260 C.ar      1 5O4        -0.0614
     18 C11        34.5740  122.1920  130.2640 C.ar      1 5O4        -0.0499
     19 C10        35.0640  123.4870  130.3900 C.ar      1 5O4         0.0270
     20 C9         35.7470  123.9220  131.6400 C.2       1 5O4         0.1427
     21 H1         38.0397  125.8230  134.8747 H         1 5O4         0.0670
     22 H2         37.6415  127.8033  129.0100 H         1 5O4         0.0343
     23 H3         37.8302  126.8782  126.5863 H         1 5O4         0.0971
     24 H4         37.7977  123.5265  129.1882 H         1 5O4         0.1060
     25 H5         34.5855  122.7493  132.9612 H         1 5O4         0.2880
     26 H6         39.3996  127.2128  133.3830 H         1 5O4         0.0810
     27 H7         35.2401  125.3949  129.4238 H         1 5O4         0.0626
     28 H8         34.0163  124.6991  127.4053 H         1 5O4         0.0616
     29 H9         33.1436  122.4072  127.2127 H         1 5O4         0.0613
     30 H10        33.5081  120.7985  129.0391 H         1 5O4         0.0616
     31 H11        34.7309  121.4769  131.0635 H         1 5O4         0.0626
@<TRIPOS>BOND
     1    2    1 ar 
     2    1   12 ar 
     3    3    2 ar 
     4   10    2 2  
     5    3    4 ar 
     6   20    3 2  
     7    4    5 1  
     8    4   11 ar 
     9    5    6 1  
    10    5    8 2  
    11    6    7 2  
    12   13    7 1  
    13    8   13 1  
    14    9   10 1  
    15   20    9 1  
    16   11   12 ar 
    17   14   15 ar 
    18   19   14 ar 
    19   15   16 ar 
    20   17   16 ar 
    21   18   17 ar 
    22   19   18 ar 
    23   19   20 1  
    24    1   21 1  
    25    6   22 1  
    26    7   23 1  
    27    8   24 1  
    28    9   25 1  
    29   12   26 1  
    30   14   27 1  
    31   15   28 1  
    32   16   29 1  
    33   17   30 1  
    34   18   31 1  
@<TRIPOS>SUBSTRUCTURE
     1 5O4         1

