### 
### Created by X-TOOL on Mon Sep 10 21:13:30 2018
### 

@<TRIPOS>MOLECULE
5ei2_ligand
   45    48     1     0     0
SMALL
GAST_HUCK


@<TRIPOS>ATOM
      1 C10         1.0720  -39.2800  -11.1600 C.3       1 5O7         0.0629
      2 C13        -1.3650  -37.4900   -9.1220 C.ar      1 5O7        -0.0531
      3 C14        -1.4290  -37.8800   -7.7950 C.ar      1 5O7         0.0711
      4 C17        -1.2540  -34.8980   -4.8070 C.3       1 5O7         0.0569
      5 C18        -1.6410  -40.2120   -8.3450 C.3       1 5O7         0.0568
      6 O1         -1.5620  -39.1760   -7.3680 O.3       1 5O7        -0.3309
      7 C12        -1.2200  -36.1540   -9.4400 C.ar      1 5O7        -0.0537
      8 C15        -1.3550  -36.9400   -6.7790 C.ar      1 5O7        -0.0129
      9 C16        -1.2140  -35.6010   -7.1000 C.ar      1 5O7         0.1079
     10 O          -1.1440  -34.5790   -6.1940 O.3       1 5O7        -0.3273
     11 C11        -1.1390  -35.1990   -8.4330 C.ar      1 5O7         0.0861
     12 N5         -0.9560  -33.8510   -8.7030 N.pl3     1 5O7        -0.2488
     13 C          -0.2240  -33.3380   -9.7240 C.ar      1 5O7         0.2099
     14 N1         -0.1220  -32.0000   -9.7860 N.ar      1 5O7        -0.2349
     15 C3          0.6340  -31.5290  -10.7530 C.ar      1 5O7         0.0384
     16 C2          1.3140  -32.3270  -11.6980 C.ar      1 5O7         0.0317
     17 C4          2.1100  -31.8400  -12.7590 C.ar      1 5O7        -0.0300
     18 C5          2.6830  -32.7250  -13.6150 C.ar      1 5O7         0.0014
     19 N2          2.5420  -34.0540  -13.5180 N.ar      1 5O7        -0.3009
     20 C6          1.8010  -34.5510  -12.5360 C.ar      1 5O7         0.0573
     21 C1          1.1240  -33.7200  -11.5430 C.ar      1 5O7         0.0698
     22 N           0.3510  -34.2330  -10.5460 N.ar      1 5O7        -0.2547
     23 C7          1.7010  -35.9950  -12.5320 C.2       1 5O7         0.0254
     24 C9          1.9230  -36.8830  -13.5990 C.2       1 5O7         0.0116
     25 N4          1.7290  -38.1430  -13.2500 N.2       1 5O7        -0.2100
     26 N3          1.3730  -38.0740  -11.9190 N.pl3     1 5O7        -0.2010
     27 C8          1.3530  -36.8090  -11.4820 C.2       1 5O7         0.0722
     28 H1          0.8127  -39.0075  -10.1263 H         1 5O7         0.0610
     29 H2          1.9522  -39.9397  -11.1555 H         1 5O7         0.0610
     30 H3          0.2237  -39.8037  -11.6249 H         1 5O7         0.0610
     31 H4         -1.4286  -38.2319   -9.9098 H         1 5O7         0.0423
     32 H5         -1.1791  -33.9760   -4.2117 H         1 5O7         0.0573
     33 H6         -0.4428  -35.5846   -4.5232 H         1 5O7         0.0573
     34 H7         -2.2248  -35.3791   -4.6173 H         1 5O7         0.0573
     35 H8         -1.7446  -41.1842   -7.8409 H         1 5O7         0.0573
     36 H9         -0.7258  -40.2111   -8.9553 H         1 5O7         0.0573
     37 H10        -2.5135  -40.0398   -8.9923 H         1 5O7         0.0573
     38 H11        -1.1691  -35.8488  -10.4789 H         1 5O7         0.0481
     39 H12        -1.4071  -37.2509   -5.7418 H         1 5O7         0.0436
     40 H13        -1.4167  -33.1795   -8.0724 H         1 5O7         0.2136
     41 H14         0.7426  -30.4532  -10.8299 H         1 5O7         0.1010
     42 H15         2.2613  -30.7744  -12.8880 H         1 5O7         0.0689
     43 H16         3.2896  -32.3336  -14.4236 H         1 5O7         0.0757
     44 H17         2.2206  -36.5688  -14.5983 H         1 5O7         0.0691
     45 H18         1.1048  -36.4831  -10.4730 H         1 5O7         0.1097
@<TRIPOS>BOND
     1   26    1 1  
     2    2    3 ar 
     3    7    2 ar 
     4    3    6 1  
     5    8    3 ar 
     6   10    4 1  
     7    6    5 1  
     8   11    7 ar 
     9    9    8 ar 
    10    9   10 1  
    11   11    9 ar 
    12   12   11 1  
    13   13   12 1  
    14   13   14 ar 
    15   22   13 ar 
    16   15   14 ar 
    17   16   15 ar 
    18   16   17 ar 
    19   21   16 ar 
    20   18   17 ar 
    21   19   18 ar 
    22   20   19 ar 
    23   20   21 ar 
    24   23   20 1  
    25   21   22 ar 
    26   24   23 1  
    27   23   27 2  
    28   25   24 2  
    29   25   26 1  
    30   26   27 1  
    31    1   28 1  
    32    1   29 1  
    33    1   30 1  
    34    2   31 1  
    35    4   32 1  
    36    4   33 1  
    37    4   34 1  
    38    5   35 1  
    39    5   36 1  
    40    5   37 1  
    41    7   38 1  
    42    8   39 1  
    43   12   40 1  
    44   15   41 1  
    45   17   42 1  
    46   18   43 1  
    47   24   44 1  
    48   27   45 1  
@<TRIPOS>SUBSTRUCTURE
     1 5O7         1

