### 
### Created by X-TOOL on Mon Sep 10 21:13:26 2018
### 

@<TRIPOS>MOLECULE
5ei3_ligand
   55    58     1     0     0
SMALL
GAST_HUCK


@<TRIPOS>ATOM
      1 C4          5.2880  -10.4850   -4.5380 C.2       1 5O8         0.4550
      2 C5          4.7020  -11.1250   -5.6210 C.2       1 5O8         0.3819
      3 C6          3.3410  -11.3880   -5.6290 C.2       1 5O8         0.3492
      4 C8          6.8280  -10.9050   -6.0030 C.2       1 5O8         0.2564
      5 N1          2.5830  -10.9960   -4.5270 N.am      1 5O8        -0.2251
      6 N2          2.5110   -9.9760   -2.4020 N.pl3     1 5O8        -0.3241
      7 N3          4.5430  -10.1160   -3.4870 N.pl3     1 5O8        -0.1226
      8 CAM         7.1270  -13.9760   -7.7510 C.ar      1 5O8        -0.0591
      9 CAK         7.4020  -15.3270   -7.5710 C.ar      1 5O8        -0.0685
     10 CAJ         6.3820  -16.2060   -7.2230 C.ar      1 5O8        -0.0687
     11 CAL         5.0850  -15.7350   -7.0540 C.ar      1 5O8        -0.0685
     12 CAN         4.8110  -14.3840   -7.2350 C.ar      1 5O8        -0.0591
     13 CAW         5.8310  -13.5040   -7.5830 C.ar      1 5O8        -0.0261
     14 CAQ         5.5200  -12.0220   -7.7790 C.3       1 5O8         0.0777
     15 N7          5.6770  -11.3540   -6.4840 N.2       1 5O8        -0.1678
     16 O6          2.8150  -11.9540   -6.5850 O.2       1 5O8        -0.3083
     17 C2          3.2230  -10.3550   -3.4590 C.cat     1 5O8         0.2388
     18 N9          6.5880  -10.3680   -4.8080 N.pl3     1 5O8        -0.0052
     19 CBD         7.6350   -9.7540   -3.9530 C.3       1 5O8         0.2440
     20 OAU         8.4810  -10.8450   -3.4570 O.3       1 5O8        -0.3343
     21 CBB         7.1490   -8.9640   -2.7740 C.3       1 5O8         0.1428
     22 OAF         8.1290   -7.9860   -2.4170 O.3       1 5O8        -0.3834
     23 CBA         7.0940  -10.0480   -1.6980 C.3       1 5O8         0.1141
     24 OAE         7.4390   -9.4590   -0.4630 O.3       1 5O8        -0.3864
     25 CBC         8.2070  -11.0500   -2.0520 C.3       1 5O8         0.1074
     26 CAP         7.8220  -12.5420   -1.7650 C.3       1 5O8         0.0554
     27 NAS         6.3540  -12.6650   -1.9260 N.am      1 5O8        -0.2415
     28 SBH         5.8750  -13.7260   -3.1000 S.o2      1 5O8         0.1370
     29 OAC         6.8760  -13.7370   -4.2170 O.2       1 5O8        -0.1469
     30 OAD         4.5270  -13.3310   -3.6260 O.2       1 5O8        -0.1469
     31 CBG         5.7830  -15.3750   -2.3340 C.3       1 5O8         0.5381
     32 FAH         6.9820  -15.7160   -1.8720 F         1 5O8        -0.1491
     33 FAI         4.9130  -15.3480   -1.3300 F         1 5O8        -0.1491
     34 FAG         5.3880  -16.2640   -3.2400 F         1 5O8        -0.1491
     35 H1          7.7968  -10.9646   -6.4968 H         1 5O8         0.2505
     36 H2          1.5986  -11.1696   -4.4994 H         1 5O8         0.1848
     37 H3          2.9734   -9.5039   -1.6120 H         1 5O8         0.1814
     38 H4          1.4970  -10.1545   -2.3732 H         1 5O8         0.1814
     39 H5          4.9901   -9.6421   -2.6892 H         1 5O8         0.2948
     40 H6          7.9228  -13.2917   -8.0221 H         1 5O8         0.0557
     41 H7          8.4129  -15.6957   -7.7021 H         1 5O8         0.0599
     42 H8          6.5984  -17.2590   -7.0835 H         1 5O8         0.0559
     43 H9          4.2895  -16.4192   -6.7818 H         1 5O8         0.0599
     44 H10         3.8000  -14.0153   -7.1046 H         1 5O8         0.0557
     45 H11         4.4877  -11.9011   -8.1392 H         1 5O8         0.0617
     46 H12         6.2169  -11.5874   -8.5107 H         1 5O8         0.0617
     47 H13         8.2345   -9.0804   -4.5829 H         1 5O8         0.1043
     48 H14         6.1706   -8.4941   -2.9528 H         1 5O8         0.0678
     49 H15         7.8193   -7.4869   -1.6703 H         1 5O8         0.2101
     50 H16         6.1059  -10.5293   -1.6534 H         1 5O8         0.0648
     51 H17         8.3159   -9.0979   -0.5196 H         1 5O8         0.2100
     52 H18         9.1050  -10.8119   -1.4630 H         1 5O8         0.0640
     53 H19         8.1107  -12.8131   -0.7388 H         1 5O8         0.0502
     54 H20         8.3343  -13.2053   -2.4775 H         1 5O8         0.0502
     55 H21         5.7047  -12.1474   -1.3688 H         1 5O8         0.1672
@<TRIPOS>BOND
     1    2    1 2  
     2    1    7 1  
     3   18    1 1  
     4    2    3 1  
     5   15    2 1  
     6    3    5 am 
     7    3   16 2  
     8   15    4 2  
     9    4   18 1  
    10    5   17 ar 
    11   17    6 ar 
    12    7   17 ar 
    13    8    9 ar 
    14   13    8 ar 
    15    9   10 ar 
    16   11   10 ar 
    17   12   11 ar 
    18   13   12 ar 
    19   14   13 1  
    20   14   15 1  
    21   18   19 1  
    22   19   20 1  
    23   19   21 1  
    24   20   25 1  
    25   21   22 1  
    26   21   23 1  
    27   23   24 1  
    28   23   25 1  
    29   25   26 1  
    30   26   27 1  
    31   27   28 am 
    32   28   29 2  
    33   28   30 2  
    34   28   31 1  
    35   31   32 1  
    36   31   33 1  
    37   31   34 1  
    38    4   35 1  
    39    5   36 1  
    40    6   37 1  
    41    6   38 1  
    42    7   39 1  
    43    8   40 1  
    44    9   41 1  
    45   10   42 1  
    46   11   43 1  
    47   12   44 1  
    48   14   45 1  
    49   14   46 1  
    50   19   47 1  
    51   21   48 1  
    52   22   49 1  
    53   23   50 1  
    54   24   51 1  
    55   25   52 1  
    56   26   53 1  
    57   26   54 1  
    58   27   55 1  
@<TRIPOS>SUBSTRUCTURE
     1 5O8         1

