### 
### Created by X-TOOL on Mon Sep 10 21:13:27 2018
### 

@<TRIPOS>MOLECULE
5ei4_ligand
   47    50     1     0     0
SMALL
GAST_HUCK


@<TRIPOS>ATOM
      1 C4         25.2900   50.7970   -1.1160 C.2       1 5NV         0.1281
      2 C5         24.4790   49.9840   -0.3350 C.2       1 5NV         0.1534
      3 C6         23.2330   49.6060   -0.7820 C.2       1 5NV         0.2213
      4 C8         26.4090   50.3350    0.6730 C.2       1 5NV         0.1296
      5 N1         22.8590   50.1810   -2.0340 N.am      1 5NV        -0.1859
      6 N3         24.8610   51.3160   -2.2890 N.am      1 5NV        -0.1902
      7 CAJ        27.9540   50.8370   -3.0440 C.ar      1 5NV        -0.0573
      8 CAK        28.8350   49.9310   -3.6650 C.ar      1 5NV        -0.0545
      9 CAL        28.5970   49.3090   -4.8920 C.ar      1 5NV         0.0330
     10 CL1        29.6590   48.2980   -5.6350 Cl        1 5NV        -0.0771
     11 CAM        27.4260   49.6090   -5.5200 C.ar      1 5NV        -0.0545
     12 CAN        26.5180   50.4940   -4.9150 C.ar      1 5NV        -0.0573
     13 CAI        26.7810   51.1850   -3.7040 C.ar      1 5NV        -0.0152
     14 CAH        25.7970   52.1650   -3.0980 C.3       1 5NV         0.0894
     15 C2         23.6120   50.9980   -2.7830 C.2       1 5NV         0.3174
     16 O2         23.2340   51.4030   -3.8830 O.2       1 5NV        -0.3874
     17 O6         22.3840   48.8110   -0.2820 O.2       1 5NV        -0.4046
     18 N7         25.2270   49.6470    0.7490 N.pl3     1 5NV        -0.2485
     19 CAT        24.8870   48.7650    1.8310 C.3       1 5NV         0.0494
     20 CAU        25.0310   47.4090    1.3270 C.3       1 5NV        -0.0383
     21 N9         26.4470   51.0440   -0.4780 N.2       1 5NV        -0.2936
     22 CAV        27.4650   50.2680    1.8900 C.3       1 5NV         0.0969
     23 SAW        26.9870   51.5780    2.9540 S.3       1 5NV        -0.0058
     24 CAX        28.5300   51.9610    3.5260 C.2       1 5NV         0.2027
     25 NBB        28.6200   52.4600    4.6840 N.2       1 5NV        -0.2993
     26 CBA        29.9510   52.8470    4.7900 C.cat     1 5NV         0.2811
     27 NBC        30.5950   53.4850    5.8310 N.pl3     1 5NV        -0.2699
     28 NAZ        30.6520   52.3290    3.8000 N.pl3     1 5NV        -0.1325
     29 NAY        29.7440   51.7610    2.9770 N.pl3     1 5NV        -0.1157
     30 H1         21.9507   49.9529   -2.3846 H         1 5NV         0.2253
     31 H2         28.1857   51.2547   -2.0709 H         1 5NV         0.0558
     32 H3         29.7631   49.7003   -3.1546 H         1 5NV         0.0606
     33 H4         27.1957   49.1667   -6.4825 H         1 5NV         0.0606
     34 H5         25.5629   50.6582   -5.4006 H         1 5NV         0.0558
     35 H6         26.3178   52.8893   -2.4544 H         1 5NV         0.0750
     36 H7         25.2496   52.7023   -3.8865 H         1 5NV         0.0750
     37 H8         23.8499   48.9416    2.1523 H         1 5NV         0.0600
     38 H9         25.5668   48.9277    2.6804 H         1 5NV         0.0600
     39 H10        24.7801   46.6932    2.1237 H         1 5NV         0.0256
     40 H11        26.0693   47.2469    1.0021 H         1 5NV         0.0256
     41 H12        24.3525   47.2609    0.4740 H         1 5NV         0.0256
     42 H13        28.4912   50.4186    1.5238 H         1 5NV         0.0666
     43 H14        27.3994   49.3007    2.4097 H         1 5NV         0.0666
     44 H15        30.0480   53.8896    6.6043 H         1 5NV         0.3181
     45 H16        31.6225   53.5564    5.8345 H         1 5NV         0.3181
     46 H17        31.6747   52.3526    3.6800 H         1 5NV         0.3596
     47 H18        29.9425   51.2675    2.0950 H         1 5NV         0.2517
@<TRIPOS>BOND
     1    1    2 2  
     2    6    1 1  
     3    1   21 1  
     4    2    3 1  
     5    2   18 1  
     6    5    3 am 
     7    3   17 2  
     8    4   18 1  
     9   21    4 2  
    10    4   22 1  
    11   15    5 am 
    12   14    6 1  
    13    6   15 am 
    14    7    8 ar 
    15   13    7 ar 
    16    8    9 ar 
    17    9   10 1  
    18   11    9 ar 
    19   12   11 ar 
    20   13   12 ar 
    21   13   14 1  
    22   15   16 2  
    23   18   19 1  
    24   19   20 1  
    25   22   23 1  
    26   23   24 1  
    27   24   25 2  
    28   24   29 1  
    29   25   26 ar 
    30   26   27 ar 
    31   26   28 ar 
    32   28   29 1  
    33    5   30 1  
    34    7   31 1  
    35    8   32 1  
    36   11   33 1  
    37   12   34 1  
    38   14   35 1  
    39   14   36 1  
    40   19   37 1  
    41   19   38 1  
    42   20   39 1  
    43   20   40 1  
    44   20   41 1  
    45   22   42 1  
    46   22   43 1  
    47   27   44 1  
    48   27   45 1  
    49   28   46 1  
    50   29   47 1  
@<TRIPOS>SUBSTRUCTURE
     1 5NV         1

