### 
### Created by X-TOOL on Mon Sep 10 21:13:29 2018
### 

@<TRIPOS>MOLECULE
5ei8_ligand
   51    55     1     0     0
SMALL
GAST_HUCK


@<TRIPOS>ATOM
      1 C21         1.0380  -39.0720  -11.7080 C.3       1 5OE         0.0629
      2 N6          1.3590  -37.8170  -12.3740 N.pl3     1 5OE        -0.2010
      3 C19         1.4570  -36.6030  -11.8230 C.2       1 5OE         0.0723
      4 N7          1.5850  -37.8090  -13.6970 N.2       1 5OE        -0.2100
      5 C20         1.8300  -36.5430  -13.9770 C.2       1 5OE         0.0116
      6 C18         1.7600  -35.7300  -12.8370 C.2       1 5OE         0.0255
      7 C17         1.9210  -34.2990  -12.7390 C.ar      1 5OE         0.0574
      8 N5          2.6590  -33.7360  -13.6900 N.ar      1 5OE        -0.3008
      9 C16         2.8120  -32.4000  -13.7080 C.ar      1 5OE         0.0015
     10 C15         2.2560  -31.5590  -12.7970 C.ar      1 5OE        -0.0299
     11 C1          1.4740  -32.1110  -11.7650 C.ar      1 5OE         0.0319
     12 C           1.3050  -33.5110  -11.7400 C.ar      1 5OE         0.0701
     13 N1          0.5260  -34.1180  -10.8040 N.ar      1 5OE        -0.2539
     14 C3         -0.0820  -33.3080   -9.9180 C.ar      1 5OE         0.2118
     15 N          -0.0030  -31.9660   -9.8660 N.ar      1 5OE        -0.2344
     16 C2          0.7610  -31.4040  -10.7740 C.ar      1 5OE         0.0386
     17 N2         -0.8430  -33.9120   -8.9710 N.pl3     1 5OE        -0.2445
     18 C4         -1.0740  -35.2490   -8.6580 C.ar      1 5OE         0.0937
     19 C9         -1.1680  -35.6050   -7.3080 C.ar      1 5OE         0.1118
     20 O          -0.9530  -34.5800   -6.4300 O.3       1 5OE        -0.3259
     21 C10        -1.4280  -34.7360   -5.0970 C.3       1 5OE         0.0570
     22 C8         -1.4480  -36.9080   -6.9430 C.ar      1 5OE        -0.0414
     23 C7         -1.6390  -37.8770   -7.9210 C.ar      1 5OE        -0.0545
     24 C6         -1.5260  -37.5290   -9.2610 C.ar      1 5OE        -0.0811
     25 C5         -1.2460  -36.2270   -9.6320 C.ar      1 5OE        -0.0489
     26 C11        -2.0050  -39.2580   -7.5140 C.2       1 5OE        -0.0087
     27 C13        -2.3930  -39.6700   -6.2300 C.2       1 5OE         0.0037
     28 N4         -2.6720  -40.9600   -6.1880 N.2       1 5OE        -0.2149
     29 N3         -2.4650  -41.3840   -7.4440 N.pl3     1 5OE        -0.2079
     30 C14        -2.6830  -42.7860   -7.7730 C.3       1 5OE         0.0608
     31 C12        -2.0660  -40.4050   -8.2650 C.2       1 5OE         0.0598
     32 H1          0.8860  -38.8887  -10.6341 H         1 5OE         0.0610
     33 H2          1.8667  -39.7823  -11.8450 H         1 5OE         0.0610
     34 H3          0.1189  -39.4927  -12.1418 H         1 5OE         0.0610
     35 H4          1.3222  -36.3547  -10.7713 H         1 5OE         0.1097
     36 H5          2.0594  -36.1735  -14.9754 H         1 5OE         0.0691
     37 H6          3.4158  -31.9676  -14.4976 H         1 5OE         0.0758
     38 H7          2.4110  -30.4882  -12.8634 H         1 5OE         0.0689
     39 H8          0.8499  -30.3237  -10.7613 H         1 5OE         0.1011
     40 H9         -1.3495  -33.2516   -8.3642 H         1 5OE         0.2159
     41 H10        -1.1832  -33.8366   -4.5129 H         1 5OE         0.0573
     42 H11        -0.9492  -35.6132   -4.6374 H         1 5OE         0.0573
     43 H12        -2.5186  -34.8786   -5.1107 H         1 5OE         0.0573
     44 H13        -1.5186  -37.1743   -5.8946 H         1 5OE         0.0466
     45 H14        -1.6589  -38.2869  -10.0245 H         1 5OE         0.0462
     46 H15        -1.1606  -35.9685  -10.6812 H         1 5OE         0.0500
     47 H16        -2.4565  -39.0048   -5.3701 H         1 5OE         0.0667
     48 H17        -2.4662  -42.9505   -8.8388 H         1 5OE         0.0606
     49 H18        -3.7300  -43.0526   -7.5665 H         1 5OE         0.0606
     50 H19        -2.0174  -43.4137   -7.1623 H         1 5OE         0.0606
     51 H20        -1.8344  -40.5003   -9.3248 H         1 5OE         0.1009
@<TRIPOS>BOND
     1    1    2 1  
     2    2    3 1  
     3    2    4 1  
     4    3    6 2  
     5    4    5 2  
     6    5    6 1  
     7    6    7 1  
     8    7    8 ar 
     9    7   12 ar 
    10    8    9 ar 
    11    9   10 ar 
    12   10   11 ar 
    13   11   12 ar 
    14   11   16 ar 
    15   12   13 ar 
    16   13   14 ar 
    17   14   15 ar 
    18   14   17 1  
    19   15   16 ar 
    20   17   18 1  
    21   18   19 ar 
    22   18   25 ar 
    23   19   20 1  
    24   19   22 ar 
    25   20   21 1  
    26   22   23 ar 
    27   23   24 ar 
    28   23   26 1  
    29   24   25 ar 
    30   26   27 1  
    31   26   31 2  
    32   27   28 2  
    33   28   29 1  
    34   29   30 1  
    35   29   31 1  
    36    1   32 1  
    37    1   33 1  
    38    1   34 1  
    39    3   35 1  
    40    5   36 1  
    41    9   37 1  
    42   10   38 1  
    43   16   39 1  
    44   17   40 1  
    45   21   41 1  
    46   21   42 1  
    47   21   43 1  
    48   22   44 1  
    49   24   45 1  
    50   25   46 1  
    51   27   47 1  
    52   30   48 1  
    53   30   49 1  
    54   30   50 1  
    55   31   51 1  
@<TRIPOS>SUBSTRUCTURE
     1 5OE         1

