### 
### Created by X-TOOL on Mon Sep 10 21:13:26 2018
### 

@<TRIPOS>MOLECULE
5eif_ligand
   19    19     1     0     0
SMALL
GAST_HUCK


@<TRIPOS>ATOM
      1 OAC        19.1880   42.8700  -14.0060 O.co2     1 4M0        -0.5667
      2 CAH        20.3870   43.1900  -13.8040 C.2       1 4M0         0.0516
      3 OAD        20.7210   43.5650  -12.5490 O.co2     1 4M0        -0.5667
      4 CAK        21.4220   43.1980  -14.8330 C.ar      1 4M0         0.0203
      5 CAF        21.2100   42.3250  -15.9360 C.ar      1 4M0        -0.0654
      6 CAE        22.1620   42.2760  -16.9650 C.ar      1 4M0        -0.0699
      7 CAI        23.2980   43.1170  -16.8840 C.ar      1 4M0        -0.0550
      8 CAA        24.3470   43.0600  -17.9870 C.3       1 4M0        -0.0328
      9 CAG        23.5160   43.9690  -15.8160 C.ar      1 4M0        -0.0400
     10 CAJ        22.5820   44.0260  -14.7430 C.ar      1 4M0         0.0435
     11 NAB        22.8460   44.8970  -13.6850 N.pl3     1 4M0        -0.3354
     12 H1         20.3224   41.7044  -15.9808 H         1 4M0         0.0601
     13 H2         22.0303   41.6062  -17.8071 H         1 4M0         0.0457
     14 H3         25.1532   43.7743  -17.7635 H         1 4M0         0.0394
     15 H4         23.8821   43.3211  -18.9491 H         1 4M0         0.0394
     16 H5         24.7634   42.0435  -18.0449 H         1 4M0         0.0394
     17 H6         24.4007   44.5951  -15.7961 H         1 4M0         0.0458
     18 H7         22.1891   44.9607  -12.8942 H         1 4M0         0.1734
     19 H8         23.6977   45.4762  -13.6950 H         1 4M0         0.1734
@<TRIPOS>BOND
     1    1    2 ar 
     2    2    3 ar 
     3    2    4 1  
     4    4    5 ar 
     5    4   10 ar 
     6    5    6 ar 
     7    6    7 ar 
     8    7    8 1  
     9    7    9 ar 
    10    9   10 ar 
    11   10   11 1  
    12    5   12 1  
    13    6   13 1  
    14    8   14 1  
    15    8   15 1  
    16    8   16 1  
    17    9   17 1  
    18   11   18 1  
    19   11   19 1  
@<TRIPOS>SUBSTRUCTURE
     1 4M0         1

