### 
### Created by X-TOOL on Wed Jan  1 15:39:34 2020
### 

@<TRIPOS>MOLECULE
5eij_ligand
   35    36     1     0     0
SMALL
GAST_HUCK


@<TRIPOS>ATOM
      1 CAP        -0.9370    8.2750   12.7750 C.ar      1 5OT        -0.0333
      2 CAO        -0.0020    8.9050   13.5870 C.ar      1 5OT        -0.0021
      3 IAQ         1.8090    9.5980   12.7500 I         1 5OT        -0.0528
      4 CAN        -0.2330    9.0990   14.9400 C.ar      1 5OT        -0.0641
      5 CAM        -1.4120    8.6470   15.4920 C.ar      1 5OT        -0.0708
      6 CAL        -2.3400    8.0070   14.6840 C.ar      1 5OT        -0.0419
      7 CAK        -2.1190    7.8220   13.3270 C.ar      1 5OT         0.0430
      8 NAI        -3.1310    7.1650   12.5150 N.pl3     1 5OT        -0.2923
      9 CAH        -4.2140    6.5300   13.2520 C.3       1 5OT         0.1603
     10 SAJ        -5.6560    6.1260   12.2250 S.3       1 5OT        -0.1277
     11 NAG        -3.6000    5.3520   13.8170 N.pl3     1 5OT        -0.2928
     12 CAD        -4.2720    4.3350   14.5790 C.ar      1 5OT         0.0400
     13 CAC        -5.5970    4.4060   14.9700 C.ar      1 5OT        -0.0426
     14 CAB        -6.1270    3.3620   15.7090 C.ar      1 5OT        -0.0471
     15 CAA        -5.3150    2.2880   16.0410 C.ar      1 5OT         0.0945
     16 SAR        -5.9410    0.8850   16.9920 S.o2      1 5OT         0.0600
     17 OAS        -5.3540    1.0290   18.5000 O.2       1 5OT        -0.1522
     18 OAT        -7.5590    0.9480   16.8950 O.2       1 5OT        -0.1522
     19 NAU        -5.3380   -0.5290   16.2500 N.am      1 5OT        -0.2623
     20 CAF        -4.0030    2.2330   15.6500 C.ar      1 5OT        -0.0471
     21 CAE        -3.4860    3.2620   14.9100 C.ar      1 5OT        -0.0426
     22 H1         -0.7404    8.1403   11.7175 H         1 5OT         0.0544
     23 H2          0.5047    9.6001   15.5562 H         1 5OT         0.0532
     24 H3         -1.6122    8.7903   16.5477 H         1 5OT         0.0589
     25 H4         -3.2611    7.6422   15.1239 H         1 5OT         0.0536
     26 H5         -3.0845    7.1500   11.4862 H         1 5OT         0.1785
     27 H6         -4.5506    7.1981   14.0584 H         1 5OT         0.0933
     28 H7         -6.3632    5.6914   12.7969 H         1 5OT         0.1058
     29 H8         -2.5895    5.2291   13.6600 H         1 5OT         0.1785
     30 H9         -6.2076    5.2611   14.7034 H         1 5OT         0.0515
     31 H10        -7.1639    3.3839   16.0242 H         1 5OT         0.0602
     32 H11        -5.5685   -1.4272   16.6242 H         1 5OT         0.1633
     33 H12        -4.7542   -0.4592   15.4411 H         1 5OT         0.1633
     34 H13        -3.3832    1.3866   15.9228 H         1 5OT         0.0602
     35 H14        -2.4524    3.2282   14.5850 H         1 5OT         0.0515
@<TRIPOS>BOND
     1    1    2 ar 
     2    1    7 ar 
     3    2    3 1  
     4    2    4 ar 
     5    4    5 ar 
     6    5    6 ar 
     7    6    7 ar 
     8    7    8 1  
     9    8    9 1  
    10    9   10 1  
    11    9   11 1  
    12   11   12 1  
    13   12   13 ar 
    14   12   21 ar 
    15   13   14 ar 
    16   14   15 ar 
    17   15   16 1  
    18   15   20 ar 
    19   16   17 2  
    20   16   18 2  
    21   16   19 am 
    22   20   21 ar 
    23    1   22 1  
    24    4   23 1  
    25    5   24 1  
    26    6   25 1  
    27    8   26 1  
    28    9   27 1  
    29   10   28 1  
    30   11   29 1  
    31   13   30 1  
    32   14   31 1  
    33   19   32 1  
    34   19   33 1  
    35   20   34 1  
    36   21   35 1  
@<TRIPOS>SUBSTRUCTURE
     1 5OT         1

