### 
### Created by X-TOOL on Mon Sep 10 21:13:28 2018
### 

@<TRIPOS>MOLECULE
5eis_ligand
   34    36     1     0     0
SMALL
GAST_HUCK


@<TRIPOS>ATOM
      1 C4        -24.3850   -6.8270   77.2430 C.2       1 5OU         0.1402
      2 C5        -23.5160   -5.9160   77.8260 C.2       1 5OU         0.1626
      3 C6        -22.2810   -5.7500   77.3260 C.2       1 5OU         0.2275
      4 C8        -25.4180   -5.9510   78.9080 C.2       1 5OU         0.0978
      5 N1        -21.9470   -6.4940   76.1620 N.am      1 5OU        -0.1848
      6 N3        -24.0260   -7.5420   76.1510 N.am      1 5OU        -0.1880
      7 CAU       -23.8360   -3.0070   79.1690 C.3       1 5OU        -0.0377
      8 CAT       -23.6640   -4.3800   79.7970 C.3       1 5OU         0.0508
      9 N7        -24.1870   -5.3950   78.8750 N.pl3     1 5OU        -0.2515
     10 N9        -25.5590   -6.8330   77.9290 N.2       1 5OU        -0.2857
     11 O6        -21.3590   -4.9840   77.7400 O.2       1 5OU        -0.4009
     12 C2        -22.8470   -7.3760   75.5890 C.2       1 5OU         0.3176
     13 O2        -22.4350   -7.9640   74.6070 O.2       1 5OU        -0.3873
     14 CAI       -25.0290   -8.4230   75.5320 C.3       1 5OU         0.0894
     15 CAJ       -25.8260   -7.6720   74.6100 C.ar      1 5OU        -0.0152
     16 CAK       -26.9960   -7.0400   75.0140 C.ar      1 5OU        -0.0573
     17 CAL       -27.7240   -6.2960   74.0890 C.ar      1 5OU        -0.0545
     18 CAM       -27.3410   -6.1140   72.7820 C.ar      1 5OU         0.0330
     19 CL        -28.3810   -5.1370   71.6230 Cl        1 5OU        -0.0771
     20 CAN       -26.1610   -6.7120   72.3650 C.ar      1 5OU        -0.0545
     21 CAO       -25.3920   -7.4850   73.2920 C.ar      1 5OU        -0.0573
     22 H1        -26.1882   -5.7078   79.6385 H         1 5OU         0.1263
     23 H2        -21.0438   -6.3780   75.7487 H         1 5OU         0.2256
     24 H3        -23.4464   -2.2393   79.8537 H         1 5OU         0.0256
     25 H4        -24.9036   -2.8216   78.9795 H         1 5OU         0.0256
     26 H5        -23.2825   -2.9662   78.2193 H         1 5OU         0.0256
     27 H6        -24.2179   -4.4235   80.7464 H         1 5OU         0.0609
     28 H7        -22.5969   -4.5682   79.9861 H         1 5OU         0.0609
     29 H8        -25.6761   -8.8469   76.3140 H         1 5OU         0.0749
     30 H9        -24.5196   -9.2375   74.9962 H         1 5OU         0.0749
     31 H10       -27.3384   -7.1254   76.0389 H         1 5OU         0.0558
     32 H11       -28.6469   -5.8333   74.4194 H         1 5OU         0.0606
     33 H12       -25.8229   -6.5944   71.3418 H         1 5OU         0.0606
     34 H13       -24.4591   -7.9326   72.9688 H         1 5OU         0.0558
@<TRIPOS>BOND
     1    2    1 2  
     2    1    6 1  
     3   10    1 1  
     4    2    3 1  
     5    9    2 1  
     6    3    5 am 
     7    3   11 2  
     8    9    4 1  
     9    4   10 2  
    10    5   12 am 
    11    6   12 am 
    12    6   14 1  
    13    8    7 1  
    14    8    9 1  
    15   12   13 2  
    16   14   15 1  
    17   15   16 ar 
    18   15   21 ar 
    19   16   17 ar 
    20   17   18 ar 
    21   18   19 1  
    22   18   20 ar 
    23   20   21 ar 
    24    4   22 1  
    25    5   23 1  
    26    7   24 1  
    27    7   25 1  
    28    7   26 1  
    29    8   27 1  
    30    8   28 1  
    31   14   29 1  
    32   14   30 1  
    33   16   31 1  
    34   17   32 1  
    35   20   33 1  
    36   21   34 1  
@<TRIPOS>SUBSTRUCTURE
     1 5OU         1

