### 
### Created by X-TOOL on Mon Sep 10 21:13:27 2018
### 

@<TRIPOS>MOLECULE
5eiw_ligand
   19    19     1     0     0
SMALL
GAST_HUCK


@<TRIPOS>ATOM
      1 C1         18.9300   50.3330  -10.7960 C.3       1 X0V         0.3507
      2 C2         20.3570   49.8340  -10.8460 C.ar      1 X0V         0.0123
      3 C3         22.5130   49.7100   -9.6990 C.ar      1 X0V         0.0904
      4 C4         21.1740   50.1930   -9.7600 C.ar      1 X0V        -0.0277
      5 C6         23.0100   48.8820  -10.7700 C.ar      1 X0V         0.0996
      6 C7         20.8150   49.0340  -11.8890 C.ar      1 X0V        -0.0509
      7 F1         18.3590   50.2070   -9.5870 F         1 X0V        -0.2409
      8 F2         18.7930   51.6160  -11.0840 F         1 X0V        -0.2409
      9 F3         18.1000   49.7300  -11.5990 F         1 X0V        -0.2409
     10 C8         22.1570   48.5550  -11.8590 C.ar      1 X0V        -0.0136
     11 N1         23.3770   50.0160   -8.5910 N.pl3     1 X0V        -0.3338
     12 N2         24.3250   48.4330  -10.7620 N.pl3     1 X0V        -0.3165
     13 H1         20.7881   50.8327   -8.9746 H         1 X0V         0.0644
     14 H2         20.1593   48.7786  -12.7136 H         1 X0V         0.0752
     15 H3         22.5286   47.9389  -12.6698 H         1 X0V         0.0609
     16 H4         23.0352   50.6062   -7.8191 H         1 X0V         0.1699
     17 H5         24.3376   49.6450   -8.5692 H         1 X0V         0.1699
     18 H6         24.9449   48.6687   -9.9739 H         1 X0V         0.1859
     19 H7         24.6798   47.8644  -11.5441 H         1 X0V         0.1859
@<TRIPOS>BOND
     1    1    2 1  
     2    1    7 1  
     3    1    8 1  
     4    1    9 1  
     5    2    4 ar 
     6    2    6 ar 
     7    4    3 ar 
     8    3    5 ar 
     9    3   11 1  
    10    5   10 ar 
    11    5   12 1  
    12    6   10 ar 
    13    4   13 1  
    14    6   14 1  
    15   10   15 1  
    16   11   16 1  
    17   11   17 1  
    18   12   18 1  
    19   12   19 1  
@<TRIPOS>SUBSTRUCTURE
     1 X0V         1

