### 
### Created by X-TOOL on Mon Sep 10 21:13:27 2018
### 

@<TRIPOS>MOLECULE
5ejv_ligand
   43    44     1     0     0
SMALL
GAST_HUCK


@<TRIPOS>ATOM
      1 O13         9.3240   74.5240  -16.1360 O.2       1 444        -0.1412
      2 S12         9.4670   73.0640  -15.8490 S.o2      1 444         0.1037
      3 O14        10.1400   72.3900  -17.0050 O.2       1 444        -0.1412
      4 C01        10.2930   72.8540  -14.6590 C.ar      1 444         0.1176
      5 C02        10.6280   71.5620  -14.3520 C.ar      1 444        -0.0342
      6 C03        11.3980   71.3570  -13.2310 C.ar      1 444        -0.0599
      7 C04        11.8230   72.4090  -12.4360 C.ar      1 444        -0.0616
      8 C05        11.4560   73.6890  -12.7580 C.ar      1 444        -0.0599
      9 C06        10.6820   73.9190  -13.8790 C.ar      1 444        -0.0342
     10 N15         7.9380   72.5200  -15.5010 N.am      1 444        -0.1349
     11 C16         7.0740   72.8390  -16.6590 C.3       1 444         0.1652
     12 C19         5.5880   72.9070  -16.2640 C.3       1 444         0.4159
     13 F22         5.5300   73.2990  -15.2010 F         1 444        -0.1679
     14 F21         4.9750   73.6670  -16.9990 F         1 444        -0.1679
     15 F20         5.0460   71.7460  -16.3460 F         1 444        -0.1679
     16 C23         7.6410   71.2380  -15.2040 C.ar      1 444         0.1131
     17 C24         6.5950   71.0430  -14.3010 C.ar      1 444        -0.0071
     18 C25         6.1680   69.7810  -13.9670 C.ar      1 444        -0.0506
     19 C28         8.2330   70.1340  -15.8070 C.ar      1 444        -0.0071
     20 C27         7.7860   68.8580  -15.4610 C.ar      1 444        -0.0506
     21 C26         6.7570   68.6470  -14.5390 C.ar      1 444        -0.0342
     22 C33         6.3090   67.3170  -14.2540 C.3       1 444         0.2176
     23 C34         4.8760   67.2590  -13.6800 C.3       1 444         0.3869
     24 F36         4.9100   67.3560  -12.5250 F         1 444        -0.1800
     25 F37         4.0690   68.1940  -14.1600 F         1 444        -0.1800
     26 F35         4.3290   66.1590  -14.0190 F         1 444        -0.1800
     27 O42         6.1030   66.7460  -15.4690 O.3       1 444        -0.4296
     28 C38         7.3170   66.2450  -13.8160 C.3       1 444         0.3869
     29 F39         7.9500   66.5080  -13.5260 F         1 444        -0.1800
     30 F40         7.5370   65.7230  -14.6130 F         1 444        -0.1800
     31 F41         6.9310   65.6280  -13.2250 F         1 444        -0.1800
     32 H1         10.2991   70.7333  -14.9685 H         1 444         0.0637
     33 H2         11.6799   70.3453  -12.9623 H         1 444         0.0618
     34 H3         12.4413   72.2207  -11.5657 H         1 444         0.0618
     35 H4         11.7718   74.5183  -12.1355 H         1 444         0.0618
     36 H5         10.3842   74.9277  -14.1414 H         1 444         0.0637
     37 H6          7.2032   72.0598  -17.4246 H         1 444         0.0688
     38 H7          7.3773   73.8125  -17.0717 H         1 444         0.0688
     39 H8          6.1103   71.9038  -13.8547 H         1 444         0.0617
     40 H9          5.3635   69.6613  -13.2503 H         1 444         0.0796
     41 H10         9.0277   70.2620  -16.5330 H         1 444         0.0617
     42 H11         8.2547   67.9978  -15.9250 H         1 444         0.0796
     43 H12         6.9239   66.7148  -15.9463 H         1 444         0.1901
@<TRIPOS>BOND
     1    1    2 2  
     2    2    3 2  
     3    2    4 1  
     4    2   10 am 
     5    4    5 ar 
     6    4    9 ar 
     7    5    6 ar 
     8    6    7 ar 
     9    7    8 ar 
    10    8    9 ar 
    11   10   11 1  
    12   10   16 1  
    13   11   12 1  
    14   12   13 1  
    15   12   14 1  
    16   12   15 1  
    17   16   17 ar 
    18   16   19 ar 
    19   17   18 ar 
    20   18   21 ar 
    21   19   20 ar 
    22   20   21 ar 
    23   21   22 1  
    24   22   23 1  
    25   22   27 1  
    26   22   28 1  
    27   23   24 1  
    28   23   25 1  
    29   23   26 1  
    30   28   29 1  
    31   28   30 1  
    32   28   31 1  
    33    5   32 1  
    34    6   33 1  
    35    7   34 1  
    36    8   35 1  
    37    9   36 1  
    38   11   37 1  
    39   11   38 1  
    40   17   39 1  
    41   18   40 1  
    42   19   41 1  
    43   20   42 1  
    44   27   43 1  
@<TRIPOS>SUBSTRUCTURE
     1 444         1

