### 
### Created by X-TOOL on Mon Sep 10 21:13:25 2018
### 

@<TRIPOS>MOLECULE
5ek0_ligand
   60    64     1     0     0
SMALL
GAST_HUCK


@<TRIPOS>ATOM
      1 C4        -86.1010   -9.7910  -15.5780 C.3       1 5P2         0.0061
      2 C14       -89.2980  -15.1350  -15.7700 C.ar      1 5P2         0.0317
      3 C5        -87.1080  -10.4710  -16.5260 C.3       1 5P2         0.1586
      4 C6        -87.3200   -9.0370  -17.0470 C.3       1 5P2         0.0061
      5 C8        -86.7460  -12.8530  -17.3820 C.2       1 5P2         0.0975
      6 C9        -86.0800  -13.3900  -18.4450 C.2       1 5P2        -0.0419
      7 C10       -85.5260  -12.3460  -19.1800 C.2       1 5P2        -0.0053
      8 C12       -87.4620  -13.6650  -16.3630 C.ar      1 5P2         0.0793
      9 C13       -88.6420  -14.3440  -16.7080 C.ar      1 5P2        -0.0276
     10 N3        -86.7830   -8.4930  -15.7770 N.4       1 5P2         0.2399
     11 C1        -88.1550   -6.7190  -14.6990 C.3       1 5P2        -0.0245
     12 C2        -87.8130   -8.2110  -14.7490 C.3       1 5P2        -0.0346
     13 N7        -86.5810  -11.4860  -17.4550 N.pl3     1 5P2        -0.1896
     14 N11       -85.8160  -11.2150  -18.6000 N.2       1 5P2        -0.2181
     15 C15       -88.7920  -15.2410  -14.4780 C.ar      1 5P2        -0.0371
     16 C16       -87.6180  -14.6000  -14.1260 C.ar      1 5P2         0.0093
     17 C17       -86.9360  -13.8260  -15.0630 C.ar      1 5P2         0.1711
     18 O18       -85.7930  -13.1800  -14.7010 O.3       1 5P2        -0.2194
     19 C19       -84.6450  -13.8720  -14.4520 C.ar      1 5P2         0.1668
     20 C20       -84.3140  -15.0020  -15.2070 C.ar      1 5P2        -0.0108
     21 C21       -83.1490  -15.7010  -14.9410 C.ar      1 5P2        -0.0316
     22 C22       -82.2710  -15.2550  -13.9580 C.ar      1 5P2         0.1194
     23 C23       -82.5770  -14.1380  -13.1920 C.ar      1 5P2        -0.0052
     24 C24       -83.7640  -13.4290  -13.4390 C.ar      1 5P2         0.1337
     25 C25       -84.0640  -12.2590  -12.6680 C.1       1 5P2         0.0936
     26 N26       -84.3010  -11.3320  -12.0600 N.1       1 5P2        -0.3374
     27 S27       -80.8190  -16.2040  -13.6530 S.o2      1 5P2         0.1021
     28 O28       -80.2670  -16.5120  -14.9230 O.2       1 5P2        -0.1425
     29 O29       -80.0520  -15.5500  -12.6480 O.2       1 5P2        -0.1425
     30 N30       -81.4110  -17.6280  -13.0320 N.am      1 5P2        -0.1288
     31 C31       -81.7930  -17.7960  -11.7040 C.2       1 5P2         0.2268
     32 N32       -81.9270  -18.9420  -11.0700 N.2       1 5P2        -0.2808
     33 C33       -82.2800  -18.9100   -9.8090 C.2       1 5P2         0.0344
     34 N34       -82.4680  -17.7450   -9.2750 N.2       1 5P2        -0.2705
     35 S35       -82.1930  -16.6140  -10.5140 S.3       1 5P2         0.0618
     36 C36       -90.5840  -15.8480  -16.1290 C.3       1 5P2         0.3604
     37 F37       -91.5780  -14.8930  -16.3720 F         1 5P2        -0.2349
     38 F38       -90.9860  -16.7010  -15.0920 F         1 5P2        -0.2349
     39 F39       -90.4060  -16.6240  -17.2770 F         1 5P2        -0.2349
     40 H1        -85.0619   -9.8113  -15.9383 H         1 5P2         0.0848
     41 H2        -86.1377  -10.1628  -14.5434 H         1 5P2         0.0848
     42 H3        -87.9870  -10.8997  -16.0225 H         1 5P2         0.0778
     43 H4        -88.3726   -8.7793  -17.2359 H         1 5P2         0.0848
     44 H5        -86.7168   -8.7876  -17.9324 H         1 5P2         0.0848
     45 H6        -85.9965  -14.4506  -18.6777 H         1 5P2         0.0354
     46 H7        -84.9435  -12.4562  -20.0935 H         1 5P2         0.0659
     47 H8        -89.0438  -14.2513  -17.7105 H         1 5P2         0.0816
     48 H9        -86.1714   -7.6985  -15.8804 H         1 5P2         0.2036
     49 H10       -88.9201   -6.5439  -13.9283 H         1 5P2         0.0281
     50 H11       -88.5406   -6.3982  -15.6780 H         1 5P2         0.0281
     51 H12       -87.2500   -6.1433  -14.4548 H         1 5P2         0.0281
     52 H13       -87.4331   -8.5247  -13.7655 H         1 5P2         0.0812
     53 H14       -88.7237   -8.7795  -14.9887 H         1 5P2         0.0812
     54 H15       -89.3231  -15.8316  -13.7403 H         1 5P2         0.0833
     55 H16       -87.2277  -14.6998  -13.1196 H         1 5P2         0.0664
     56 H17       -84.9719  -15.3315  -16.0030 H         1 5P2         0.0593
     57 H18       -82.9197  -16.6002  -15.5013 H         1 5P2         0.0685
     58 H19       -81.9029  -13.8147  -12.4070 H         1 5P2         0.0714
     59 H20       -81.4978  -18.4102  -13.6490 H         1 5P2         0.2469
     60 H21       -82.4101  -19.8252   -9.2333 H         1 5P2         0.1080
@<TRIPOS>BOND
     1    3    1 1  
     2    1   10 1  
     3    9    2 ar 
     4    2   15 ar 
     5    2   36 1  
     6    3    4 1  
     7   13    3 1  
     8    4   10 1  
     9    5    6 2  
    10    8    5 1  
    11    5   13 1  
    12    6    7 1  
    13    7   14 2  
    14    8    9 ar 
    15    8   17 ar 
    16   10   12 1  
    17   12   11 1  
    18   13   14 1  
    19   15   16 ar 
    20   16   17 ar 
    21   17   18 1  
    22   18   19 1  
    23   19   20 ar 
    24   19   24 ar 
    25   20   21 ar 
    26   21   22 ar 
    27   22   23 ar 
    28   22   27 1  
    29   23   24 ar 
    30   24   25 1  
    31   25   26 3  
    32   27   28 2  
    33   27   29 2  
    34   27   30 am 
    35   30   31 1  
    36   31   32 2  
    37   31   35 1  
    38   32   33 1  
    39   33   34 2  
    40   34   35 1  
    41   36   37 1  
    42   36   38 1  
    43   36   39 1  
    44    1   40 1  
    45    1   41 1  
    46    3   42 1  
    47    4   43 1  
    48    4   44 1  
    49    6   45 1  
    50    7   46 1  
    51    9   47 1  
    52   10   48 1  
    53   11   49 1  
    54   11   50 1  
    55   11   51 1  
    56   12   52 1  
    57   12   53 1  
    58   15   54 1  
    59   16   55 1  
    60   20   56 1  
    61   21   57 1  
    62   23   58 1  
    63   30   59 1  
    64   33   60 1  
@<TRIPOS>SUBSTRUCTURE
     1 5P2         1

