### 
### Created by X-TOOL on Mon Sep 10 21:13:28 2018
### 

@<TRIPOS>MOLECULE
5ek9_ligand
   50    52     1     0     0
SMALL
GAST_HUCK


@<TRIPOS>ATOM
      1 O3          1.5340   23.2050   48.7280 O.2       1 5P4        -0.3774
      2 C4          2.6050   21.1180   51.5110 C.3       1 5P4         0.0762
      3 C5          1.8220   19.9890   52.1640 C.3       1 5P4         0.0061
      4 C6          2.6740   19.0830   53.0610 C.3       1 5P4         0.0664
      5 N1          3.9290   19.7380   53.5040 N.am      1 5P4        -0.2195
      6 C7          1.8790   18.5590   54.2300 C.3       1 5P4        -0.0365
      7 C8          5.0030   18.8970   53.7270 C.2       1 5P4         0.2023
      8 C9          6.3320   19.4810   54.0890 C.3       1 5P4         0.0317
      9 C10         3.9600   21.1680   53.6100 C.ar      1 5P4         0.0749
     10 C11         4.5670   21.8380   54.6740 C.ar      1 5P4        -0.0466
     11 C12         4.4820   23.2210   54.7570 C.ar      1 5P4        -0.0732
     12 C13         3.7890   23.9600   53.7870 C.ar      1 5P4        -0.0120
     13 C14         3.2180   23.2850   52.7130 C.ar      1 5P4        -0.0628
     14 C15         3.2910   21.8950   52.6100 C.ar      1 5P4         0.0041
     15 C3          2.2570   22.6590   49.5320 C.2       1 5P4         0.3216
     16 O           3.6050   22.7030   49.4890 O.3       1 5P4        -0.2611
     17 C1          4.2060   23.6760   48.5660 C.3       1 5P4         0.0826
     18 C2          5.5870   23.9200   49.0570 C.3       1 5P4        -0.0346
     19 C           4.1810   23.0550   47.1890 C.3       1 5P4        -0.0346
     20 N           1.8230   21.9390   50.5890 N.am      1 5P4        -0.2503
     21 O1          4.8780   17.6870   53.6250 O.2       1 5P4        -0.3853
     22 C16         3.6370   25.4280   53.9060 C.2       1 5P4         0.1081
     23 O2          4.3110   26.0480   54.9310 O.3       1 5P4        -0.2668
     24 C19         4.0640   27.4050   54.7910 C.2       1 5P4         0.0767
     25 C18         3.2780   27.6290   53.7450 C.2       1 5P4        -0.0664
     26 C17         2.9920   26.3510   53.1570 C.2       1 5P4        -0.0618
     27 H1          3.3947   20.6538   50.9021 H         1 5P4         0.0690
     28 H2          1.3768   19.3713   51.3701 H         1 5P4         0.0334
     29 H3          1.0224   20.4307   52.7768 H         1 5P4         0.0334
     30 H4          2.9652   18.2139   52.4528 H         1 5P4         0.0621
     31 H5          2.5199   17.9149   54.8500 H         1 5P4         0.0257
     32 H6          1.0227   17.9764   53.8595 H         1 5P4         0.0257
     33 H7          1.5145   19.4033   54.8335 H         1 5P4         0.0257
     34 H8          7.0629   18.6708   54.2282 H         1 5P4         0.0472
     35 H9          6.2384   20.0547   55.0229 H         1 5P4         0.0472
     36 H10         6.6720   20.1469   53.2821 H         1 5P4         0.0472
     37 H11         5.1031   21.2798   55.4330 H         1 5P4         0.0485
     38 H12         4.9578   23.7371   55.5830 H         1 5P4         0.0515
     39 H13         2.7067   23.8492   51.9415 H         1 5P4         0.0500
     40 H14         3.6382   24.6181   48.5600 H         1 5P4         0.0642
     41 H15         6.0872   24.6458   48.3990 H         1 5P4         0.0258
     42 H16         6.1494   22.9747   49.0547 H         1 5P4         0.0258
     43 H17         5.5468   24.3203   50.0808 H         1 5P4         0.0258
     44 H18         4.6239   23.7535   46.4637 H         1 5P4         0.0258
     45 H19         3.1410   22.8397   46.9027 H         1 5P4         0.0258
     46 H20         4.7600   22.1198   47.1979 H         1 5P4         0.0258
     47 H21         0.8389   21.9720   50.7634 H         1 5P4         0.1893
     48 H22         4.4595   28.1788   55.4473 H         1 5P4         0.0962
     49 H23         2.9188   28.5971   53.3991 H         1 5P4         0.0343
     50 H24         2.3759   26.1617   52.2792 H         1 5P4         0.0335
@<TRIPOS>BOND
     1   15    1 2  
     2    2    3 1  
     3    2   14 1  
     4   20    2 1  
     5    3    4 1  
     6    4    5 1  
     7    4    6 1  
     8    5    7 am 
     9    9    5 1  
    10    7    8 1  
    11    7   21 2  
    12    9   10 ar 
    13   14    9 ar 
    14   10   11 ar 
    15   12   11 ar 
    16   13   12 ar 
    17   12   22 1  
    18   14   13 ar 
    19   15   16 1  
    20   15   20 am 
    21   16   17 1  
    22   17   18 1  
    23   17   19 1  
    24   22   23 1  
    25   22   26 2  
    26   23   24 1  
    27   24   25 2  
    28   25   26 1  
    29    2   27 1  
    30    3   28 1  
    31    3   29 1  
    32    4   30 1  
    33    6   31 1  
    34    6   32 1  
    35    6   33 1  
    36    8   34 1  
    37    8   35 1  
    38    8   36 1  
    39   10   37 1  
    40   11   38 1  
    41   13   39 1  
    42   17   40 1  
    43   18   41 1  
    44   18   42 1  
    45   18   43 1  
    46   19   44 1  
    47   19   45 1  
    48   19   46 1  
    49   20   47 1  
    50   24   48 1  
    51   25   49 1  
    52   26   50 1  
@<TRIPOS>SUBSTRUCTURE
     1 5P4         1

