### 
### Created by X-TOOL on Mon Sep 10 21:13:25 2018
### 

@<TRIPOS>MOLECULE
5ekh_ligand
   35    35     1     0     0
SMALL
GAST_HUCK


@<TRIPOS>ATOM
      1 C11        -0.0640    5.4560   83.4630 C.3       1 5RD         0.0001
      2 C13         1.6440    7.0900   83.3020 C.3       1 5RD        -0.0323
      3 C14         2.3070    7.9010   84.4040 C.3       1 5RD        -0.0128
      4 C15         2.5600    9.3350   83.9080 C.3       1 5RD        -0.0511
      5 C16         3.4170   10.0840   84.9130 C.3       1 5RD        -0.0651
      6 C01        -1.5330    2.1340   85.8310 C.ar      1 5RD         0.1009
      7 C02        -2.3950    3.1670   85.4390 C.ar      1 5RD        -0.0418
      8 C03        -1.8940    4.2350   84.6840 C.ar      1 5RD        -0.0534
      9 C04        -0.5570    4.2690   84.3050 C.ar      1 5RD         0.0014
     10 C05         0.3080    3.2220   84.6930 C.ar      1 5RD        -0.0534
     11 C06        -0.1790    2.1530   85.4520 C.ar      1 5RD        -0.0418
     12 S07        -2.1750    0.7760   86.8040 S.o2      1 5RD         0.0628
     13 O08        -3.6080    0.8910   86.7530 O.2       1 5RD        -0.1514
     14 O09        -1.6600    0.9130   88.1420 O.2       1 5RD        -0.1514
     15 N10        -1.6690   -0.6070   86.1190 N.am      1 5RD        -0.2617
     16 N12         1.2960    5.7930   83.8150 N.4       1 5RD         0.2391
     17 H1         -0.7121    6.3254   83.6477 H         1 5RD         0.0980
     18 H2         -0.1064    5.1868   82.3973 H         1 5RD         0.0980
     19 H3          2.3405    6.9772   82.4581 H         1 5RD         0.0814
     20 H4          0.7349    7.6068   82.9607 H         1 5RD         0.0814
     21 H5          3.2647    7.4337   84.6769 H         1 5RD         0.0317
     22 H6          1.6485    7.9291   85.2847 H         1 5RD         0.0317
     23 H7          1.5981    9.8552   83.7891 H         1 5RD         0.0264
     24 H8          3.0800    9.2998   82.9393 H         1 5RD         0.0264
     25 H9          3.5942   11.1081   84.5526 H         1 5RD         0.0230
     26 H10         4.3798    9.5656   85.0323 H         1 5RD         0.0230
     27 H11         2.8979   10.1210   85.8821 H         1 5RD         0.0230
     28 H12        -3.4421    3.1397   85.7181 H         1 5RD         0.0619
     29 H13        -2.5553    5.0429   84.3924 H         1 5RD         0.0559
     30 H14         1.3519    3.2471   84.4018 H         1 5RD         0.0559
     31 H15         0.4820    1.3456   85.7457 H         1 5RD         0.0619
     32 H16        -1.9259   -1.4865   86.5195 H         1 5RD         0.1634
     33 H17        -1.1006   -0.5790   85.2967 H         1 5RD         0.1634
     34 H18         1.9198    5.1040   83.4248 H         1 5RD         0.2028
     35 H19         1.3869    5.7984   84.8189 H         1 5RD         0.2028
@<TRIPOS>BOND
     1    9    1 1  
     2    1   16 1  
     3    2    3 1  
     4   16    2 1  
     5    3    4 1  
     6    4    5 1  
     7    7    6 ar 
     8    6   11 ar 
     9    6   12 1  
    10    8    7 ar 
    11    8    9 ar 
    12    9   10 ar 
    13   10   11 ar 
    14   12   13 2  
    15   12   14 2  
    16   12   15 am 
    17    1   17 1  
    18    1   18 1  
    19    2   19 1  
    20    2   20 1  
    21    3   21 1  
    22    3   22 1  
    23    4   23 1  
    24    4   24 1  
    25    5   25 1  
    26    5   26 1  
    27    5   27 1  
    28    7   28 1  
    29    8   29 1  
    30   10   30 1  
    31   11   31 1  
    32   15   32 1  
    33   15   33 1  
    34   16   34 1  
    35   16   35 1  
@<TRIPOS>SUBSTRUCTURE
     1 5RD         1

