### 
### Created by X-TOOL on Mon Sep 10 21:13:25 2018
### 

@<TRIPOS>MOLECULE
5ekj_ligand
   45    45     1     0     0
SMALL
GAST_HUCK


@<TRIPOS>ATOM
      1 C01         2.1860    8.2880   83.7390 C.2       1 TG4         0.2216
      2 O02         2.6160    8.2880   84.8870 O.2       1 TG4        -0.3912
      3 N03         3.0280   10.5770   83.3250 N.4       1 TG4         0.2440
      4 C04         2.6580    9.2780   82.7060 C.3       1 TG4         0.0561
      5 S05        -2.3590    0.7730   86.7660 S.o2      1 TG4         0.0628
      6 C06         0.1440    3.1490   84.6970 C.ar      1 TG4        -0.0584
      7 C07        -0.6990    4.2060   84.3140 C.ar      1 TG4        -0.0410
      8 C08        -2.0430    4.1990   84.6870 C.ar      1 TG4        -0.0584
      9 C09        -2.5380    3.1850   85.4040 C.ar      1 TG4        -0.0419
     10 C10        -1.6920    2.1090   85.8040 C.ar      1 TG4         0.1009
     11 C11        -0.3640    2.1120   85.4370 C.ar      1 TG4        -0.0419
     12 C12        -0.1550    5.3590   83.4570 C.3       1 TG4         0.0011
     13 C13         0.6910    6.3190   84.2930 C.3       1 TG4         0.0406
     14 N14         1.1850    7.3110   83.3380 N.am      1 TG4        -0.2806
     15 O15        -1.8240    0.9310   88.1000 O.2       1 TG4        -0.1514
     16 O16        -3.8060    0.8770   86.6730 O.2       1 TG4        -0.1514
     17 N17        -1.8490   -0.6120   86.1200 N.am      1 TG4        -0.2617
     18 C18         3.2790   11.5300   82.3000 C.3       1 TG4        -0.0319
     19 C19         3.7460   12.8880   82.9220 C.3       1 TG4        -0.0128
     20 C20         2.7350   13.9810   82.5920 C.3       1 TG4        -0.0511
     21 C21         3.3100   15.3520   82.9800 C.3       1 TG4        -0.0651
     22 H1          3.8573   10.4590   83.8857 H         1 TG4         0.2032
     23 H2          2.2716   10.9002   83.9076 H         1 TG4         0.2032
     24 H3          1.8512    9.4463   81.9775 H         1 TG4         0.1062
     25 H4          3.5373    8.8646   82.1904 H         1 TG4         0.1062
     26 H5          1.1892    3.1532   84.4094 H         1 TG4         0.0557
     27 H6         -2.6887    5.0190   84.3943 H         1 TG4         0.0557
     28 H7         -3.5857    3.1807   85.6822 H         1 TG4         0.0619
     29 H8          0.2809    1.2928   85.7338 H         1 TG4         0.0619
     30 H9         -1.0003    5.9121   83.0217 H         1 TG4         0.0446
     31 H10         0.4662    4.9437   82.6497 H         1 TG4         0.0446
     32 H11         1.5289    5.7857   84.7658 H         1 TG4         0.0542
     33 H12         0.0779    6.8003   85.0692 H         1 TG4         0.0542
     34 H13         0.8320    7.3177   82.4024 H         1 TG4         0.1854
     35 H14        -2.1224   -1.4838   86.5264 H         1 TG4         0.1634
     36 H15        -1.2590   -0.5998   85.3126 H         1 TG4         0.1634
     37 H16         2.3569   11.6935   81.7230 H         1 TG4         0.0814
     38 H17         4.0656   11.1469   81.6333 H         1 TG4         0.0814
     39 H18         4.7277   13.1612   82.5077 H         1 TG4         0.0317
     40 H19         3.8256   12.7816   84.0139 H         1 TG4         0.0317
     41 H20         1.8063   13.8018   83.1535 H         1 TG4         0.0264
     42 H21         2.5199   13.9667   81.5133 H         1 TG4         0.0264
     43 H22         2.5782   16.1376   82.7406 H         1 TG4         0.0230
     44 H23         4.2385   15.5325   82.4185 H         1 TG4         0.0230
     45 H24         3.5249   15.3676   84.0587 H         1 TG4         0.0230
@<TRIPOS>BOND
     1    1    2 2  
     2    1    4 1  
     3   14    1 am 
     4    4    3 1  
     5    3   18 1  
     6   10    5 1  
     7    5   15 2  
     8    5   16 2  
     9    5   17 am 
    10    7    6 ar 
    11    6   11 ar 
    12    7    8 ar 
    13   12    7 1  
    14    8    9 ar 
    15    9   10 ar 
    16   11   10 ar 
    17   13   12 1  
    18   13   14 1  
    19   18   19 1  
    20   19   20 1  
    21   20   21 1  
    22    3   22 1  
    23    3   23 1  
    24    4   24 1  
    25    4   25 1  
    26    6   26 1  
    27    8   27 1  
    28    9   28 1  
    29   11   29 1  
    30   12   30 1  
    31   12   31 1  
    32   13   32 1  
    33   13   33 1  
    34   14   34 1  
    35   17   35 1  
    36   17   36 1  
    37   18   37 1  
    38   18   38 1  
    39   19   39 1  
    40   19   40 1  
    41   20   41 1  
    42   20   42 1  
    43   21   43 1  
    44   21   44 1  
    45   21   45 1  
@<TRIPOS>SUBSTRUCTURE
     1 TG4         1

