### 
### Created by X-TOOL on Mon Sep 10 21:13:26 2018
### 

@<TRIPOS>MOLECULE
5ekm_ligand
   39    39     1     0     0
SMALL
GAST_HUCK


@<TRIPOS>ATOM
      1 C01         0.5110    2.9560   84.6410 C.ar      1 TG5        -0.0394
      2 C02        -0.2570    3.9670   84.0660 C.ar      1 TG5         0.0665
      3 C03        -1.6420    3.9730   84.2780 C.ar      1 TG5        -0.0394
      4 C04        -2.2590    3.0000   85.0330 C.ar      1 TG5        -0.0490
      5 C05        -1.4800    2.0040   85.6110 C.ar      1 TG5         0.0924
      6 C06        -0.0930    1.9790   85.4020 C.ar      1 TG5        -0.0490
      7 N07         0.4280    4.9380   83.2940 N.am      1 TG5        -0.2295
      8 C08        -0.0680    6.0820   82.5770 C.2       1 TG5         0.2491
      9 O09         0.7420    6.7710   81.9750 O.2       1 TG5        -0.3789
     10 N10        -1.7540    7.3600   81.3370 N.4       1 TG5         0.2444
     11 C11        -1.5480    6.4960   82.4920 C.3       1 TG5         0.0621
     12 S12        -2.2650    0.7390   86.5870 S.o2      1 TG5         0.0591
     13 O13        -3.6850    0.8860   86.4540 O.2       1 TG5        -0.1524
     14 O14        -1.9090    0.9270   87.9650 O.2       1 TG5        -0.1524
     15 N15        -1.7320   -0.6880   86.0060 N.am      1 TG5        -0.2626
     16 C16        -2.9920    6.9900   80.6960 C.3       1 TG5        -0.0319
     17 C17        -3.1760    7.8530   79.4440 C.3       1 TG5        -0.0128
     18 C18        -4.4190    7.3700   78.6540 C.3       1 TG5        -0.0511
     19 C19        -4.9480    8.5120   77.7940 C.3       1 TG5        -0.0651
     20 H1          1.5842    2.9383   84.4894 H         1 TG5         0.0503
     21 H2         -2.2417    4.7614   83.8378 H         1 TG5         0.0503
     22 H3         -3.3337    3.0107   85.1741 H         1 TG5         0.0596
     23 H4          0.5054    1.1886   85.8406 H         1 TG5         0.0596
     24 H5          1.4178    4.8064   83.2387 H         1 TG5         0.2259
     25 H6         -0.9901    7.2476   80.6891 H         1 TG5         0.2032
     26 H7         -1.8017    8.3212   81.6369 H         1 TG5         0.2032
     27 H8         -1.8288    7.0373   83.4075 H         1 TG5         0.1067
     28 H9         -2.1734    5.5967   82.3913 H         1 TG5         0.1067
     29 H10        -2.0500   -1.5440   86.4136 H         1 TG5         0.1633
     30 H11        -1.0871   -0.7073   85.2420 H         1 TG5         0.1633
     31 H12        -3.8310    7.1578   81.3873 H         1 TG5         0.0814
     32 H13        -2.9581    5.9280   80.4114 H         1 TG5         0.0814
     33 H14        -2.2829    7.7687   78.8074 H         1 TG5         0.0317
     34 H15        -3.3169    8.9027   79.7410 H         1 TG5         0.0317
     35 H16        -5.2001    7.0494   79.3590 H         1 TG5         0.0264
     36 H17        -4.1380    6.5246   78.0088 H         1 TG5         0.0264
     37 H18        -5.8302    8.1702   77.2329 H         1 TG5         0.0230
     38 H19        -4.1668    8.8325   77.0891 H         1 TG5         0.0230
     39 H20        -5.2289    9.3574   78.4393 H         1 TG5         0.0230
@<TRIPOS>BOND
     1    1    2 ar 
     2    1    6 ar 
     3    2    3 ar 
     4    2    7 1  
     5    3    4 ar 
     6    4    5 ar 
     7    5    6 ar 
     8    5   12 1  
     9    7    8 am 
    10    8    9 2  
    11    8   11 1  
    12   11   10 1  
    13   10   16 1  
    14   12   13 2  
    15   12   14 2  
    16   12   15 am 
    17   16   17 1  
    18   17   18 1  
    19   18   19 1  
    20    1   20 1  
    21    3   21 1  
    22    4   22 1  
    23    6   23 1  
    24    7   24 1  
    25   10   25 1  
    26   10   26 1  
    27   11   27 1  
    28   11   28 1  
    29   15   29 1  
    30   15   30 1  
    31   16   31 1  
    32   16   32 1  
    33   17   33 1  
    34   17   34 1  
    35   18   35 1  
    36   18   36 1  
    37   19   37 1  
    38   19   38 1  
    39   19   39 1  
@<TRIPOS>SUBSTRUCTURE
     1 TG5         1

