### 
### Created by X-TOOL on Mon Sep 10 21:13:29 2018
### 

@<TRIPOS>MOLECULE
5ekn_ligand
   50    52     1     0     0
SMALL
GAST_HUCK


@<TRIPOS>ATOM
      1 O1        -13.2500   12.0370  -26.3670 O.2       1 N58        -0.3796
      2 C9        -14.3090   11.4290  -26.4540 C.2       1 N58         0.3210
      3 N3        -15.2570   11.6730  -25.3710 N.am      1 N58        -0.1823
      4 C8        -15.0510   12.5400  -24.2230 C.2       1 N58         0.2022
      5 C7        -14.5850   13.8720  -24.1110 C.2       1 N58        -0.0216
      6 C2        -14.5630   14.2590  -22.7280 C.2       1 N58         0.0006
      7 C3        -14.1360   15.6140  -22.1310 C.3       1 N58        -0.0412
      8 C6        -12.7110   15.9940  -22.5520 C.3       1 N58        -0.0827
      9 C5        -14.1330   15.6130  -20.5930 C.3       1 N58        -0.0827
     10 C4        -15.0390   16.7750  -22.5760 C.3       1 N58        -0.0827
     11 N2        -15.0130   13.1830  -21.9990 N.2       1 N58        -0.1752
     12 N1        -15.3000   12.1690  -22.8950 N.pl3     1 N58        -0.1523
     13 C1        -15.8120   10.8440  -22.4810 C.3       1 N58         0.0718
     14 N4        -14.5300   10.5440  -27.5880 N.am      1 N58        -0.2172
     15 C10       -13.6310   10.2480  -28.7210 C.ar      1 N58         0.0611
     16 C20       -12.2370   10.4220  -28.6940 C.ar      1 N58        -0.0462
     17 C19       -11.3830   10.1360  -29.7750 C.ar      1 N58        -0.0603
     18 C13       -11.8480    9.6360  -30.9800 C.ar      1 N58         0.0175
     19 C12       -13.2240    9.4510  -31.0580 C.ar      1 N58        -0.0603
     20 C11       -14.0790    9.7370  -29.9760 C.ar      1 N58        -0.0462
     21 S         -10.7690    9.2870  -32.3600 S.3       1 N58        -0.0431
     22 C14       -10.5460   10.7720  -33.3400 C.ar      1 N58         0.0476
     23 C18        -9.6480   10.8260  -34.4060 C.ar      1 N58        -0.0201
     24 C17        -9.5250   12.0270  -35.1260 C.ar      1 N58         0.0040
     25 N5        -10.2340   13.1460  -34.8420 N.ar      1 N58        -0.3066
     26 C16       -11.0980   13.0750  -33.8040 C.ar      1 N58         0.0040
     27 C15       -11.2840   11.9190  -33.0350 C.ar      1 N58        -0.0201
     28 H1        -16.1346   11.1966  -25.4243 H         1 N58         0.2336
     29 H2        -14.2887   14.5060  -24.9454 H         1 N58         0.0214
     30 H3        -12.4437   16.9640  -22.1074 H         1 N58         0.0142
     31 H4        -12.6596   16.0667  -23.6484 H         1 N58         0.0142
     32 H5        -12.0076   15.2240  -22.2022 H         1 N58         0.0142
     33 H6        -15.1345   15.3459  -20.2246 H         1 N58         0.0142
     34 H7        -13.8624   16.6141  -20.2262 H         1 N58         0.0142
     35 H8        -13.4001   14.8783  -20.2282 H         1 N58         0.0142
     36 H9        -15.0710   16.8142  -23.6748 H         1 N58         0.0142
     37 H10       -14.6370   17.7221  -22.1869 H         1 N58         0.0142
     38 H11       -16.0553   16.6198  -22.1849 H         1 N58         0.0142
     39 H12       -15.9170   10.8172  -21.3864 H         1 N58         0.0621
     40 H13       -15.1074   10.0623  -22.8009 H         1 N58         0.0621
     41 H14       -16.7923   10.6675  -22.9478 H         1 N58         0.0621
     42 H15       -15.4114   10.0718  -27.6016 H         1 N58         0.2242
     43 H16       -11.7908   10.8010  -27.7817 H         1 N58         0.0487
     44 H17       -10.3199   10.3139  -29.6603 H         1 N58         0.0533
     45 H18       -13.6519    9.0750  -31.9803 H         1 N58         0.0533
     46 H19       -15.1405    9.5584  -30.1040 H         1 N58         0.0487
     47 H20        -9.0562    9.9583  -34.6741 H         1 N58         0.0662
     48 H21        -8.8251   12.0596  -35.9531 H         1 N58         0.0803
     49 H22       -11.6760   13.9575  -33.5544 H         1 N58         0.0803
     50 H23       -11.9914   11.9141  -32.2137 H         1 N58         0.0662
@<TRIPOS>BOND
     1    1    2 2  
     2    2    3 am 
     3    2   14 am 
     4    3    4 1  
     5    4    5 2  
     6    4   12 1  
     7    5    6 1  
     8    6    7 1  
     9    6   11 2  
    10    7    8 1  
    11    7    9 1  
    12    7   10 1  
    13   11   12 1  
    14   12   13 1  
    15   14   15 1  
    16   15   16 ar 
    17   15   20 ar 
    18   16   17 ar 
    19   17   18 ar 
    20   18   19 ar 
    21   18   21 1  
    22   19   20 ar 
    23   21   22 1  
    24   22   23 ar 
    25   22   27 ar 
    26   23   24 ar 
    27   24   25 ar 
    28   25   26 ar 
    29   26   27 ar 
    30    3   28 1  
    31    5   29 1  
    32    8   30 1  
    33    8   31 1  
    34    8   32 1  
    35    9   33 1  
    36    9   34 1  
    37    9   35 1  
    38   10   36 1  
    39   10   37 1  
    40   10   38 1  
    41   13   39 1  
    42   13   40 1  
    43   13   41 1  
    44   14   42 1  
    45   16   43 1  
    46   17   44 1  
    47   19   45 1  
    48   20   46 1  
    49   23   47 1  
    50   24   48 1  
    51   26   49 1  
    52   27   50 1  
@<TRIPOS>SUBSTRUCTURE
     1 N58         1

