### 
### Created by X-TOOL on Mon Sep 10 21:13:29 2018
### 

@<TRIPOS>MOLECULE
5eko_ligand
   46    49     1     0     0
SMALL
GAST_HUCK


@<TRIPOS>ATOM
      1 O1        -13.1760   12.4390  -26.4470 O.2       1 N17        -0.3743
      2 C9        -13.9890   11.5510  -26.2600 C.2       1 N17         0.2282
      3 C8        -14.7970   11.6150  -24.9930 C.ar      1 N17         0.0512
      4 C7        -15.1650   12.8490  -24.4820 C.ar      1 N17        -0.0487
      5 C6        -15.9120   12.9100  -23.3160 C.ar      1 N17        -0.0605
      6 C5        -16.2840   11.7410  -22.6680 C.ar      1 N17        -0.0229
      7 C21       -15.1910   10.4580  -24.3300 C.ar      1 N17        -0.0071
      8 C4        -15.9400   10.4770  -23.1450 C.ar      1 N17         0.1012
      9 N1        -16.3010    9.3490  -22.5260 N.pl3     1 N17        -0.2178
     10 C3        -15.9470    8.1660  -23.0150 C.2       1 N17         0.0458
     11 C22       -17.0270    9.3230  -21.4020 C.2       1 N17         0.1080
     12 N4        -17.1590    8.0020  -21.1080 N.2       1 N17        -0.3221
     13 C2        -16.5120    7.3190  -22.0820 C.2       1 N17        -0.0067
     14 C1        -16.2800    5.8610  -22.3650 C.3       1 N17        -0.0375
     15 N2        -14.1980   10.5490  -27.1220 N.am      1 N17        -0.2387
     16 C10       -13.5370   10.3660  -28.3020 C.ar      1 N17         0.0566
     17 C20       -12.1790   10.6470  -28.4470 C.ar      1 N17        -0.0475
     18 C19       -11.5250   10.4310  -29.6580 C.ar      1 N17        -0.0402
     19 C13       -12.2250    9.9140  -30.7410 C.ar      1 N17         0.1049
     20 C12       -13.5690    9.5960  -30.5980 C.ar      1 N17        -0.0402
     21 C11       -14.2190    9.8220  -29.3870 C.ar      1 N17        -0.0475
     22 O2        -11.5920    9.6740  -31.9310 O.3       1 N17        -0.2572
     23 C14       -11.1440   10.6670  -32.7590 C.ar      1 N17         0.1329
     24 C18       -11.7210   11.9330  -32.7530 C.ar      1 N17        -0.0015
     25 C17       -11.2260   12.9070  -33.6120 C.ar      1 N17         0.0004
     26 N3        -10.2130   12.6260  -34.4470 N.ar      1 N17        -0.3127
     27 C16        -9.6440   11.4170  -34.4770 C.ar      1 N17         0.0004
     28 C15       -10.0940   10.4030  -33.6320 C.ar      1 N17        -0.0015
     29 H1        -14.8709   13.7602  -24.9903 H         1 N17         0.0607
     30 H2        -16.2056   13.8714  -22.9103 H         1 N17         0.0611
     31 H3        -16.8646   11.8133  -21.7555 H         1 N17         0.0619
     32 H4        -14.9065    9.4991  -24.7478 H         1 N17         0.0634
     33 H5        -15.3694    7.9289  -23.9073 H         1 N17         0.0742
     34 H6        -17.4239   10.1713  -20.8463 H         1 N17         0.1222
     35 H7        -16.7582    5.2548  -21.5815 H         1 N17         0.0340
     36 H8        -15.1991    5.6574  -22.3776 H         1 N17         0.0340
     37 H9        -16.7130    5.6038  -23.3429 H         1 N17         0.0340
     38 H10       -14.8982    9.8770  -26.8810 H         1 N17         0.2221
     39 H11       -11.6229   11.0400  -27.6036 H         1 N17         0.0482
     40 H12       -10.4712   10.6660  -29.7551 H         1 N17         0.0521
     41 H13       -14.1146    9.1701  -31.4322 H         1 N17         0.0521
     42 H14       -15.2689    9.5712  -29.2881 H         1 N17         0.0482
     43 H15       -12.5462   12.1569  -32.0867 H         1 N17         0.0643
     44 H16       -11.6607   13.9000  -33.6077 H         1 N17         0.0789
     45 H17        -8.8272   11.2233  -35.1628 H         1 N17         0.0789
     46 H18        -9.6319    9.4227  -33.6553 H         1 N17         0.0643
@<TRIPOS>BOND
     1    1    2 2  
     2    2    3 1  
     3    2   15 am 
     4    3    4 ar 
     5    3    7 ar 
     6    4    5 ar 
     7    5    6 ar 
     8    6    8 ar 
     9    7    8 ar 
    10    8    9 1  
    11    9   10 1  
    12    9   11 1  
    13   10   13 2  
    14   11   12 2  
    15   12   13 1  
    16   13   14 1  
    17   15   16 1  
    18   16   17 ar 
    19   16   21 ar 
    20   17   18 ar 
    21   18   19 ar 
    22   19   20 ar 
    23   19   22 1  
    24   20   21 ar 
    25   22   23 1  
    26   23   24 ar 
    27   23   28 ar 
    28   24   25 ar 
    29   25   26 ar 
    30   26   27 ar 
    31   27   28 ar 
    32    4   29 1  
    33    5   30 1  
    34    6   31 1  
    35    7   32 1  
    36   10   33 1  
    37   11   34 1  
    38   14   35 1  
    39   14   36 1  
    40   14   37 1  
    41   15   38 1  
    42   17   39 1  
    43   18   40 1  
    44   20   41 1  
    45   21   42 1  
    46   24   43 1  
    47   25   44 1  
    48   27   45 1  
    49   28   46 1  
@<TRIPOS>SUBSTRUCTURE
     1 N17         1

