### 
### Created by X-TOOL on Mon Sep 10 21:13:28 2018
### 

@<TRIPOS>MOLECULE
5ekx_ligand
   19    19     1     0     0
SMALL
GAST_HUCK


@<TRIPOS>ATOM
      1 NAB       -36.6440  -48.6490  -14.7160 N.pl3     1 2CQ        -0.3426
      2 CAH       -38.0060  -49.0620  -14.7110 C.ar      1 2CQ         0.0486
      3 CAE       -38.4860  -49.8380  -15.8030 C.ar      1 2CQ        -0.0534
      4 CAG       -39.8510  -50.2100  -15.8470 C.ar      1 2CQ        -0.0567
      5 CAA       -40.3930  -50.9520  -17.0130 C.3       1 2CQ        -0.0395
      6 CAJ       -40.6900  -49.8230  -14.8060 C.ar      1 2CQ         0.0153
      7 CL        -42.3830  -50.2270  -14.8850 Cl        1 2CQ        -0.0926
      8 CAF       -40.2700  -49.0880  -13.7060 C.ar      1 2CQ        -0.0484
      9 CAI       -38.9190  -48.6910  -13.6480 C.ar      1 2CQ         0.0482
     10 NAC       -38.4800  -47.9380  -12.5360 N.pl3     1 2CQ        -0.3453
     11 H1        -36.0231  -48.9312  -15.4878 H         1 2CQ         0.1682
     12 H2        -36.2792  -48.0679  -13.9478 H         1 2CQ         0.1682
     13 H3        -37.8114  -50.1419  -16.5952 H         1 2CQ         0.0417
     14 H4        -39.5796  -51.1653  -17.7222 H         1 2CQ         0.0367
     15 H5        -41.1623  -50.3428  -17.5099 H         1 2CQ         0.0367
     16 H6        -40.8386  -51.8977  -16.6709 H         1 2CQ         0.0367
     17 H7        -40.9619  -48.8266  -12.9136 H         1 2CQ         0.0462
     18 H8        -37.4968  -47.6374  -12.4733 H         1 2CQ         0.1660
     19 H9        -39.1431  -47.6897  -11.7880 H         1 2CQ         0.1660
@<TRIPOS>BOND
     1    1    2 1  
     2    2    3 ar 
     3    2    9 ar 
     4    3    4 ar 
     5    4    5 1  
     6    4    6 ar 
     7    6    7 1  
     8    6    8 ar 
     9    8    9 ar 
    10    9   10 1  
    11    1   11 1  
    12    1   12 1  
    13    3   13 1  
    14    5   14 1  
    15    5   15 1  
    16    5   16 1  
    17    8   17 1  
    18   10   18 1  
    19   10   19 1  
@<TRIPOS>SUBSTRUCTURE
     1 2CQ         1

