### 
### Created by X-TOOL on Mon Sep 10 21:13:27 2018
### 

@<TRIPOS>MOLECULE
5el2_ligand
   39    39     1     0     0
SMALL
GAST_HUCK


@<TRIPOS>ATOM
      1 C4          2.2700   -2.0230  -38.2150 C.3       1 KBR        -0.0296
      2 C5          1.7520   -2.5430  -36.8780 C.3       1 KBR         0.0490
      3 C6          2.7730   -2.1540  -34.6500 C.2       1 KBR         0.3226
      4 C11         1.1440   -3.9030  -37.1200 C.3       1 KBR        -0.0064
      5 C7          3.8620   -1.7130  -32.5100 C.3       1 KBR         0.0851
      6 C8          2.8430   -2.3300  -31.5610 C.3       1 KBR        -0.0254
      7 C9          3.2070   -2.0570  -30.1010 C.3       1 KBR        -0.0626
      8 C10         5.2880   -1.9350  -31.9960 C.3       1 KBR        -0.0344
      9 C12        -0.3040   -3.5990  -37.2440 C.3       1 KBR         0.0463
     10 N1          2.8350   -2.6970  -35.8780 N.am      1 KBR        -0.2458
     11 C3          3.5940   -2.7310  -38.5720 C.3       1 KBR        -0.0492
     12 O2          3.8070   -2.3500  -33.7940 O.3       1 KBR        -0.2608
     13 O1          1.7780   -1.5260  -34.2980 O.2       1 KBR        -0.3774
     14 C1          4.0520   -3.3820  -36.3450 C.3       1 KBR         0.0361
     15 C2          4.5550   -2.5060  -37.4290 C.3       1 KBR        -0.0325
     16 O3         -0.9450   -4.8790  -37.3400 O.3       1 KBR        -0.3949
     17 H1          2.4430   -0.9391  -38.1433 H         1 KBR         0.0287
     18 H2          1.5250   -2.2244  -38.9989 H         1 KBR         0.0287
     19 H3          0.9919   -1.8506  -36.4870 H         1 KBR         0.0558
     20 H4          1.3358   -4.5790  -36.2737 H         1 KBR         0.0309
     21 H5          1.5349   -4.3529  -38.0445 H         1 KBR         0.0309
     22 H6          3.6580   -0.6368  -32.6105 H         1 KBR         0.0644
     23 H7          2.8126   -3.4172  -31.7254 H         1 KBR         0.0291
     24 H8          1.8524   -1.8997  -31.7698 H         1 KBR         0.0291
     25 H9          2.4532   -2.5147  -29.4435 H         1 KBR         0.0231
     26 H10         3.2347   -0.9712  -29.9268 H         1 KBR         0.0231
     27 H11         4.1948   -2.4887  -29.8825 H         1 KBR         0.0231
     28 H12         6.0049   -1.4816  -32.6964 H         1 KBR         0.0258
     29 H13         5.4854   -3.0142  -31.9167 H         1 KBR         0.0258
     30 H14         5.3977   -1.4685  -31.0059 H         1 KBR         0.0258
     31 H15        -0.4976   -3.0010  -38.1467 H         1 KBR         0.0558
     32 H16        -0.6617   -3.0529  -36.3586 H         1 KBR         0.0558
     33 H17         4.0079   -2.3072  -39.4989 H         1 KBR         0.0267
     34 H18         3.4185   -3.8084  -38.7078 H         1 KBR         0.0267
     35 H19         3.8144   -4.3848  -36.7297 H         1 KBR         0.0522
     36 H20         4.7905   -3.4658  -35.5341 H         1 KBR         0.0522
     37 H21         4.5447   -1.4522  -37.1138 H         1 KBR         0.0285
     38 H22         5.5770   -2.7924  -37.7179 H         1 KBR         0.0285
     39 H23        -0.7581   -5.3850  -36.5580 H         1 KBR         0.2094
@<TRIPOS>BOND
     1    2    1 1  
     2    1   11 1  
     3    2    4 1  
     4   10    2 1  
     5    3   10 am 
     6   12    3 1  
     7    3   13 2  
     8    4    9 1  
     9    5    6 1  
    10    5    8 1  
    11    5   12 1  
    12    6    7 1  
    13    9   16 1  
    14   10   14 1  
    15   11   15 1  
    16   14   15 1  
    17    1   17 1  
    18    1   18 1  
    19    2   19 1  
    20    4   20 1  
    21    4   21 1  
    22    5   22 1  
    23    6   23 1  
    24    6   24 1  
    25    7   25 1  
    26    7   26 1  
    27    7   27 1  
    28    8   28 1  
    29    8   29 1  
    30    8   30 1  
    31    9   31 1  
    32    9   32 1  
    33   11   33 1  
    34   11   34 1  
    35   14   35 1  
    36   14   36 1  
    37   15   37 1  
    38   15   38 1  
    39   16   39 1  
@<TRIPOS>SUBSTRUCTURE
     1 KBR         1

