### 
### Created by X-TOOL on Mon Sep 10 21:13:27 2018
### 

@<TRIPOS>MOLECULE
5eld_ligand
  118   122     1     0     0
SMALL
GAST_HUCK


@<TRIPOS>ATOM
      1 C1         -5.9450   -5.3450  -32.2180 C.3       1 NDG         0.1823
      2 C2         -4.9240   -6.4630  -32.1670 C.3       1 NDG         0.1211
      3 C3         -3.8340   -6.1840  -31.1330 C.3       1 NDG         0.1179
      4 C4         -3.2540   -4.7450  -31.3030 C.3       1 NDG         0.1185
      5 C5         -4.3880   -3.7370  -31.3530 C.3       1 NDG         0.1134
      6 C6         -3.9150   -2.2900  -31.4730 C.3       1 NDG         0.0730
      7 C7         -5.7070   -8.6900  -32.8070 C.2       1 NDG         0.1733
      8 C8         -6.4290   -9.9940  -32.4160 C.3       1 NDG         0.0257
      9 O          -5.2360   -4.1320  -32.4510 O.3       1 NDG        -0.3409
     10 O3         -2.7930   -7.1540  -31.3030 O.3       1 NDG        -0.3403
     11 O4         -2.3840   -4.4020  -30.2160 O.3       1 NDG        -0.3401
     12 O6         -3.3470   -2.1350  -32.7930 O.3       1 NDG        -0.3924
     13 O7         -5.1930   -8.5940  -33.9240 O.2       1 NDG        -0.3974
     14 N2         -5.6360   -7.7280  -31.8820 N.am      1 NDG        -0.2766
     15 O1L        -6.7220   -5.3640  -31.0140 O.3       1 NDG        -0.3651
     16 C1         -1.1130   -3.8610  -30.6480 C.3       1 GAL         0.1888
     17 C2         -0.5440   -3.1090  -29.4680 C.3       1 GAL         0.1410
     18 C3          0.8610   -2.6190  -29.8280 C.3       1 GAL         0.1209
     19 C4          1.7050   -3.8270  -30.2850 C.3       1 GAL         0.1123
     20 C5          0.9670   -4.5200  -31.4670 C.3       1 GAL         0.1130
     21 C6          1.6960   -5.7100  -32.0560 C.3       1 GAL         0.0730
     22 O2         -1.3940   -1.9880  -29.1950 O.3       1 GAL        -0.3378
     23 O3          1.3600   -1.8980  -28.6960 O.3       1 GAL        -0.3403
     24 O4          1.9390   -4.7600  -29.1870 O.3       1 GAL        -0.3865
     25 O5         -0.3290   -4.9400  -31.0520 O.3       1 GAL        -0.3405
     26 O6          0.9880   -6.0950  -33.2710 O.3       1 GAL        -0.3924
     27 O           2.7310   -0.5810  -30.0260 O.3       1 A2G        -0.3408
     28 C1          2.7050   -1.5130  -28.9190 C.3       1 A2G         0.1854
     29 C2          3.2790   -0.8630  -27.7160 C.3       1 A2G         0.1210
     30 N2          3.1730   -1.7330  -26.5390 N.am      1 A2G        -0.2766
     31 C3          2.5770    0.4000  -27.4010 C.3       1 A2G         0.1111
     32 O3          3.2470    1.0050  -26.2720 O.3       1 A2G        -0.3867
     33 C4          2.5870    1.3230  -28.6440 C.3       1 A2G         0.1116
     34 O4          3.9710    1.6230  -28.9410 O.3       1 A2G        -0.3865
     35 C5          1.9250    0.5260  -29.7750 C.3       1 A2G         0.1130
     36 C6          1.6990    1.3090  -31.0790 C.3       1 A2G         0.0730
     37 O6          1.7350    0.3140  -32.1710 O.3       1 A2G        -0.3924
     38 C7          4.2830   -2.1520  -25.9320 C.2       1 A2G         0.1733
     39 O7          5.4250   -1.9530  -26.3410 O.2       1 A2G        -0.3974
     40 C8          4.0900   -2.9120  -24.6400 C.3       1 A2G         0.0257
     41 C1         -1.4390   -1.4960  -27.8640 C.3       1 FUC         0.1884
     42 C2         -2.0700   -0.1460  -27.8520 C.3       1 FUC         0.1341
     43 C3         -3.5340   -0.2160  -28.3300 C.3       1 FUC         0.1140
     44 C4         -4.3190   -1.3460  -27.5970 C.3       1 FUC         0.1095
     45 C5         -3.5390   -2.6370  -27.7050 C.3       1 FUC         0.0873
     46 C6         -4.2780   -3.7550  -26.9560 C.3       1 FUC        -0.0361
     47 O2         -1.3290    0.7040  -28.7790 O.3       1 FUC        -0.3841
     48 O3         -4.1380    1.0730  -28.1290 O.3       1 FUC        -0.3864
     49 O4         -4.4960   -0.9850  -26.2060 O.3       1 FUC        -0.3866
     50 O5         -2.2600   -2.4490  -27.1160 O.3       1 FUC        -0.3431
     51 C1         -2.8980   -8.3840  -30.5310 C.3       1 FUC         0.1883
     52 C2         -1.9890   -9.4380  -31.1040 C.3       1 FUC         0.1341
     53 C3         -0.5400   -8.9710  -31.0790 C.3       1 FUC         0.1140
     54 C4         -0.1460   -8.5310  -29.6570 C.3       1 FUC         0.1095
     55 C5         -1.1370   -7.5280  -29.1270 C.3       1 FUC         0.0873
     56 C6         -0.8850   -7.2470  -27.6410 C.3       1 FUC        -0.0361
     57 O2         -2.4170   -9.7230  -32.4770 O.3       1 FUC        -0.3841
     58 O3          0.3110  -10.0400  -31.4840 O.3       1 FUC        -0.3864
     59 O4         -0.0540   -9.6900  -28.7660 O.3       1 FUC        -0.3866
     60 O5         -2.4830   -8.0330  -29.2040 O.3       1 FUC        -0.3431
     61 H1         -6.6280   -5.5125  -33.0639 H         1 NDG         0.0932
     62 H2         -4.4432   -6.5450  -33.1529 H         1 NDG         0.0633
     63 H3         -4.2606   -6.2786  -30.1235 H         1 NDG         0.0649
     64 H4         -2.6861   -4.7009  -32.2440 H         1 NDG         0.0651
     65 H5         -4.9634   -3.8152  -30.4188 H         1 NDG         0.0647
     66 H6         -3.1539   -2.0774  -30.7078 H         1 NDG         0.0584
     67 H7         -4.7651   -1.6036  -31.3454 H         1 NDG         0.0584
     68 H8         -6.8231   -9.9024  -31.3931 H         1 NDG         0.0467
     69 H9         -5.7199  -10.8337  -32.4619 H         1 NDG         0.0467
     70 H10        -7.2594  -10.1768  -33.1138 H         1 NDG         0.0467
     71 H11        -3.0413   -1.2421  -32.9021 H         1 NDG         0.2095
     72 H12        -6.0675   -7.8644  -30.9903 H         1 NDG         0.1857
     73 H13        -7.3691   -4.6691  -31.0450 H         1 NDG         0.2126
     74 H14        -1.2481   -3.1703  -31.4933 H         1 NDG         0.0938
     75 H15        -0.4961   -3.7663  -28.5873 H         1 NDG         0.0675
     76 H16         0.7976   -1.9185  -30.6737 H         1 NDG         0.0651
     77 H17         2.6804   -3.4633  -30.6403 H         1 NDG         0.0647
     78 H18         0.8527   -3.7720  -32.2654 H         1 NDG         0.0647
     79 H19         1.6948   -6.5445  -31.3393 H         1 NDG         0.0584
     80 H20         2.7335   -5.4345  -32.2963 H         1 NDG         0.0584
     81 H21         2.4727   -5.4828  -29.4954 H         1 NDG         0.2100
     82 H22         0.0923   -6.3260  -33.0545 H         1 NDG         0.2095
     83 H23         3.3026   -2.4022  -29.1684 H         1 NDG         0.0935
     84 H24         4.3399   -0.6471  -27.9107 H         1 NDG         0.0633
     85 H25         2.2754   -2.0091  -26.1953 H         1 NDG         0.1857
     86 H26         1.5333    0.1848  -27.1283 H         1 NDG         0.0645
     87 H27         3.2120    0.4129  -25.5299 H         1 NDG         0.2100
     88 H28         2.0300    2.2525  -28.4550 H         1 NDG         0.0647
     89 H29         4.4377    0.8150  -29.1197 H         1 NDG         0.2100
     90 H30         0.9422    0.1830  -29.4196 H         1 NDG         0.0647
     91 H31         2.4946    2.0558  -31.2177 H         1 NDG         0.0584
     92 H32         0.7220    1.8139  -31.0558 H         1 NDG         0.0584
     93 H33         2.5802   -0.1197  -32.1750 H         1 NDG         0.2095
     94 H34         5.0708   -3.2034  -24.2360 H         1 NDG         0.0467
     95 H35         3.4897   -3.8137  -24.8311 H         1 NDG         0.0467
     96 H36         3.5692   -2.2721  -23.9125 H         1 NDG         0.0467
     97 H37        -0.4274   -1.4383  -27.4358 H         1 NDG         0.0938
     98 H38        -2.0316    0.2731  -26.8357 H         1 NDG         0.0671
     99 H39        -3.5417   -0.4417  -29.4066 H         1 NDG         0.0648
    100 H40        -5.3048   -1.4743  -28.0678 H         1 NDG         0.0646
    101 H41        -3.4252   -2.9140  -28.7635 H         1 NDG         0.0621
    102 H42        -3.7063   -4.6912  -27.0379 H         1 NDG         0.0255
    103 H43        -5.2757   -3.8948  -27.3975 H         1 NDG         0.0255
    104 H44        -4.3813   -3.4801  -25.8959 H         1 NDG         0.0255
    105 H45        -1.3710    0.3308  -29.6517 H         1 NDG         0.2101
    106 H46        -4.1520    1.2736  -27.2006 H         1 NDG         0.2100
    107 H47        -4.9867   -0.1735  -26.1506 H         1 NDG         0.2100
    108 H48        -3.9344   -8.7524  -30.5277 H         1 NDG         0.0938
    109 H49        -2.0747  -10.3545  -30.5017 H         1 NDG         0.0671
    110 H50        -0.4199   -8.1234  -31.7698 H         1 NDG         0.0648
    111 H51         0.8426   -8.0509  -29.7031 H         1 NDG         0.0646
    112 H52        -1.0503   -6.5978  -29.7077 H         1 NDG         0.0621
    113 H53        -1.6193   -6.5133  -27.2769 H         1 NDG         0.0255
    114 H54         0.1305   -6.8449  -27.5109 H         1 NDG         0.0255
    115 H55        -0.9856   -8.1811  -27.0690 H         1 NDG         0.0255
    116 H56        -3.3218  -10.0124  -32.4718 H         1 NDG         0.2101
    117 H57         0.0738  -10.3172  -32.3611 H         1 NDG         0.2100
    118 H58        -0.9058  -10.1053  -28.6995 H         1 NDG         0.2100
@<TRIPOS>BOND
     1    2    1 1  
     2    1    9 1  
     3    1   15 1  
     4    2    3 1  
     5   14    2 1  
     6    3    4 1  
     7    3   10 1  
     8    4    5 1  
     9    4   11 1  
    10    5    6 1  
    11    9    5 1  
    12    6   12 1  
    13    7    8 1  
    14    7   13 2  
    15    7   14 am 
    16   10   51 1  
    17   11   16 1  
    18   16   17 1  
    19   16   25 1  
    20   17   18 1  
    21   17   22 1  
    22   18   19 1  
    23   18   23 1  
    24   19   20 1  
    25   19   24 1  
    26   20   21 1  
    27   20   25 1  
    28   21   26 1  
    29   22   41 1  
    30   23   28 1  
    31   28   27 1  
    32   27   35 1  
    33   28   29 1  
    34   29   30 1  
    35   29   31 1  
    36   30   38 am 
    37   31   32 1  
    38   31   33 1  
    39   33   34 1  
    40   33   35 1  
    41   35   36 1  
    42   36   37 1  
    43   38   39 2  
    44   38   40 1  
    45   41   42 1  
    46   41   50 1  
    47   42   43 1  
    48   42   47 1  
    49   43   44 1  
    50   43   48 1  
    51   44   45 1  
    52   44   49 1  
    53   45   46 1  
    54   45   50 1  
    55   51   52 1  
    56   51   60 1  
    57   52   53 1  
    58   52   57 1  
    59   53   54 1  
    60   53   58 1  
    61   54   55 1  
    62   54   59 1  
    63   55   56 1  
    64   55   60 1  
    65    1   61 1  
    66    2   62 1  
    67    3   63 1  
    68    4   64 1  
    69    5   65 1  
    70    6   66 1  
    71    6   67 1  
    72    8   68 1  
    73    8   69 1  
    74    8   70 1  
    75   12   71 1  
    76   14   72 1  
    77   15   73 1  
    78   16   74 1  
    79   17   75 1  
    80   18   76 1  
    81   19   77 1  
    82   20   78 1  
    83   21   79 1  
    84   21   80 1  
    85   24   81 1  
    86   26   82 1  
    87   28   83 1  
    88   29   84 1  
    89   30   85 1  
    90   31   86 1  
    91   32   87 1  
    92   33   88 1  
    93   34   89 1  
    94   35   90 1  
    95   36   91 1  
    96   36   92 1  
    97   37   93 1  
    98   40   94 1  
    99   40   95 1  
   100   40   96 1  
   101   41   97 1  
   102   42   98 1  
   103   43   99 1  
   104   44  100 1  
   105   45  101 1  
   106   46  102 1  
   107   46  103 1  
   108   46  104 1  
   109   47  105 1  
   110   48  106 1  
   111   49  107 1  
   112   51  108 1  
   113   52  109 1  
   114   53  110 1  
   115   54  111 1  
   116   55  112 1  
   117   56  113 1  
   118   56  114 1  
   119   56  115 1  
   120   57  116 1  
   121   58  117 1  
   122   59  118 1  
@<TRIPOS>SUBSTRUCTURE
     1 NDG         1

