### 
### Created by X-TOOL on Mon Sep 10 21:13:28 2018
### 

@<TRIPOS>MOLECULE
5ele_ligand
  118   122     1     0     0
SMALL
GAST_HUCK


@<TRIPOS>ATOM
      1 C1         13.8840   -4.3510  -34.8000 C.3       1 NDG         0.1823
      2 C2         13.7010   -5.3100  -33.6180 C.3       1 NDG         0.1211
      3 C3         13.9630   -4.6130  -32.3050 C.3       1 NDG         0.1179
      4 C4         15.2920   -3.8880  -32.3730 C.3       1 NDG         0.1185
      5 C5         15.3970   -2.9550  -33.6060 C.3       1 NDG         0.1134
      6 C6         16.7970   -2.4080  -33.7430 C.3       1 NDG         0.0730
      7 C7         11.9370   -6.7310  -34.4600 C.2       1 NDG         0.1733
      8 C8         10.4260   -6.9520  -34.5840 C.3       1 NDG         0.0257
      9 O          15.1640   -3.7320  -34.7940 O.3       1 NDG        -0.3409
     10 O3         14.0840   -5.5950  -31.2040 O.3       1 NDG        -0.3403
     11 O4         15.3980   -3.1690  -31.1690 O.3       1 NDG        -0.3401
     12 O6         16.7100   -1.3810  -34.7410 O.3       1 NDG        -0.3924
     13 O7         12.7260   -7.4800  -35.0200 O.2       1 NDG        -0.3974
     14 N2         12.3080   -5.6890  -33.7140 N.am      1 NDG        -0.2766
     15 O1L        12.8620   -3.3180  -34.7180 O.3       1 NDG        -0.3651
     16 C1         16.6770   -3.2750  -30.5390 C.3       1 GAL         0.1888
     17 C2         16.8650   -2.0750  -29.6810 C.3       1 GAL         0.1410
     18 C3         18.1840   -2.2030  -28.9840 C.3       1 GAL         0.1209
     19 C4         18.2620   -3.4950  -28.1780 C.3       1 GAL         0.1123
     20 C5         18.0280   -4.6470  -29.1110 C.3       1 GAL         0.1130
     21 C6         18.0120   -5.9170  -28.2970 C.3       1 GAL         0.0730
     22 O2         16.9410   -0.9160  -30.5420 O.3       1 GAL        -0.3378
     23 O3         18.2900   -1.0130  -28.1250 O.3       1 GAL        -0.3403
     24 O4         17.2660   -3.4530  -27.0890 O.3       1 GAL        -0.3865
     25 O5         16.7680   -4.4970  -29.7930 O.3       1 GAL        -0.3405
     26 O6         18.0550   -6.9580  -29.2490 O.3       1 GAL        -0.3924
     27 O          20.7520   -1.2970  -28.2710 O.3       1 A2G        -0.3408
     28 C1         19.5780   -0.9060  -27.4240 C.3       1 A2G         0.1854
     29 C2         19.7510    0.5410  -26.9170 C.3       1 A2G         0.1210
     30 N2         18.5980    0.9970  -26.1170 N.am      1 A2G        -0.2766
     31 C3         19.9470    1.5130  -28.0730 C.3       1 A2G         0.1111
     32 O3         20.2370    2.8260  -27.5250 O.3       1 A2G        -0.3867
     33 C4         21.1260    1.0600  -28.9230 C.3       1 A2G         0.1116
     34 O4         22.2890    1.1370  -28.1000 O.3       1 A2G        -0.3865
     35 C5         20.9330   -0.3920  -29.4150 C.3       1 A2G         0.1130
     36 C6         22.1150   -0.8300  -30.2770 C.3       1 A2G         0.0730
     37 O6         21.8940   -0.1450  -31.5470 O.3       1 A2G        -0.3924
     38 C7         18.5770    0.9500  -24.7650 C.2       1 A2G         0.1733
     39 O7         17.6100    1.3620  -24.1140 O.2       1 A2G        -0.3974
     40 C8         19.7940    0.3130  -24.0690 C.3       1 A2G         0.0257
     41 C1         16.3080    0.3150  -30.0810 C.3       1 FUC         0.1884
     42 C2         16.7050    1.4930  -31.0270 C.3       1 FUC         0.1341
     43 C3         16.0140    1.3110  -32.4030 C.3       1 FUC         0.1140
     44 C4         14.4850    1.0930  -32.2480 C.3       1 FUC         0.1095
     45 C5         14.2350   -0.1110  -31.3450 C.3       1 FUC         0.0873
     46 C6         12.7350   -0.3320  -31.1290 C.3       1 FUC        -0.0361
     47 O2         18.1440    1.4880  -31.2190 O.3       1 FUC        -0.3841
     48 O3         16.2230    2.4650  -33.2170 O.3       1 FUC        -0.3864
     49 O4         13.9120    2.2950  -31.6850 O.3       1 FUC        -0.3866
     50 O5         14.8190    0.1210  -30.0560 O.3       1 FUC        -0.3431
     51 C1         12.8790   -5.9210  -30.4090 C.3       1 FUC         0.1883
     52 C2         13.0950   -7.3010  -29.7250 C.3       1 FUC         0.1341
     53 C3         14.2370   -7.1890  -28.7660 C.3       1 FUC         0.1140
     54 C4         13.9640   -6.0570  -27.7570 C.3       1 FUC         0.1095
     55 C5         13.6540   -4.7220  -28.4830 C.3       1 FUC         0.0873
     56 C6         13.2790   -3.6450  -27.5030 C.3       1 FUC        -0.0361
     57 O2         13.3710   -8.2690  -30.7350 O.3       1 FUC        -0.3841
     58 O3         14.3970   -8.4380  -28.0880 O.3       1 FUC        -0.3864
     59 O4         12.8830   -6.4070  -26.8330 O.3       1 FUC        -0.3866
     60 O5         12.6430   -4.8860  -29.4500 O.3       1 FUC        -0.3431
     61 H1         13.7654   -4.9136  -35.7378 H         1 NDG         0.0932
     62 H2         14.3608   -6.1851  -33.7118 H         1 NDG         0.0633
     63 H3         13.1482   -3.9045  -32.0948 H         1 NDG         0.0649
     64 H4         16.1055   -4.6260  -32.4318 H         1 NDG         0.0651
     65 H5         14.6679   -2.1358  -33.5214 H         1 NDG         0.0647
     66 H6         17.4895   -3.1996  -34.0651 H         1 NDG         0.0584
     67 H7         17.1407   -1.9869  -32.7867 H         1 NDG         0.0584
     68 H8          9.8940   -6.1777  -34.0118 H         1 NDG         0.0467
     69 H9         10.1667   -7.9445  -34.1868 H         1 NDG         0.0467
     70 H10        10.1323   -6.8924  -35.6424 H         1 NDG         0.0467
     71 H11        16.4028   -1.7589  -35.5568 H         1 NDG         0.2095
     72 H12        11.6167   -5.1650  -33.2165 H         1 NDG         0.1857
     73 H13        12.9416   -2.7354  -35.4642 H         1 NDG         0.2126
     74 H14        17.4599   -3.2837  -31.3116 H         1 NDG         0.0938
     75 H15        16.0429   -1.9767  -28.9568 H         1 NDG         0.0675
     76 H16        18.9988   -2.2013  -29.7230 H         1 NDG         0.0651
     77 H17        19.2646   -3.5916  -27.7360 H         1 NDG         0.0647
     78 H18        18.8394   -4.6908  -29.8524 H         1 NDG         0.0647
     79 H19        17.0930   -5.9800  -27.6957 H         1 NDG         0.0584
     80 H20        18.8882   -5.9627  -27.6335 H         1 NDG         0.0584
     81 H21        17.4485   -2.7123  -26.5228 H         1 NDG         0.2100
     82 H22        17.2976   -6.8957  -29.8191 H         1 NDG         0.2095
     83 H23        19.5500   -1.5820  -26.5567 H         1 NDG         0.0935
     84 H24        20.6474    0.5689  -26.2801 H         1 NDG         0.0633
     85 H25        17.7968    1.3566  -26.5952 H         1 NDG         0.1857
     86 H26        19.0362    1.5535  -28.6885 H         1 NDG         0.0645
     87 H27        21.0276    2.7813  -27.0001 H         1 NDG         0.2100
     88 H28        21.2346    1.7254  -29.7922 H         1 NDG         0.0647
     89 H29        22.4101    2.0328  -27.8079 H         1 NDG         0.2100
     90 H30        20.0238   -0.4305  -30.0330 H         1 NDG         0.0647
     91 H31        22.1156   -1.9212  -30.4155 H         1 NDG         0.0584
     92 H32        23.0673   -0.5173  -29.8239 H         1 NDG         0.0584
     93 H33        21.0612   -0.4192  -31.9127 H         1 NDG         0.2095
     94 H34        19.6483    0.3394  -22.9790 H         1 NDG         0.0467
     95 H35        20.7023    0.8753  -24.3312 H         1 NDG         0.0467
     96 H36        19.9007   -0.7307  -24.3995 H         1 NDG         0.0467
     97 H37        16.6561    0.5433  -29.0628 H         1 NDG         0.0938
     98 H38        16.3929    2.4479  -30.5790 H         1 NDG         0.0671
     99 H39        16.4511    0.4331  -32.9011 H         1 NDG         0.0648
    100 H40        14.0359    0.9029  -33.2340 H         1 NDG         0.0646
    101 H41        14.6800   -1.0063  -31.8036 H         1 NDG         0.0621
    102 H42        12.5832   -1.2041  -30.4760 H         1 NDG         0.0255
    103 H43        12.2473   -0.5107  -32.0986 H         1 NDG         0.0255
    104 H44        12.2971    0.5600  -30.6572 H         1 NDG         0.0255
    105 H45        18.4080    0.6609  -31.6046 H         1 NDG         0.2101
    106 H46        15.8265    3.2211  -32.8003 H         1 NDG         0.2100
    107 H47        14.3047    2.4644  -30.8367 H         1 NDG         0.2100
    108 H48        12.0083   -5.9872  -31.0779 H         1 NDG         0.0938
    109 H49        12.1865   -7.5928  -29.1777 H         1 NDG         0.0671
    110 H50        15.1579   -6.9589  -29.3218 H         1 NDG         0.0648
    111 H51        14.8785   -5.9125  -27.1630 H         1 NDG         0.0646
    112 H52        14.5693   -4.4025  -29.0027 H         1 NDG         0.0621
    113 H53        13.0655   -2.7128  -28.0466 H         1 NDG         0.0255
    114 H54        14.1119   -3.4792  -26.8039 H         1 NDG         0.0255
    115 H55        12.3853   -3.9550  -26.9417 H         1 NDG         0.0255
    116 H56        14.1492   -8.0111  -31.2150 H         1 NDG         0.2101
    117 H57        13.6037   -8.6391  -27.6055 H         1 NDG         0.2100
    118 H58        12.0716   -6.5019  -27.3180 H         1 NDG         0.2100
@<TRIPOS>BOND
     1    2    1 1  
     2    1    9 1  
     3    1   15 1  
     4    2    3 1  
     5   14    2 1  
     6    3    4 1  
     7    3   10 1  
     8    4    5 1  
     9    4   11 1  
    10    5    6 1  
    11    9    5 1  
    12    6   12 1  
    13    7    8 1  
    14    7   13 2  
    15    7   14 am 
    16   10   51 1  
    17   11   16 1  
    18   16   17 1  
    19   16   25 1  
    20   17   18 1  
    21   17   22 1  
    22   18   19 1  
    23   18   23 1  
    24   19   20 1  
    25   19   24 1  
    26   20   21 1  
    27   20   25 1  
    28   21   26 1  
    29   22   41 1  
    30   23   28 1  
    31   28   27 1  
    32   27   35 1  
    33   28   29 1  
    34   29   30 1  
    35   29   31 1  
    36   30   38 am 
    37   31   32 1  
    38   31   33 1  
    39   33   34 1  
    40   33   35 1  
    41   35   36 1  
    42   36   37 1  
    43   38   39 2  
    44   38   40 1  
    45   41   42 1  
    46   41   50 1  
    47   42   43 1  
    48   42   47 1  
    49   43   44 1  
    50   43   48 1  
    51   44   45 1  
    52   44   49 1  
    53   45   46 1  
    54   45   50 1  
    55   51   52 1  
    56   51   60 1  
    57   52   53 1  
    58   52   57 1  
    59   53   54 1  
    60   53   58 1  
    61   54   55 1  
    62   54   59 1  
    63   55   56 1  
    64   55   60 1  
    65    1   61 1  
    66    2   62 1  
    67    3   63 1  
    68    4   64 1  
    69    5   65 1  
    70    6   66 1  
    71    6   67 1  
    72    8   68 1  
    73    8   69 1  
    74    8   70 1  
    75   12   71 1  
    76   14   72 1  
    77   15   73 1  
    78   16   74 1  
    79   17   75 1  
    80   18   76 1  
    81   19   77 1  
    82   20   78 1  
    83   21   79 1  
    84   21   80 1  
    85   24   81 1  
    86   26   82 1  
    87   28   83 1  
    88   29   84 1  
    89   30   85 1  
    90   31   86 1  
    91   32   87 1  
    92   33   88 1  
    93   34   89 1  
    94   35   90 1  
    95   36   91 1  
    96   36   92 1  
    97   37   93 1  
    98   40   94 1  
    99   40   95 1  
   100   40   96 1  
   101   41   97 1  
   102   42   98 1  
   103   43   99 1  
   104   44  100 1  
   105   45  101 1  
   106   46  102 1  
   107   46  103 1  
   108   46  104 1  
   109   47  105 1  
   110   48  106 1  
   111   49  107 1  
   112   51  108 1  
   113   52  109 1  
   114   53  110 1  
   115   54  111 1  
   116   55  112 1  
   117   56  113 1  
   118   56  114 1  
   119   56  115 1  
   120   57  116 1  
   121   58  117 1  
   122   59  118 1  
@<TRIPOS>SUBSTRUCTURE
     1 NDG         1

