### 
### Created by X-TOOL on Mon Sep 10 21:13:27 2018
### 

@<TRIPOS>MOLECULE
5elf_ligand
  112   116     1     0     0
SMALL
GAST_HUCK


@<TRIPOS>ATOM
      1 C1        -28.1910   15.5890    3.9910 C.3       1 GLC         0.1854
      2 C2        -27.6520   14.2300    4.4130 C.3       1 GLC         0.1343
      3 C3        -28.6290   13.1050    4.1800 C.3       1 GLC         0.1209
      4 C4        -30.0360   13.4040    4.7160 C.3       1 GLC         0.1188
      5 C5        -30.5230   14.7520    4.1250 C.3       1 GLC         0.1134
      6 C6        -31.9270   15.1470    4.5990 C.3       1 GLC         0.0730
      7 O1        -28.1290   15.7220    2.5910 O.3       1 GLC        -0.3649
      8 O2        -26.4940   13.9490    3.6470 O.3       1 GLC        -0.3841
      9 O3        -28.1840   12.0720    4.9660 O.3       1 GLC        -0.3400
     10 O4        -30.9070   12.3110    4.3080 O.3       1 GLC        -0.3401
     11 O5        -29.5650   15.7740    4.4510 O.3       1 GLC        -0.3407
     12 O6        -31.8720   15.1530    6.0400 O.3       1 GLC        -0.3924
     13 C1        -31.9310   11.8790    5.2390 C.3       1 GAL         0.1888
     14 C2        -33.0560   11.1520    4.4850 C.3       1 GAL         0.1410
     15 C3        -33.9310   10.4090    5.4400 C.3       1 GAL         0.1209
     16 C4        -33.1280    9.5310    6.3910 C.3       1 GAL         0.1123
     17 C5        -32.1040   10.4290    7.0720 C.3       1 GAL         0.1130
     18 C6        -31.0620    9.7470    7.9210 C.3       1 GAL         0.0730
     19 O2        -33.8710   12.1410    3.8890 O.3       1 GAL        -0.3378
     20 O3        -34.8210    9.5860    4.6570 O.3       1 GAL        -0.3403
     21 O4        -32.5060    8.4830    5.6460 O.3       1 GAL        -0.3865
     22 O5        -31.2650   10.9990    6.1000 O.3       1 GAL        -0.3405
     23 O6        -31.7980    9.0550    8.9340 O.3       1 GAL        -0.3924
     24 O         -36.4150    9.9230    6.4570 O.3       1 A2G        -0.3408
     25 C1        -35.9710    9.0460    5.3680 C.3       1 A2G         0.1854
     26 C2        -37.1500    8.7700    4.4040 C.3       1 A2G         0.1210
     27 N2        -36.6390    8.1330    3.1630 N.am      1 A2G        -0.2766
     28 C3        -37.8710   10.0960    4.0450 C.3       1 A2G         0.1111
     29 O3        -39.0500    9.7930    3.2960 O.3       1 A2G        -0.3867
     30 C4        -38.2910   10.8820    5.2870 C.3       1 A2G         0.1116
     31 O4        -39.1710   10.0290    6.0690 O.3       1 A2G        -0.3865
     32 C5        -37.0980   11.2010    6.1300 C.3       1 A2G         0.1130
     33 C6        -37.5300   11.6250    7.5150 C.3       1 A2G         0.0730
     34 O6        -36.3090   11.9580    8.1800 O.3       1 A2G        -0.3924
     35 C7        -37.2030    7.1020    2.4810 C.2       1 A2G         0.1733
     36 O7        -36.6890    6.6310    1.4590 O.2       1 A2G        -0.3974
     37 C8        -38.5180    6.4740    3.0210 C.3       1 A2G         0.0257
     38 C1        -34.3870   11.8340    2.5690 C.3       1 FUC         0.1884
     39 C2        -35.4200   12.9040    2.1750 C.3       1 FUC         0.1341
     40 C3        -34.6810   14.2280    1.8950 C.3       1 FUC         0.1140
     41 C4        -33.6600   13.9940    0.7960 C.3       1 FUC         0.1095
     42 C5        -32.6500   13.0200    1.3560 C.3       1 FUC         0.0873
     43 C6        -31.4910   12.8130    0.3720 C.3       1 FUC        -0.0361
     44 O2        -36.3900   13.0650    3.2440 O.3       1 FUC        -0.3841
     45 O3        -35.5700   15.2340    1.4960 O.3       1 FUC        -0.3864
     46 O4        -34.2920   13.3940   -0.3310 O.3       1 FUC        -0.3866
     47 O5        -33.2830   11.7570    1.5960 O.3       1 FUC        -0.3431
     48 C1        -27.4380   11.0790    4.2910 C.3       1 FUC         0.1883
     49 C2        -26.8440   10.2490    5.3770 C.3       1 FUC         0.1341
     50 C3        -27.8480    9.4040    6.0600 C.3       1 FUC         0.1140
     51 C4        -28.5480    8.5620    5.0420 C.3       1 FUC         0.1095
     52 C5        -29.1550    9.4730    3.9220 C.3       1 FUC         0.0873
     53 C6        -29.9150    8.7090    2.8360 C.3       1 FUC        -0.0361
     54 O2        -26.3290   11.1820    6.2770 O.3       1 FUC        -0.3841
     55 O3        -27.1230    8.5720    6.9900 O.3       1 FUC        -0.3864
     56 O4        -27.5900    7.6210    4.5160 O.3       1 FUC        -0.3866
     57 O5        -28.1590   10.2720    3.3080 O.3       1 FUC        -0.3431
     58 H1        -27.5632   16.3690    4.4464 H         1 GLC         0.0935
     59 H2        -27.3957   14.2666    5.4821 H         1 GLC         0.0671
     60 H3        -28.6650   12.8375    3.1136 H         1 GLC         0.0651
     61 H4        -30.0158   13.4715    5.8137 H         1 GLC         0.0651
     62 H5        -30.5602   14.6480    3.0306 H         1 GLC         0.0647
     63 H6        -32.6692   14.4150    4.2478 H         1 GLC         0.0584
     64 H7        -32.1907   16.1463    4.2223 H         1 GLC         0.0584
     65 H8        -27.2323   15.6001    2.3018 H         1 GLC         0.2126
     66 H9        -26.7288   13.8960    2.7280 H         1 GLC         0.2101
     67 H10       -31.2217   15.7827    6.3284 H         1 GLC         0.2095
     68 H11       -32.3462   12.7330    5.7942 H         1 GLC         0.0938
     69 H12       -32.6364   10.4703    3.7305 H         1 GLC         0.0675
     70 H13       -34.5152   11.1294    6.0313 H         1 GLC         0.0651
     71 H14       -33.7916    9.0895    7.1491 H         1 GLC         0.0647
     72 H15       -32.6391   11.1919    7.6564 H         1 GLC         0.0647
     73 H16       -30.3871   10.4886    8.3732 H         1 GLC         0.0584
     74 H17       -30.4763    9.0380    7.3175 H         1 GLC         0.0584
     75 H18       -33.1750    7.9463    5.2374 H         1 GLC         0.2100
     76 H19       -31.1932    8.5999    9.5082 H         1 GLC         0.2095
     77 H20       -35.6644    8.0876    5.8124 H         1 GLC         0.0935
     78 H21       -37.8645    8.0916    4.8931 H         1 GLC         0.0633
     79 H22       -35.7883    8.5028    2.7893 H         1 GLC         0.1857
     80 H23       -37.1945   10.7164    3.4388 H         1 GLC         0.0645
     81 H24       -39.6241    9.2458    3.8189 H         1 GLC         0.2100
     82 H25       -38.8064   11.8085    4.9937 H         1 GLC         0.0647
     83 H26       -38.7056    9.2390    6.3177 H         1 GLC         0.2100
     84 H27       -36.4437   11.9365    5.6391 H         1 GLC         0.0647
     85 H28       -38.0431   10.8010    8.0324 H         1 GLC         0.0584
     86 H29       -38.1969   12.4983    7.4648 H         1 GLC         0.0584
     87 H30       -35.7432   11.1952    8.2015 H         1 GLC         0.2095
     88 H31       -38.8354    5.6583    2.3547 H         1 GLC         0.0467
     89 H32       -39.3033    7.2433    3.0586 H         1 GLC         0.0467
     90 H33       -38.3461    6.0758    4.0319 H         1 GLC         0.0467
     91 H34       -34.8894   10.8560    2.6011 H         1 GLC         0.0938
     92 H35       -35.9450   12.5852    1.2625 H         1 GLC         0.0671
     93 H36       -34.1649   14.5513    2.8111 H         1 GLC         0.0648
     94 H37       -33.1775   14.9386    0.5048 H         1 GLC         0.0646
     95 H38       -32.2546   13.4171    2.3025 H         1 GLC         0.0621
     96 H39       -30.7694   12.1015    0.7999 H         1 GLC         0.0255
     97 H40       -30.9912   13.7752    0.1865 H         1 GLC         0.0255
     98 H41       -31.8814   12.4138   -0.5757 H         1 GLC         0.0255
     99 H42       -35.9435   13.3388    4.0366 H         1 GLC         0.2101
    100 H43       -35.0871   16.0360    1.3344 H         1 GLC         0.2100
    101 H44       -34.7280   12.5948   -0.0598 H         1 GLC         0.2100
    102 H45       -26.6255   11.5807    3.7450 H         1 GLC         0.0938
    103 H46       -26.0450    9.6090    4.9745 H         1 GLC         0.0671
    104 H47       -28.5791   10.0275    6.5954 H         1 GLC         0.0648
    105 H48       -29.3663    8.0079    5.5250 H         1 GLC         0.0646
    106 H49       -29.8731   10.1462    4.4130 H         1 GLC         0.0621
    107 H50       -30.3064    9.4198    2.0933 H         1 GLC         0.0255
    108 H51       -30.7507    8.1579    3.2919 H         1 GLC         0.0255
    109 H52       -29.2344    8.0001    2.3418 H         1 GLC         0.0255
    110 H53       -27.0342   11.7289    6.6026 H         1 GLC         0.2101
    111 H54       -26.4788    8.0579    6.5176 H         1 GLC         0.2100
    112 H55       -26.8785    8.0939    4.1006 H         1 GLC         0.2100
@<TRIPOS>BOND
     1    1    2 1  
     2    1    7 1  
     3    1   11 1  
     4    2    3 1  
     5    2    8 1  
     6    3    4 1  
     7    3    9 1  
     8    4    5 1  
     9    4   10 1  
    10    5    6 1  
    11    5   11 1  
    12    6   12 1  
    13    9   48 1  
    14   10   13 1  
    15   13   14 1  
    16   13   22 1  
    17   14   15 1  
    18   14   19 1  
    19   15   16 1  
    20   15   20 1  
    21   16   17 1  
    22   16   21 1  
    23   17   18 1  
    24   17   22 1  
    25   18   23 1  
    26   19   38 1  
    27   20   25 1  
    28   25   24 1  
    29   24   32 1  
    30   25   26 1  
    31   26   27 1  
    32   26   28 1  
    33   27   35 am 
    34   28   29 1  
    35   28   30 1  
    36   30   31 1  
    37   30   32 1  
    38   32   33 1  
    39   33   34 1  
    40   35   36 2  
    41   35   37 1  
    42   38   39 1  
    43   38   47 1  
    44   39   40 1  
    45   39   44 1  
    46   40   41 1  
    47   40   45 1  
    48   41   42 1  
    49   41   46 1  
    50   42   43 1  
    51   42   47 1  
    52   48   49 1  
    53   48   57 1  
    54   49   50 1  
    55   49   54 1  
    56   50   51 1  
    57   50   55 1  
    58   51   52 1  
    59   51   56 1  
    60   52   53 1  
    61   52   57 1  
    62    1   58 1  
    63    2   59 1  
    64    3   60 1  
    65    4   61 1  
    66    5   62 1  
    67    6   63 1  
    68    6   64 1  
    69    7   65 1  
    70    8   66 1  
    71   12   67 1  
    72   13   68 1  
    73   14   69 1  
    74   15   70 1  
    75   16   71 1  
    76   17   72 1  
    77   18   73 1  
    78   18   74 1  
    79   21   75 1  
    80   23   76 1  
    81   25   77 1  
    82   26   78 1  
    83   27   79 1  
    84   28   80 1  
    85   29   81 1  
    86   30   82 1  
    87   31   83 1  
    88   32   84 1  
    89   33   85 1  
    90   33   86 1  
    91   34   87 1  
    92   37   88 1  
    93   37   89 1  
    94   37   90 1  
    95   38   91 1  
    96   39   92 1  
    97   40   93 1  
    98   41   94 1  
    99   42   95 1  
   100   43   96 1  
   101   43   97 1  
   102   43   98 1  
   103   44   99 1  
   104   45  100 1  
   105   46  101 1  
   106   48  102 1  
   107   49  103 1  
   108   50  104 1  
   109   51  105 1  
   110   52  106 1  
   111   53  107 1  
   112   53  108 1  
   113   53  109 1  
   114   54  110 1  
   115   55  111 1  
   116   56  112 1  
@<TRIPOS>SUBSTRUCTURE
     1 GLC         1

