### 
### Created by X-TOOL on Mon Sep 10 21:13:26 2018
### 

@<TRIPOS>MOLECULE
5elv_ligand
   28    30     1     0     0
SMALL
GAST_HUCK


@<TRIPOS>ATOM
      1 C1        -17.0660   45.9160   -3.2470 C.ar      1 5PX        -0.0505
      2 C2        -17.8120   44.7450   -3.0580 C.ar      1 5PX        -0.0445
      3 C3        -17.8100   43.7890   -4.0710 C.ar      1 5PX         0.0760
      4 C4        -17.1040   44.0030   -5.2440 C.ar      1 5PX        -0.0180
      5 C5        -16.3750   45.1880   -5.4120 C.ar      1 5PX         0.1173
      6 N1        -15.1290   47.0510   -6.9260 N.am      1 5PX        -0.2285
      7 C6        -14.6200   47.5350   -5.6510 C.3       1 5PX         0.1045
      8 N2        -15.6040   47.3790   -4.5740 N.pl3     1 5PX        -0.2934
      9 C7        -16.3300   46.1810   -4.4250 C.ar      1 5PX         0.0576
     10 O1        -18.5230   42.6380   -3.9230 O.3       1 5PX        -0.3416
     11 S1        -15.4720   45.4310   -6.9020 S.o2      1 5PX         0.0639
     12 O2        -14.2290   44.7070   -6.6840 O.2       1 5PX        -0.1524
     13 O3        -16.3200   45.1190   -8.0340 O.2       1 5PX        -0.1524
     14 C8        -15.6030   48.3890   -3.5000 C.3       1 5PX         0.0377
     15 C9        -16.8450   49.1870   -3.1680 C.3       1 5PX        -0.0287
     16 C10       -15.6730   49.8590   -3.8200 C.3       1 5PX        -0.0287
     17 H1        -17.0525   46.6535   -2.4527 H         1 5PX         0.0490
     18 H2        -18.3766   44.5871   -2.1462 H         1 5PX         0.0511
     19 H3        -17.1156   43.2559   -6.0294 H         1 5PX         0.0530
     20 H4        -15.2575   47.6332   -7.7288 H         1 5PX         0.1692
     21 H5        -14.3677   48.6010   -5.7504 H         1 5PX         0.0730
     22 H6        -13.7149   46.9667   -5.3906 H         1 5PX         0.0730
     23 H7        -18.9485   42.6374   -3.0737 H         1 5PX         0.2437
     24 H8        -14.9502   48.0407   -2.6861 H         1 5PX         0.0546
     25 H9        -17.0926   49.4084   -2.1194 H         1 5PX         0.0287
     26 H10       -17.7721   49.0239   -3.7371 H         1 5PX         0.0287
     27 H11       -15.7428   50.1901   -4.8667 H         1 5PX         0.0287
     28 H12       -15.0633   50.5746   -3.2489 H         1 5PX         0.0287
@<TRIPOS>BOND
     1    1    2 ar 
     2    9    1 ar 
     3    3    2 ar 
     4    4    3 ar 
     5    3   10 1  
     6    5    4 ar 
     7    5    9 ar 
     8   11    5 1  
     9    6    7 1  
    10    6   11 am 
    11    7    8 1  
    12    8    9 1  
    13    8   14 1  
    14   11   12 2  
    15   11   13 2  
    16   14   15 1  
    17   14   16 1  
    18   15   16 1  
    19    1   17 1  
    20    2   18 1  
    21    4   19 1  
    22    6   20 1  
    23    7   21 1  
    24    7   22 1  
    25   10   23 1  
    26   14   24 1  
    27   15   25 1  
    28   15   26 1  
    29   16   27 1  
    30   16   28 1  
@<TRIPOS>SUBSTRUCTURE
     1 5PX         1

