### 
### Created by X-TOOL on Mon Sep 10 21:13:27 2018
### 

@<TRIPOS>MOLECULE
5ely_ligand
   33    33     1     0     0
SMALL
GAST_HUCK


@<TRIPOS>ATOM
      1 CAG        23.1410   46.9490   41.4860 C.ar      1 5PU        -0.0565
      2 CAI        23.8430   46.3120   40.4210 C.ar      1 5PU        -0.0543
      3 CAS        24.3990   45.0650   40.6780 C.ar      1 5PU         0.0032
      4 CAO        25.2440   44.2830   39.6150 C.2       1 5PU         0.0584
      5 OAE        25.3360   44.8170   38.5430 O.co2     1 5PU        -0.5625
      6 OAA        25.8490   43.2300   39.9730 O.co2     1 5PU        -0.5625
      7 CAJ        24.3160   44.4760   41.9120 C.ar      1 5PU        -0.0543
      8 CAH        23.6300   45.0700   42.9690 C.ar      1 5PU        -0.0565
      9 CAR        23.0520   46.3170   42.7340 C.ar      1 5PU        -0.0383
     10 CAM        22.3000   46.9600   43.9440 C.3       1 5PU        -0.0033
     11 CAT        20.7670   47.1240   43.6950 C.3       1 5PU         0.0238
     12 CAP        20.1980   47.8770   44.9330 C.2       1 5PU         0.0400
     13 OAF        19.8180   47.2020   45.8920 O.co2     1 5PU        -0.5685
     14 OAB        20.3320   49.1060   44.9080 O.co2     1 5PU        -0.5685
     15 CAL        20.1220   45.7300   43.5920 C.3       1 5PU        -0.0198
     16 CAK        18.6420   45.7430   43.0740 C.3       1 5PU         0.0408
     17 CAQ        18.0950   44.3070   43.2380 C.2       1 5PU         0.1989
     18 OAC        18.5620   43.3280   42.6150 O.2       1 5PU        -0.3970
     19 NAN        17.0910   44.1830   44.0810 N.am      1 5PU        -0.1642
     20 OAD        16.6950   42.9370   44.5000 O.3       1 5PU        -0.2717
     21 H1         22.6785   47.9171   41.3314 H         1 5PU         0.0565
     22 H2         23.9391   46.7822   39.4490 H         1 5PU         0.0634
     23 H3         24.7988   43.5185   42.0708 H         1 5PU         0.0634
     24 H4         23.5489   44.5830   43.9341 H         1 5PU         0.0565
     25 H5         22.7316   47.9532   44.1368 H         1 5PU         0.0453
     26 H6         22.4448   46.3197   44.8266 H         1 5PU         0.0453
     27 H7         20.5804   47.6958   42.7740 H         1 5PU         0.0490
     28 H8         20.1337   45.2698   44.5910 H         1 5PU         0.0311
     29 H9         20.7239   45.1216   42.9010 H         1 5PU         0.0311
     30 H10        18.6147   46.0392   42.0150 H         1 5PU         0.0503
     31 H11        18.0399   46.4469   43.6673 H         1 5PU         0.0503
     32 H12        16.6166   44.9970   44.4162 H         1 5PU         0.2216
     33 H13        15.9642   43.0236   45.1008 H         1 5PU         0.2490
@<TRIPOS>BOND
     1    1    2 ar 
     2    1    9 ar 
     3    2    3 ar 
     4    3    4 1  
     5    3    7 ar 
     6    4    5 ar 
     7    4    6 ar 
     8    7    8 ar 
     9    8    9 ar 
    10    9   10 1  
    11   10   11 1  
    12   11   12 1  
    13   11   15 1  
    14   12   13 ar 
    15   12   14 ar 
    16   15   16 1  
    17   16   17 1  
    18   17   18 2  
    19   17   19 am 
    20   19   20 1  
    21    1   21 1  
    22    2   22 1  
    23    7   23 1  
    24    8   24 1  
    25   10   25 1  
    26   10   26 1  
    27   11   27 1  
    28   15   28 1  
    29   15   29 1  
    30   16   30 1  
    31   16   31 1  
    32   19   32 1  
    33   20   33 1  
@<TRIPOS>SUBSTRUCTURE
     1 5PU         1

