### 
### Created by X-TOOL on Mon Sep 10 21:13:27 2018
### 

@<TRIPOS>MOLECULE
5em3_ligand
   18    19     1     0     0
SMALL
GAST_HUCK


@<TRIPOS>ATOM
      1 C2         15.6530    0.8060   -7.9220 C.ar      1 5Q0        -0.0538
      2 C3         14.5270    0.0340   -7.6570 C.ar      1 5Q0         0.0382
      3 C4         13.8640    0.1470   -6.4360 C.ar      1 5Q0         0.0426
      4 C5         12.7370   -0.6190   -6.1560 C.ar      1 5Q0        -0.0336
      5 C6         12.2800   -1.5060   -7.1200 C.ar      1 5Q0        -0.0339
      6 C7         12.9610   -1.5980   -8.3250 C.ar      1 5Q0         0.0071
      7 C9         15.4510    1.8140   -5.7300 C.ar      1 5Q0        -0.0287
      8 C1         16.1050    1.6960   -6.9540 C.ar      1 5Q0        -0.0691
      9 N1         14.0880   -0.8180   -8.5840 N.ar      1 5Q0        -0.3012
     10 C8         14.3300    1.0360   -5.4810 C.ar      1 5Q0         0.1093
     11 O1         13.6280    1.0880   -4.3070 O.3       1 5Q0        -0.3253
     12 H1         16.1710    0.7152   -8.8699 H         1 5Q0         0.0512
     13 H2         12.2265   -0.5248   -5.2044 H         1 5Q0         0.0779
     14 H3         11.4044   -2.1176   -6.9344 H         1 5Q0         0.0666
     15 H4         12.6099   -2.2907   -9.0813 H         1 5Q0         0.0860
     16 H5         15.8144    2.5068   -4.9796 H         1 5Q0         0.0523
     17 H6         16.9782    2.3062   -7.1547 H         1 5Q0         0.0616
     18 H7         14.2008    0.8541   -3.5862 H         1 5Q0         0.2527
@<TRIPOS>BOND
     1    1    2 ar 
     2    1    8 ar 
     3    2    3 ar 
     4    2    9 ar 
     5    3    4 ar 
     6    3   10 ar 
     7    4    5 ar 
     8    5    6 ar 
     9    6    9 ar 
    10    8    7 ar 
    11    7   10 ar 
    12   10   11 1  
    13    1   12 1  
    14    4   13 1  
    15    5   14 1  
    16    6   15 1  
    17    7   16 1  
    18    8   17 1  
    19   11   18 1  
@<TRIPOS>SUBSTRUCTURE
     1 5Q0         1

