### 
### Created by X-TOOL on Mon Sep 10 21:13:25 2018
### 

@<TRIPOS>MOLECULE
5em5_ligand
   62    65     1     0     0
SMALL
GAST_HUCK


@<TRIPOS>ATOM
      1 C4        -53.1760   -0.1460  -15.6080 C.3       1 5Q2         0.0642
      2 C6        -50.9400    0.9570  -15.8280 C.3       1 5Q2         0.0642
      3 C11       -53.4590    1.4910  -20.2650 C.ar      1 5Q2         0.0515
      4 C7        -50.7720    0.8490  -14.2950 C.3       1 5Q2        -0.0125
      5 C8        -52.6830    1.1350  -17.5790 C.ar      1 5Q2         0.0259
      6 C9        -51.9070    0.5980  -18.6240 C.ar      1 5Q2        -0.0568
      7 C10       -52.2860    0.7820  -19.9530 C.ar      1 5Q2        -0.0521
      8 C12       -54.2340    1.9980  -19.2220 C.ar      1 5Q2        -0.0521
      9 C13       -53.8570    1.8260  -17.9010 C.ar      1 5Q2        -0.0568
     10 N2        -51.6020   -0.2580  -13.7650 N.4       1 5Q2         0.2358
     11 C3        -53.0350   -0.1100  -14.0810 C.3       1 5Q2        -0.0125
     12 C1        -51.3960   -0.4830  -12.3270 C.3       1 5Q2        -0.0430
     13 N5        -52.3770    0.9530  -16.2090 N.pl3     1 5Q2        -0.3065
     14 N14       -53.9660    1.6930  -21.5690 N.am      1 5Q2        -0.2507
     15 C15       -53.8600    0.8780  -22.6580 C.2       1 5Q2         0.1904
     16 O16       -53.2020   -0.1460  -22.5840 O.2       1 5Q2        -0.4090
     17 C17       -54.5720    1.1990  -23.9260 C.2       1 5Q2         0.1045
     18 C18       -54.3120    0.4830  -25.1430 C.2       1 5Q2         0.0465
     19 C19       -55.0540    0.8310  -26.3050 C.2       1 5Q2        -0.0071
     20 C20       -55.9980    1.7960  -26.2800 C.2       1 5Q2         0.0692
     21 N21       -56.2650    2.4610  -25.1300 N.am      1 5Q2        -0.2215
     22 C23       -55.6060    2.2070  -23.9720 C.2       1 5Q2         0.1980
     23 O24       -55.9300    2.8740  -22.9960 O.2       1 5Q2        -0.4276
     24 N25       -53.3470   -0.5210  -25.2040 N.pl3     1 5Q2        -0.3123
     25 C26       -53.1530   -1.4860  -26.3050 C.3       1 5Q2         0.0385
     26 C27       -51.8700   -1.1600  -27.0840 C.3       1 5Q2         0.0016
     27 C28       -52.0730    0.1420  -27.8180 C.ar      1 5Q2        -0.0408
     28 C29       -51.8040    1.3430  -27.1620 C.ar      1 5Q2        -0.0596
     29 C30       -52.0640    2.5580  -27.7690 C.ar      1 5Q2        -0.0546
     30 C31       -52.5450    2.5620  -29.0690 C.ar      1 5Q2         0.0330
     31 C32       -52.7570    1.3690  -29.7580 C.ar      1 5Q2        -0.0546
     32 C33       -52.5530    0.1490  -29.1250 C.ar      1 5Q2        -0.0596
     33 CL        -52.8310    4.0860  -29.8300 Cl        1 5Q2        -0.0771
     34 H1        -54.2342   -0.0206  -15.8809 H         1 5Q2         0.0561
     35 H2        -52.8118   -1.1125  -15.9865 H         1 5Q2         0.0561
     36 H3        -50.4390    0.1021  -16.3057 H         1 5Q2         0.0561
     37 H4        -50.4786    1.8933  -16.1752 H         1 5Q2         0.0561
     38 H5        -51.0859    1.7941  -13.8278 H         1 5Q2         0.0833
     39 H6        -49.7153    0.6561  -14.0581 H         1 5Q2         0.0833
     40 H7        -51.0083    0.0374  -18.3935 H         1 5Q2         0.0481
     41 H8        -51.6730    0.3763  -20.7497 H         1 5Q2         0.0473
     42 H9        -55.1472    2.5359  -19.4496 H         1 5Q2         0.0473
     43 H10       -54.4767    2.2302  -17.1087 H         1 5Q2         0.0481
     44 H11       -51.2899   -1.0935  -14.2346 H         1 5Q2         0.2032
     45 H12       -53.6060   -0.9357  -13.6314 H         1 5Q2         0.0833
     46 H13       -53.4084    0.8487  -13.6917 H         1 5Q2         0.0833
     47 H14       -50.3203   -0.5892  -12.1229 H         1 5Q2         0.0778
     48 H15       -51.9197   -1.4006  -12.0207 H         1 5Q2         0.0778
     49 H16       -51.7937    0.3724  -11.7613 H         1 5Q2         0.0778
     50 H17       -54.4686    2.5456  -21.7121 H         1 5Q2         0.2186
     51 H18       -54.8559    0.3061  -27.2384 H         1 5Q2         0.0370
     52 H19       -56.5471    2.0409  -27.1880 H         1 5Q2         0.1290
     53 H20       -56.9746    3.1656  -25.1352 H         1 5Q2         0.2578
     54 H21       -52.7057   -0.5974  -24.4017 H         1 5Q2         0.1847
     55 H22       -54.0141   -1.4348  -26.9876 H         1 5Q2         0.0547
     56 H23       -53.0755   -2.5009  -25.8878 H         1 5Q2         0.0547
     57 H24       -51.6596   -1.9635  -27.8052 H         1 5Q2         0.0447
     58 H25       -51.0259   -1.0642  -26.3852 H         1 5Q2         0.0447
     59 H26       -51.3853    1.3238  -26.1623 H         1 5Q2         0.0557
     60 H27       -51.8951    3.4884  -27.2390 H         1 5Q2         0.0606
     61 H28       -53.0823    1.3931  -30.7918 H         1 5Q2         0.0606
     62 H29       -52.7639   -0.7813  -29.6399 H         1 5Q2         0.0557
@<TRIPOS>BOND
     1    1   11 1  
     2   13    1 1  
     3    2    4 1  
     4   13    2 1  
     5    7    3 ar 
     6    3    8 ar 
     7    3   14 1  
     8    4   10 1  
     9    6    5 ar 
    10    5    9 ar 
    11    5   13 1  
    12    6    7 ar 
    13    8    9 ar 
    14   10   11 1  
    15   10   12 1  
    16   14   15 am 
    17   15   16 2  
    18   15   17 1  
    19   17   18 2  
    20   17   22 1  
    21   18   19 1  
    22   18   24 1  
    23   19   20 2  
    24   20   21 1  
    25   21   22 am 
    26   22   23 2  
    27   24   25 1  
    28   25   26 1  
    29   26   27 1  
    30   27   28 ar 
    31   27   32 ar 
    32   28   29 ar 
    33   29   30 ar 
    34   30   31 ar 
    35   30   33 1  
    36   31   32 ar 
    37    1   34 1  
    38    1   35 1  
    39    2   36 1  
    40    2   37 1  
    41    4   38 1  
    42    4   39 1  
    43    6   40 1  
    44    7   41 1  
    45    8   42 1  
    46    9   43 1  
    47   10   44 1  
    48   11   45 1  
    49   11   46 1  
    50   12   47 1  
    51   12   48 1  
    52   12   49 1  
    53   14   50 1  
    54   19   51 1  
    55   20   52 1  
    56   21   53 1  
    57   24   54 1  
    58   25   55 1  
    59   25   56 1  
    60   26   57 1  
    61   26   58 1  
    62   28   59 1  
    63   29   60 1  
    64   31   61 1  
    65   32   62 1  
@<TRIPOS>SUBSTRUCTURE
     1 5Q2         1

