### 
### Created by X-TOOL on Mon Sep 10 21:13:24 2018
### 

@<TRIPOS>MOLECULE
5em6_ligand
   56    59     1     0     0
SMALL
GAST_HUCK


@<TRIPOS>ATOM
      1 C4        -51.3240   -0.6650  -14.6890 C.3       1 5Q3         0.0642
      2 C6        -49.0200    0.0670  -15.4110 C.3       1 5Q3         0.0642
      3 C11       -52.1820    0.7450  -19.3360 C.ar      1 5Q3         0.0516
      4 C7        -48.5470   -0.1230  -13.9550 C.3       1 5Q3        -0.0125
      5 C8        -51.0250    0.4280  -16.7900 C.ar      1 5Q3         0.0259
      6 C9        -52.1670    1.2230  -16.9600 C.ar      1 5Q3        -0.0567
      7 C10       -52.7360    1.3720  -18.2150 C.ar      1 5Q3        -0.0520
      8 C12       -51.0420   -0.0540  -19.1790 C.ar      1 5Q3        -0.0520
      9 C13       -50.4850   -0.2270  -17.9130 C.ar      1 5Q3        -0.0567
     10 N2        -49.3990   -1.1170  -13.2580 N.4       1 5Q3         0.2358
     11 C3        -50.8310   -0.7490  -13.2360 C.3       1 5Q3        -0.0125
     12 C1        -48.9220   -1.4040  -11.8970 C.3       1 5Q3        -0.0430
     13 N5        -50.4950    0.2780  -15.4880 N.pl3     1 5Q3        -0.3065
     14 N14       -52.8520    0.9630  -20.5610 N.am      1 5Q3        -0.2503
     15 C15       -52.8490    0.2430  -21.7180 C.2       1 5Q3         0.1929
     16 O16       -52.1750   -0.7740  -21.8020 O.2       1 5Q3        -0.4075
     17 C17       -53.7430    0.6480  -22.8410 C.2       1 5Q3         0.1114
     18 C18       -53.6610    0.0560  -24.1550 C.2       1 5Q3         0.0723
     19 C19       -54.5880    0.4810  -25.1440 C.2       1 5Q3        -0.0023
     20 C20       -55.5420    1.4020  -24.8820 C.2       1 5Q3         0.0699
     21 N21       -55.6210    1.9570  -23.6480 N.am      1 5Q3        -0.2210
     22 C23       -54.7850    1.6300  -22.6340 C.2       1 5Q3         0.2004
     23 O24       -54.9620    2.2160  -21.5690 O.2       1 5Q3        -0.4264
     24 N25       -52.6980   -0.9070  -24.4660 N.pl3     1 5Q3        -0.2486
     25 C26       -52.4780   -1.6100  -25.6660 C.ar      1 5Q3         0.1389
     26 C27       -51.5140   -2.6400  -25.6690 C.ar      1 5Q3        -0.0006
     27 C28       -51.2730   -3.3470  -26.8490 C.ar      1 5Q3         0.0012
     28 N29       -51.9450   -3.0290  -27.9540 N.ar      1 5Q3        -0.2717
     29 C30       -52.8380   -2.0430  -27.9370 C.ar      1 5Q3         0.1731
     30 N31       -53.1030   -1.3430  -26.8280 N.ar      1 5Q3        -0.2363
     31 N32       -53.5160   -1.7530  -29.1000 N.pl3     1 5Q3        -0.3059
     32 H1        -52.3675   -0.3170  -14.6937 H         1 5Q3         0.0561
     33 H2        -51.2688   -1.6648  -15.1444 H         1 5Q3         0.0561
     34 H3        -48.7573   -0.8298  -15.9913 H         1 5Q3         0.0561
     35 H4        -48.5116    0.9432  -15.8397 H         1 5Q3         0.0561
     36 H5        -48.6073    0.8396  -13.4262 H         1 5Q3         0.0833
     37 H6        -47.5053   -0.4763  -13.9559 H         1 5Q3         0.0833
     38 H7        -52.6074    1.7238  -16.1054 H         1 5Q3         0.0481
     39 H8        -53.6236    1.9836  -18.3296 H         1 5Q3         0.0473
     40 H9        -50.5941   -0.5366  -20.0401 H         1 5Q3         0.0473
     41 H10       -49.6243   -0.8747  -17.7915 H         1 5Q3         0.0481
     42 H11       -49.3260   -1.9742  -13.7834 H         1 5Q3         0.2032
     43 H12       -51.4042   -1.5136  -12.6913 H         1 5Q3         0.0833
     44 H13       -50.9580    0.2256  -12.7421 H         1 5Q3         0.0833
     45 H14       -47.8566   -1.6756  -11.9315 H         1 5Q3         0.0778
     46 H15       -49.4998   -2.2392  -11.4745 H         1 5Q3         0.0778
     47 H16       -49.0527   -0.5119  -11.2669 H         1 5Q3         0.0778
     48 H17       -53.4241    1.7829  -20.5824 H         1 5Q3         0.2187
     49 H18       -54.5282    0.0519  -26.1431 H         1 5Q3         0.0379
     50 H19       -56.2448    1.6971  -25.6598 H         1 5Q3         0.1289
     51 H20       -56.3307    2.6408  -23.4781 H         1 5Q3         0.2581
     52 H21       -52.0494   -1.1383  -23.7000 H         1 5Q3         0.2238
     53 H22       -50.9661   -2.8801  -24.7650 H         1 5Q3         0.0586
     54 H23       -50.5440   -4.1491  -26.8654 H         1 5Q3         0.0850
     55 H24       -53.3182   -2.2870  -29.9583 H         1 5Q3         0.1824
     56 H25       -54.2209   -1.0021  -29.1116 H         1 5Q3         0.1824
@<TRIPOS>BOND
     1    1   11 1  
     2   13    1 1  
     3    2    4 1  
     4   13    2 1  
     5    7    3 ar 
     6    3    8 ar 
     7    3   14 1  
     8    4   10 1  
     9    6    5 ar 
    10    5    9 ar 
    11    5   13 1  
    12    6    7 ar 
    13    8    9 ar 
    14   10   11 1  
    15   10   12 1  
    16   14   15 am 
    17   15   16 2  
    18   15   17 1  
    19   17   18 2  
    20   17   22 1  
    21   18   19 1  
    22   18   24 1  
    23   19   20 2  
    24   20   21 1  
    25   21   22 am 
    26   22   23 2  
    27   24   25 1  
    28   25   26 ar 
    29   25   30 ar 
    30   26   27 ar 
    31   27   28 ar 
    32   28   29 ar 
    33   29   30 ar 
    34   29   31 1  
    35    1   32 1  
    36    1   33 1  
    37    2   34 1  
    38    2   35 1  
    39    4   36 1  
    40    4   37 1  
    41    6   38 1  
    42    7   39 1  
    43    8   40 1  
    44    9   41 1  
    45   10   42 1  
    46   11   43 1  
    47   11   44 1  
    48   12   45 1  
    49   12   46 1  
    50   12   47 1  
    51   14   48 1  
    52   19   49 1  
    53   20   50 1  
    54   21   51 1  
    55   24   52 1  
    56   26   53 1  
    57   27   54 1  
    58   31   55 1  
    59   31   56 1  
@<TRIPOS>SUBSTRUCTURE
     1 5Q3         1

