### 
### Created by X-TOOL on Mon Sep 10 21:13:23 2018
### 

@<TRIPOS>MOLECULE
5em7_ligand
   60    63     1     0     0
SMALL
GAST_HUCK


@<TRIPOS>ATOM
      1 C4        -51.9450   -0.1330  -14.2280 C.3       1 5Q4         0.0642
      2 C6        -49.5210    0.0920  -14.8220 C.3       1 5Q4         0.0642
      3 C11       -52.2440    0.9430  -19.0190 C.ar      1 5Q4         0.0515
      4 C7        -49.1770   -0.1520  -13.3390 C.3       1 5Q4        -0.0125
      5 C8        -51.3170    0.7120  -16.3600 C.ar      1 5Q4         0.0259
      6 C9        -52.2790    1.6740  -16.7040 C.ar      1 5Q4        -0.0568
      7 C10       -52.7340    1.7840  -18.0130 C.ar      1 5Q4        -0.0521
      8 C12       -51.3040   -0.0400  -18.6770 C.ar      1 5Q4        -0.0521
      9 C13       -50.8470   -0.1540  -17.3680 C.ar      1 5Q4        -0.0568
     10 N2        -50.2410   -0.9440  -12.6840 N.4       1 5Q4         0.2358
     11 C3        -51.5560   -0.2800  -12.7520 C.3       1 5Q4        -0.0125
     12 C1        -49.8910   -1.2660  -11.2920 C.3       1 5Q4        -0.0430
     13 N5        -50.9100    0.5970  -15.0080 N.pl3     1 5Q4        -0.3065
     14 N14       -52.7930    1.0990  -20.3150 N.am      1 5Q4        -0.2506
     15 C15       -52.4950    0.4600  -21.4810 C.2       1 5Q4         0.1911
     16 O16       -51.6190   -0.3850  -21.4880 O.2       1 5Q4        -0.4086
     17 C17       -53.2570    0.7530  -22.7320 C.2       1 5Q4         0.1081
     18 C18       -52.9250    0.1460  -23.9920 C.2       1 5Q4         0.0635
     19 C19       -53.6940    0.4600  -25.1400 C.2       1 5Q4        -0.0042
     20 C20       -54.7480    1.3040  -25.0580 C.2       1 5Q4         0.0691
     21 N21       -55.0750    1.8930  -23.8780 N.am      1 5Q4        -0.2216
     22 C23       -54.3860    1.6500  -22.7350 C.2       1 5Q4         0.1987
     23 O24       -54.7590    2.2370  -21.7310 O.2       1 5Q4        -0.4272
     24 N25       -51.8460   -0.7060  -24.1590 N.pl3     1 5Q4        -0.2703
     25 C26       -51.9070   -2.0780  -24.4620 C.ar      1 5Q4         0.0947
     26 C27       -52.1060   -2.9990  -23.4270 C.ar      1 5Q4        -0.0459
     27 C28       -52.1240   -4.3650  -23.6890 C.ar      1 5Q4        -0.0824
     28 C29       -51.8990   -4.8260  -24.9820 C.ar      1 5Q4        -0.0821
     29 C30       -51.6630   -3.9240  -26.0160 C.ar      1 5Q4        -0.0419
     30 C31       -51.6690   -2.5430  -25.7720 C.ar      1 5Q4         0.1153
     31 O32       -51.4240   -1.6580  -26.7900 O.3       1 5Q4        -0.3250
     32 C33       -52.3560   -1.5390  -27.8760 C.3       1 5Q4         0.0570
     33 H1        -52.8934    0.4205  -14.2917 H         1 5Q4         0.0561
     34 H2        -52.0754   -1.1352  -14.6622 H         1 5Q4         0.0561
     35 H3        -49.4136   -0.8557  -15.3700 H         1 5Q4         0.0561
     36 H4        -48.8182    0.8333  -15.2302 H         1 5Q4         0.0561
     37 H5        -49.0787    0.8161  -12.8261 H         1 5Q4         0.0833
     38 H6        -48.2255   -0.7000  -13.2735 H         1 5Q4         0.0833
     39 H7        -52.6710    2.3376  -15.9418 H         1 5Q4         0.0481
     40 H8        -53.4792    2.5320  -18.2583 H         1 5Q4         0.0473
     41 H9        -50.9309   -0.7158  -19.4380 H         1 5Q4         0.0473
     42 H10       -50.1199   -0.9188  -17.1199 H         1 5Q4         0.0481
     43 H11       -50.3175   -1.8143  -13.1868 H         1 5Q4         0.2032
     44 H12       -52.3076   -0.8887  -12.2280 H         1 5Q4         0.0833
     45 H13       -51.4961    0.7129  -12.2824 H         1 5Q4         0.0833
     46 H14       -48.9083   -1.7596  -11.2658 H         1 5Q4         0.0778
     47 H15       -50.6510   -1.9395  -10.8692 H         1 5Q4         0.0778
     48 H16       -49.8519   -0.3397  -10.7001 H         1 5Q4         0.0778
     49 H17       -53.5144    1.7879  -20.3857 H         1 5Q4         0.2186
     50 H18       -53.4334    0.0165  -26.0999 H         1 5Q4         0.0375
     51 H19       -55.3407    1.5136  -25.9472 H         1 5Q4         0.1286
     52 H20       -55.8486    2.5261  -23.8513 H         1 5Q4         0.2576
     53 H21       -50.9078   -0.2949  -24.0508 H         1 5Q4         0.2136
     54 H22       -52.2473   -2.6447  -22.4123 H         1 5Q4         0.0504
     55 H23       -52.3131   -5.0692  -22.8868 H         1 5Q4         0.0495
     56 H24       -51.9074   -5.8908  -25.1852 H         1 5Q4         0.0493
     57 H25       -51.4731   -4.2922  -27.0177 H         1 5Q4         0.0507
     58 H26       -51.9924   -0.7856  -28.5902 H         1 5Q4         0.0573
     59 H27       -53.3369   -1.2306  -27.4853 H         1 5Q4         0.0573
     60 H28       -52.4525   -2.5097  -28.3844 H         1 5Q4         0.0573
@<TRIPOS>BOND
     1    1   11 1  
     2   13    1 1  
     3    2    4 1  
     4   13    2 1  
     5    7    3 ar 
     6    3    8 ar 
     7    3   14 1  
     8    4   10 1  
     9    6    5 ar 
    10    5    9 ar 
    11    5   13 1  
    12    6    7 ar 
    13    8    9 ar 
    14   10   11 1  
    15   10   12 1  
    16   14   15 am 
    17   15   16 2  
    18   15   17 1  
    19   17   18 2  
    20   17   22 1  
    21   18   19 1  
    22   18   24 1  
    23   19   20 2  
    24   20   21 1  
    25   21   22 am 
    26   22   23 2  
    27   24   25 1  
    28   25   26 ar 
    29   25   30 ar 
    30   26   27 ar 
    31   27   28 ar 
    32   28   29 ar 
    33   29   30 ar 
    34   30   31 1  
    35   31   32 1  
    36    1   33 1  
    37    1   34 1  
    38    2   35 1  
    39    2   36 1  
    40    4   37 1  
    41    4   38 1  
    42    6   39 1  
    43    7   40 1  
    44    8   41 1  
    45    9   42 1  
    46   10   43 1  
    47   11   44 1  
    48   11   45 1  
    49   12   46 1  
    50   12   47 1  
    51   12   48 1  
    52   14   49 1  
    53   19   50 1  
    54   20   51 1  
    55   21   52 1  
    56   24   53 1  
    57   26   54 1  
    58   27   55 1  
    59   28   56 1  
    60   29   57 1  
    61   32   58 1  
    62   32   59 1  
    63   32   60 1  
@<TRIPOS>SUBSTRUCTURE
     1 5Q4         1

