### 
### Created by X-TOOL on Mon Sep 10 21:13:24 2018
### 

@<TRIPOS>MOLECULE
5em8_ligand
   60    63     1     0     0
SMALL
GAST_HUCK


@<TRIPOS>ATOM
      1 C4        -52.9050   -0.2090  -14.1220 C.3       1 5Q4         0.0642
      2 C6        -50.4370    0.0140  -14.4630 C.3       1 5Q4         0.0642
      3 C11       -52.8400    0.6210  -18.9590 C.ar      1 5Q4         0.0515
      4 C7        -50.2630   -0.0370  -12.9320 C.3       1 5Q4        -0.0125
      5 C8        -52.0880    0.5140  -16.2410 C.ar      1 5Q4         0.0259
      6 C9        -51.4460   -0.3010  -17.1950 C.ar      1 5Q4        -0.0568
      7 C10       -51.8120   -0.2420  -18.5380 C.ar      1 5Q4        -0.0521
      8 C12       -53.4830    1.4170  -18.0100 C.ar      1 5Q4        -0.0521
      9 C13       -53.1100    1.3700  -16.6750 C.ar      1 5Q4        -0.0568
     10 N2        -51.3930   -0.7790  -12.3310 N.4       1 5Q4         0.2358
     11 C3        -52.6870   -0.1300  -12.6050 C.3       1 5Q4        -0.0125
     12 C1        -51.2050   -1.0500  -10.8970 C.3       1 5Q4        -0.0430
     13 N5        -51.8030    0.4690  -14.8500 N.pl3     1 5Q4        -0.3065
     14 N14       -53.3190    0.7390  -20.2830 N.am      1 5Q4        -0.2506
     15 C15       -53.0060    0.0410  -21.4100 C.2       1 5Q4         0.1911
     16 O16       -52.1740   -0.8470  -21.3460 O.2       1 5Q4        -0.4086
     17 C17       -53.7160    0.3280  -22.6990 C.2       1 5Q4         0.1081
     18 C18       -53.3650   -0.3260  -23.9390 C.2       1 5Q4         0.0635
     19 C19       -54.1050    0.0010  -25.1120 C.2       1 5Q4        -0.0042
     20 C20       -55.1410    0.8720  -25.0830 C.2       1 5Q4         0.0691
     21 N21       -55.4720    1.5000  -23.9240 N.am      1 5Q4        -0.2216
     22 C23       -54.8160    1.2720  -22.7550 C.2       1 5Q4         0.1987
     23 O24       -55.2030    1.9120  -21.7810 O.2       1 5Q4        -0.4272
     24 N25       -52.3010   -1.2250  -24.0500 N.pl3     1 5Q4        -0.2703
     25 C26       -52.3330   -2.5000  -24.6640 C.ar      1 5Q4         0.0947
     26 C27       -52.6550   -2.6320  -26.0290 C.ar      1 5Q4        -0.0459
     27 C28       -52.6990   -3.8830  -26.6370 C.ar      1 5Q4        -0.0824
     28 C29       -52.3640   -5.0200  -25.9010 C.ar      1 5Q4        -0.0821
     29 C30       -52.0260   -4.9140  -24.5510 C.ar      1 5Q4        -0.0419
     30 C31       -51.9740   -3.6580  -23.9260 C.ar      1 5Q4         0.1153
     31 O32       -51.6040   -3.5820  -22.6030 O.3       1 5Q4        -0.3250
     32 C33       -50.2090   -3.4370  -22.2690 C.3       1 5Q4         0.0570
     33 H1        -53.8579    0.2788  -14.3751 H         1 5Q4         0.0561
     34 H2        -52.9416   -1.2654  -14.4264 H         1 5Q4         0.0561
     35 H3        -50.2669   -0.9919  -14.8744 H         1 5Q4         0.0561
     36 H4        -49.6972    0.7117  -14.8824 H         1 5Q4         0.0561
     37 H5        -50.2424    0.9871  -12.5311 H         1 5Q4         0.0833
     38 H6        -49.3189   -0.5457  -12.6871 H         1 5Q4         0.0833
     39 H7        -50.6609   -0.9794  -16.8812 H         1 5Q4         0.0481
     40 H8        -51.3013   -0.8652  -19.2632 H         1 5Q4         0.0473
     41 H9        -54.2831    2.0795  -18.3198 H         1 5Q4         0.0473
     42 H10       -53.6162    2.0045  -15.9565 H         1 5Q4         0.0481
     43 H11       -51.4190   -1.6767  -12.7887 H         1 5Q4         0.2032
     44 H12       -53.4953   -0.6576  -12.0775 H         1 5Q4         0.0833
     45 H13       -52.6611    0.9204  -12.2795 H         1 5Q4         0.0833
     46 H14       -50.2293   -1.5331  -10.7400 H         1 5Q4         0.0778
     47 H15       -52.0052   -1.7159  -10.5417 H         1 5Q4         0.0778
     48 H16       -51.2399   -0.1037  -10.3373 H         1 5Q4         0.0778
     49 H17       -54.0034    1.4561  -20.4150 H         1 5Q4         0.2186
     50 H18       -53.8295   -0.4626  -26.0581 H         1 5Q4         0.0375
     51 H19       -55.7102    1.0698  -25.9901 H         1 5Q4         0.1286
     52 H20       -56.2274    2.1552  -23.9313 H         1 5Q4         0.2576
     53 H21       -51.4018   -0.9298  -23.6436 H         1 5Q4         0.2136
     54 H22       -52.8718   -1.7459  -26.6145 H         1 5Q4         0.0504
     55 H23       -52.9919   -3.9736  -27.6767 H         1 5Q4         0.0495
     56 H24       -52.3663   -5.9920  -26.3808 H         1 5Q4         0.0493
     57 H25       -51.8019   -5.8083  -23.9808 H         1 5Q4         0.0507
     58 H26       -50.0964   -3.3929  -21.1757 H         1 5Q4         0.0573
     59 H27       -49.8195   -2.5102  -22.7154 H         1 5Q4         0.0573
     60 H28       -49.6467   -4.2973  -22.6610 H         1 5Q4         0.0573
@<TRIPOS>BOND
     1    1   11 1  
     2   13    1 1  
     3    2    4 1  
     4   13    2 1  
     5    7    3 ar 
     6    3    8 ar 
     7    3   14 1  
     8    4   10 1  
     9    6    5 ar 
    10    5    9 ar 
    11    5   13 1  
    12    6    7 ar 
    13    8    9 ar 
    14   10   11 1  
    15   10   12 1  
    16   14   15 am 
    17   15   16 2  
    18   15   17 1  
    19   17   18 2  
    20   17   22 1  
    21   18   19 1  
    22   18   24 1  
    23   19   20 2  
    24   20   21 1  
    25   21   22 am 
    26   22   23 2  
    27   24   25 1  
    28   25   26 ar 
    29   25   30 ar 
    30   26   27 ar 
    31   27   28 ar 
    32   28   29 ar 
    33   29   30 ar 
    34   30   31 1  
    35   31   32 1  
    36    1   33 1  
    37    1   34 1  
    38    2   35 1  
    39    2   36 1  
    40    4   37 1  
    41    4   38 1  
    42    6   39 1  
    43    7   40 1  
    44    8   41 1  
    45    9   42 1  
    46   10   43 1  
    47   11   44 1  
    48   11   45 1  
    49   12   46 1  
    50   12   47 1  
    51   12   48 1  
    52   14   49 1  
    53   19   50 1  
    54   20   51 1  
    55   21   52 1  
    56   24   53 1  
    57   26   54 1  
    58   27   55 1  
    59   28   56 1  
    60   29   57 1  
    61   32   58 1  
    62   32   59 1  
    63   32   60 1  
@<TRIPOS>SUBSTRUCTURE
     1 5Q4         1

