### 
### Created by X-TOOL on Mon Sep 10 21:13:29 2018
### 

@<TRIPOS>MOLECULE
5emj_ligand
   59    63     1     0     0
SMALL
GAST_HUCK


@<TRIPOS>ATOM
      1 CAV        23.0450  -44.7790  -10.5560 C.3       1 5QJ        -0.0219
      2 CAW        23.5970  -43.4980   -9.9310 C.3       1 5QJ         0.0190
      3 CAX        23.4050  -43.4590   -8.5230 C.ar      1 5QJ        -0.0309
      4 CBD        24.1290  -42.5030   -7.7890 C.ar      1 5QJ        -0.0665
      5 CBC        23.9900  -42.4350   -6.3990 C.ar      1 5QJ        -0.0755
      6 CBB        23.1030  -43.2960   -5.7200 C.ar      1 5QJ        -0.0753
      7 CBA        22.3560  -44.2390   -6.4400 C.ar      1 5QJ        -0.0618
      8 CAY        22.5050  -44.3240   -7.8340 C.ar      1 5QJ         0.0035
      9 CAZ        21.7670  -45.2950   -8.4910 C.3       1 5QJ        -0.0001
     10 NAU        21.7500  -45.1350   -9.9520 N.4       1 5QJ         0.2494
     11 CAT        21.2400  -46.3960  -10.5040 C.3       1 5QJ        -0.0019
     12 CAR        19.7510  -46.5510  -10.1110 C.3       1 5QJ         0.1144
     13 OAS        19.0710  -45.3510  -10.3820 O.3       1 5QJ        -0.3845
     14 CAQ        19.0430  -47.6270  -10.9100 C.3       1 5QJ         0.0575
     15 NAP        19.7490  -48.8950  -10.7580 N.pl3     1 5QJ        -0.3061
     16 CAO        19.6820  -49.7180   -9.7160 C.ar      1 5QJ         0.1086
     17 CBE        20.8900  -50.0620   -9.1130 C.ar      1 5QJ        -0.0121
     18 NAN        18.5090  -50.2460   -9.2830 N.ar      1 5QJ        -0.2885
     19 CAM        18.5050  -51.1550   -8.1900 C.ar      1 5QJ        -0.0060
     20 CAL        19.7230  -51.4930   -7.5740 C.ar      1 5QJ        -0.0430
     21 CAK        20.9380  -50.9400   -8.0290 C.ar      1 5QJ        -0.0174
     22 CAH        22.1790  -51.2680   -7.4330 C.ar      1 5QJ        -0.0245
     23 CAG        23.2010  -51.9350   -8.1450 C.ar      1 5QJ        -0.0281
     24 CAF        24.3710  -52.2380   -7.5480 C.ar      1 5QJ         0.0886
     25 NAB        25.4790  -52.8570   -7.9870 N.pl3     1 5QJ        -0.2384
     26 CAA        25.8020  -53.4430   -9.3170 C.3       1 5QJ         0.0467
     27 CAC        26.3540  -52.9110   -6.9910 C.2       1 5QJ         0.1068
     28 NAD        25.8020  -52.3270   -5.9300 N.2       1 5QJ        -0.3039
     29 CAE        24.5890  -51.9110   -6.2570 C.ar      1 5QJ         0.0360
     30 CAJ        23.6700  -51.2740   -5.5250 C.ar      1 5QJ        -0.0584
     31 CAI        22.4320  -50.9320   -6.0970 C.ar      1 5QJ        -0.0653
     32 H1         23.7590  -45.5991  -10.3895 H         1 5QJ         0.0837
     33 H2         22.9094  -44.6245  -11.6366 H         1 5QJ         0.0837
     34 H3         23.0850  -42.6352  -10.3819 H         1 5QJ         0.0463
     35 H4         24.6746  -43.4368  -10.1429 H         1 5QJ         0.0463
     36 H5         24.7954  -41.8182   -8.3008 H         1 5QJ         0.0537
     37 H6         24.5706  -41.7123   -5.8371 H         1 5QJ         0.0541
     38 H7         22.9990  -43.2288   -4.6431 H         1 5QJ         0.0541
     39 H8         21.6676  -44.8985   -5.9239 H         1 5QJ         0.0539
     40 H9         20.7308  -45.2511   -8.1246 H         1 5QJ         0.0965
     41 H10        22.1983  -46.2788   -8.2542 H         1 5QJ         0.0965
     42 H11        21.1032  -44.3955  -10.1774 H         1 5QJ         0.2049
     43 H12        21.8187  -47.2380  -10.0965 H         1 5QJ         0.0841
     44 H13        21.3329  -46.3834  -11.6000 H         1 5QJ         0.0841
     45 H14        19.6887  -46.7890   -9.0389 H         1 5QJ         0.0667
     46 H15        18.1569  -45.4450  -10.1412 H         1 5QJ         0.2101
     47 H16        19.0263  -47.3426  -11.9725 H         1 5QJ         0.0544
     48 H17        18.0117  -47.7362  -10.5433 H         1 5QJ         0.0544
     49 H18        20.3605  -49.1811  -11.5359 H         1 5QJ         0.1800
     50 H19        21.8124  -49.6387   -9.4939 H         1 5QJ         0.0597
     51 H20        17.5740  -51.5825   -7.8356 H         1 5QJ         0.0773
     52 H21        19.7282  -52.1860   -6.7405 H         1 5QJ         0.0593
     53 H22        23.0425  -52.2060   -9.1825 H         1 5QJ         0.0575
     54 H23        26.8169  -53.8667   -9.2943 H         1 5QJ         0.0571
     55 H24        25.7494  -52.6583  -10.0860 H         1 5QJ         0.0571
     56 H25        25.0784  -54.2371   -9.5533 H         1 5QJ         0.0571
     57 H26        27.3477  -53.3545   -7.0340 H         1 5QJ         0.1361
     58 H27        23.8788  -51.0214   -4.4917 H         1 5QJ         0.0562
     59 H28        21.6817  -50.4141   -5.5106 H         1 5QJ         0.0545
@<TRIPOS>BOND
     1    1    2 1  
     2    1   10 1  
     3    2    3 1  
     4    3    4 ar 
     5    3    8 ar 
     6    4    5 ar 
     7    5    6 ar 
     8    6    7 ar 
     9    7    8 ar 
    10    8    9 1  
    11    9   10 1  
    12   10   11 1  
    13   11   12 1  
    14   12   13 1  
    15   12   14 1  
    16   14   15 1  
    17   15   16 1  
    18   16   17 ar 
    19   16   18 ar 
    20   17   21 ar 
    21   18   19 ar 
    22   19   20 ar 
    23   20   21 ar 
    24   21   22 1  
    25   22   23 ar 
    26   22   31 ar 
    27   23   24 ar 
    28   24   25 1  
    29   24   29 ar 
    30   25   26 1  
    31   25   27 1  
    32   27   28 2  
    33   28   29 1  
    34   29   30 ar 
    35   30   31 ar 
    36    1   32 1  
    37    1   33 1  
    38    2   34 1  
    39    2   35 1  
    40    4   36 1  
    41    5   37 1  
    42    6   38 1  
    43    7   39 1  
    44    9   40 1  
    45    9   41 1  
    46   10   42 1  
    47   11   43 1  
    48   11   44 1  
    49   12   45 1  
    50   13   46 1  
    51   14   47 1  
    52   14   48 1  
    53   15   49 1  
    54   17   50 1  
    55   19   51 1  
    56   20   52 1  
    57   23   53 1  
    58   26   54 1  
    59   26   55 1  
    60   26   56 1  
    61   27   57 1  
    62   30   58 1  
    63   31   59 1  
@<TRIPOS>SUBSTRUCTURE
     1 5QJ         1

