### 
### Created by X-TOOL on Mon Sep 10 21:13:29 2018
### 

@<TRIPOS>MOLECULE
5emk_ligand
   55    58     1     0     0
SMALL
GAST_HUCK


@<TRIPOS>ATOM
      1 CAU        22.7150  -44.4170  -10.6530 C.3       1 5QH        -0.0219
      2 CAV        22.9620  -43.0370  -10.2120 C.3       1 5QH         0.0190
      3 CAW        22.9500  -42.9680   -8.8060 C.ar      1 5QH        -0.0309
      4 CBC        23.7070  -41.9750   -8.1600 C.ar      1 5QH        -0.0665
      5 CBB        23.7340  -41.8690   -6.7690 C.ar      1 5QH        -0.0755
      6 CBA        22.9770  -42.7540   -5.9920 C.ar      1 5QH        -0.0753
      7 CAZ        22.2160  -43.7440   -6.6160 C.ar      1 5QH        -0.0618
      8 CAX        22.1990  -43.8610   -8.0150 C.ar      1 5QH         0.0035
      9 CAY        21.4270  -44.8790   -8.5800 C.3       1 5QH        -0.0001
     10 NAT        21.4780  -44.9160  -10.0530 N.4       1 5QH         0.2494
     11 CAS        21.1320  -46.2590  -10.5460 C.3       1 5QH        -0.0019
     12 CAB        19.5990  -46.4610  -10.3950 C.3       1 5QH         0.1147
     13 OAA        18.9310  -45.2730  -10.7510 O.3       1 5QH        -0.3845
     14 CAC        19.1290  -47.6300  -11.2510 C.3       1 5QH         0.0614
     15 NAD        19.6980  -48.7690  -10.5270 N.am      1 5QH        -0.2834
     16 CAE        19.0620  -49.4360   -9.5530 C.2       1 5QH         0.2055
     17 OAF        17.8940  -49.2110   -9.2330 O.2       1 5QH        -0.3846
     18 CAG        19.8100  -50.4330   -8.8980 C.ar      1 5QH         0.0523
     19 CAH        21.1920  -50.5980   -9.0950 C.ar      1 5QH        -0.0307
     20 CAL        19.1550  -51.2720   -7.9940 C.ar      1 5QH        -0.0403
     21 CAK        19.8410  -52.2720   -7.3050 C.ar      1 5QH        -0.0539
     22 CAJ        21.2050  -52.4330   -7.5110 C.ar      1 5QH        -0.0466
     23 CAI        21.8830  -51.6020   -8.4000 C.ar      1 5QH         0.0052
     24 CAM        23.2490  -51.8080   -8.5690 C.ar      1 5QH         0.0536
     25 NAN        23.7900  -51.7170   -9.8090 N.ar      1 5QH        -0.2918
     26 CAO        25.1700  -51.9250  -10.0020 C.ar      1 5QH         0.0099
     27 CAP        25.9600  -52.2380   -8.8920 C.ar      1 5QH        -0.0345
     28 CAQ        25.4110  -52.3320   -7.6110 C.ar      1 5QH        -0.0422
     29 CAR        24.0450  -52.1140   -7.4470 C.ar      1 5QH        -0.0269
     30 H1         23.5550  -45.0555  -10.3419 H         1 5QH         0.0837
     31 H2         22.6238  -44.4392  -11.7490 H         1 5QH         0.0837
     32 H3         22.1768  -42.3804  -10.6150 H         1 5QH         0.0463
     33 H4         23.9430  -42.7065  -10.5839 H         1 5QH         0.0463
     34 H5         24.2826  -41.2760   -8.7559 H         1 5QH         0.0537
     35 H6         24.3380  -41.1054   -6.2924 H         1 5QH         0.0541
     36 H7         22.9818  -42.6709   -4.9112 H         1 5QH         0.0541
     37 H8         21.6316  -44.4301   -6.0137 H         1 5QH         0.0539
     38 H9         20.3810  -44.7324   -8.2727 H         1 5QH         0.0965
     39 H10        21.7902  -45.8437   -8.1960 H         1 5QH         0.0965
     40 H11        20.7508  -44.2948  -10.3712 H         1 5QH         0.2049
     41 H12        21.6660  -47.0192   -9.9570 H         1 5QH         0.0841
     42 H13        21.4154  -46.3497  -11.6050 H         1 5QH         0.0841
     43 H14        19.3745  -46.6884   -9.3424 H         1 5QH         0.0667
     44 H15        17.9939  -45.3980  -10.6582 H         1 5QH         0.2101
     45 H16        19.5274  -47.5646  -12.2742 H         1 5QH         0.0547
     46 H17        18.0310  -47.6852  -11.2879 H         1 5QH         0.0547
     47 H18        20.6194  -49.0683  -10.7748 H         1 5QH         0.1846
     48 H19        21.7232  -49.9503   -9.7830 H         1 5QH         0.0693
     49 H20        18.0921  -51.1435   -7.8244 H         1 5QH         0.0682
     50 H21        19.3133  -52.9190   -6.6136 H         1 5QH         0.0633
     51 H22        21.7439  -53.2080   -6.9781 H         1 5QH         0.0674
     52 H23        25.6096  -51.8441  -10.9896 H         1 5QH         0.0826
     53 H24        27.0213  -52.4115   -9.0283 H         1 5QH         0.0705
     54 H25        26.0373  -52.5705   -6.7590 H         1 5QH         0.0735
     55 H26        23.5969  -52.1793   -6.4621 H         1 5QH         0.0715
@<TRIPOS>BOND
     1    1    2 1  
     2    1   10 1  
     3    2    3 1  
     4    3    4 ar 
     5    3    8 ar 
     6    4    5 ar 
     7    5    6 ar 
     8    6    7 ar 
     9    7    8 ar 
    10    8    9 1  
    11    9   10 1  
    12   10   11 1  
    13   11   12 1  
    14   12   13 1  
    15   12   14 1  
    16   14   15 1  
    17   15   16 am 
    18   16   17 2  
    19   16   18 1  
    20   18   19 ar 
    21   18   20 ar 
    22   19   23 ar 
    23   20   21 ar 
    24   21   22 ar 
    25   22   23 ar 
    26   23   24 1  
    27   24   25 ar 
    28   24   29 ar 
    29   25   26 ar 
    30   26   27 ar 
    31   27   28 ar 
    32   28   29 ar 
    33    1   30 1  
    34    1   31 1  
    35    2   32 1  
    36    2   33 1  
    37    4   34 1  
    38    5   35 1  
    39    6   36 1  
    40    7   37 1  
    41    9   38 1  
    42    9   39 1  
    43   10   40 1  
    44   11   41 1  
    45   11   42 1  
    46   12   43 1  
    47   13   44 1  
    48   14   45 1  
    49   14   46 1  
    50   15   47 1  
    51   19   48 1  
    52   20   49 1  
    53   21   50 1  
    54   22   51 1  
    55   26   52 1  
    56   27   53 1  
    57   28   54 1  
    58   29   55 1  
@<TRIPOS>SUBSTRUCTURE
     1 5QH         1

