### 
### Created by X-TOOL on Mon Sep 10 21:13:29 2018
### 

@<TRIPOS>MOLECULE
5eml_ligand
   55    58     1     0     0
SMALL
GAST_HUCK


@<TRIPOS>ATOM
      1 CAU        22.7280  -44.7520  -10.7420 C.3       1 5QK        -0.0219
      2 CAV        23.1200  -43.3720  -10.2370 C.3       1 5QK         0.0190
      3 CAW        23.0700  -43.3370   -8.8340 C.ar      1 5QK        -0.0309
      4 CBC        23.7980  -42.3410   -8.1640 C.ar      1 5QK        -0.0665
      5 CBB        23.7710  -42.2820   -6.7720 C.ar      1 5QK        -0.0755
      6 CBA        23.0130  -43.1980   -6.0400 C.ar      1 5QK        -0.0753
      7 CAZ        22.2860  -44.1970   -6.6860 C.ar      1 5QK        -0.0618
      8 CAX        22.3100  -44.2730   -8.0840 C.ar      1 5QK         0.0035
      9 CAY        21.5630  -45.2920   -8.6820 C.3       1 5QK        -0.0001
     10 NAT        21.4620  -45.2330  -10.1520 N.4       1 5QK         0.2494
     11 CAS        21.1770  -46.5980  -10.6690 C.3       1 5QK        -0.0019
     12 CAB        19.6720  -46.8660  -11.0230 C.3       1 5QK         0.1147
     13 OAA        18.8640  -46.0290  -10.2070 O.3       1 5QK        -0.3845
     14 CAC        19.2460  -48.3600  -10.8680 C.3       1 5QK         0.0619
     15 NAD        20.4180  -49.2340  -10.5810 N.am      1 5QK        -0.2820
     16 CAE        21.2910  -49.7000  -11.5430 C.2       1 5QK         0.2074
     17 OAF        21.2020  -49.4980  -12.7610 O.2       1 5QK        -0.3941
     18 CAG        22.4660  -50.5530  -11.0340 C.3       1 5QK         0.1610
     19 OAH        22.1310  -51.2050   -9.7940 O.3       1 5QK        -0.2908
     20 CAI        23.2530  -51.6650   -9.1960 C.ar      1 5QK         0.1224
     21 CAJ        23.3530  -51.4600   -7.8130 C.ar      1 5QK         0.0829
     22 NAK        22.3760  -50.8250   -7.1220 N.ar      1 5QK        -0.2939
     23 CAL        22.5020  -50.6130   -5.7230 C.ar      1 5QK         0.0089
     24 CAM        23.6400  -51.0620   -5.0430 C.ar      1 5QK        -0.0343
     25 CAN        24.6430  -51.7190   -5.7600 C.ar      1 5QK        -0.0389
     26 CAO        24.4990  -51.9170   -7.1400 C.ar      1 5QK        -0.0007
     27 CAP        25.4990  -52.5700   -7.8680 C.ar      1 5QK        -0.0604
     28 CAQ        25.3800  -52.7710   -9.2470 C.ar      1 5QK        -0.0692
     29 CAR        24.2520  -52.3170   -9.9220 C.ar      1 5QK        -0.0284
     30 H1         23.5284  -45.4617  -10.4857 H         1 5QK         0.0837
     31 H2         22.6131  -44.7079  -11.8351 H         1 5QK         0.0837
     32 H3         22.4232  -42.6246  -10.6442 H         1 5QK         0.0463
     33 H4         24.1424  -43.1400  -10.5700 H         1 5QK         0.0463
     34 H5         24.3792  -41.6202   -8.7276 H         1 5QK         0.0537
     35 H6         24.3422  -41.5200   -6.2541 H         1 5QK         0.0541
     36 H7         22.9895  -43.1318   -4.9583 H         1 5QK         0.0541
     37 H8         21.7065  -44.9096   -6.1103 H         1 5QK         0.0539
     38 H9         20.5434  -45.2491   -8.2713 H         1 5QK         0.0965
     39 H10        22.0264  -46.2528   -8.4135 H         1 5QK         0.0965
     40 H11        20.7143  -44.6085  -10.4109 H         1 5QK         0.2049
     41 H12        21.4830  -47.3252   -9.9025 H         1 5QK         0.0841
     42 H13        21.7752  -46.7511  -11.5793 H         1 5QK         0.0841
     43 H14        19.5164  -46.5852  -12.0751 H         1 5QK         0.0667
     44 H15        17.9482  -46.1797  -10.4097 H         1 5QK         0.2101
     45 H16        18.7703  -48.6949  -11.8015 H         1 5QK         0.0547
     46 H17        18.5269  -48.4428  -10.0397 H         1 5QK         0.0547
     47 H18        20.5825  -49.4998   -9.6311 H         1 5QK         0.1852
     48 H19        23.3394  -49.9037  -10.8745 H         1 5QK         0.0864
     49 H20        22.7094  -51.3165  -11.7876 H         1 5QK         0.0864
     50 H21        21.7147  -50.1021   -5.1806 H         1 5QK         0.0839
     51 H22        23.7416  -50.9023   -3.9757 H         1 5QK         0.0690
     52 H23        25.5309  -52.0749   -5.2500 H         1 5QK         0.0748
     53 H24        26.3836  -52.9273   -7.3533 H         1 5QK         0.0523
     54 H25        26.1675  -53.2810   -9.7900 H         1 5QK         0.0605
     55 H26        24.1502  -52.4663  -10.9908 H         1 5QK         0.0533
@<TRIPOS>BOND
     1    1    2 1  
     2    1   10 1  
     3    2    3 1  
     4    3    4 ar 
     5    3    8 ar 
     6    4    5 ar 
     7    5    6 ar 
     8    6    7 ar 
     9    7    8 ar 
    10    8    9 1  
    11    9   10 1  
    12   10   11 1  
    13   11   12 1  
    14   12   13 1  
    15   12   14 1  
    16   14   15 1  
    17   15   16 am 
    18   16   17 2  
    19   16   18 1  
    20   18   19 1  
    21   19   20 1  
    22   20   21 ar 
    23   20   29 ar 
    24   21   22 ar 
    25   21   26 ar 
    26   22   23 ar 
    27   23   24 ar 
    28   24   25 ar 
    29   25   26 ar 
    30   26   27 ar 
    31   27   28 ar 
    32   28   29 ar 
    33    1   30 1  
    34    1   31 1  
    35    2   32 1  
    36    2   33 1  
    37    4   34 1  
    38    5   35 1  
    39    6   36 1  
    40    7   37 1  
    41    9   38 1  
    42    9   39 1  
    43   10   40 1  
    44   11   41 1  
    45   11   42 1  
    46   12   43 1  
    47   13   44 1  
    48   14   45 1  
    49   14   46 1  
    50   15   47 1  
    51   18   48 1  
    52   18   49 1  
    53   23   50 1  
    54   24   51 1  
    55   25   52 1  
    56   27   53 1  
    57   28   54 1  
    58   29   55 1  
@<TRIPOS>SUBSTRUCTURE
     1 5QK         1

