### 
### Created by X-TOOL on Mon Sep 10 21:13:30 2018
### 

@<TRIPOS>MOLECULE
5emm_ligand
   62    65     1     0     0
SMALL
GAST_HUCK


@<TRIPOS>ATOM
      1 CAV        22.9070  -44.6730  -10.6760 C.3       1 5QL        -0.0219
      2 CAW        23.1350  -43.2580  -10.2810 C.3       1 5QL         0.0190
      3 CAX        23.0400  -43.1650   -8.8970 C.ar      1 5QL        -0.0309
      4 CBD        23.7730  -42.1650   -8.2350 C.ar      1 5QL        -0.0665
      5 CBC        23.7160  -42.0570   -6.8400 C.ar      1 5QL        -0.0755
      6 CBB        22.9250  -42.9460   -6.0950 C.ar      1 5QL        -0.0753
      7 CBA        22.1940  -43.9440   -6.7450 C.ar      1 5QL        -0.0618
      8 CAY        22.2480  -44.0550   -8.1430 C.ar      1 5QL         0.0035
      9 CAZ        21.5210  -45.0870   -8.7380 C.3       1 5QL        -0.0001
     10 NAU        21.5660  -45.0740  -10.2090 N.4       1 5QL         0.2494
     11 CAT        21.2190  -46.4260  -10.6860 C.3       1 5QL        -0.0019
     12 CAB        19.7580  -46.8410  -10.2590 C.3       1 5QL         0.1147
     13 OAA        18.8460  -45.7730  -10.4420 O.3       1 5QL        -0.3845
     14 CAC        19.3020  -48.1070  -11.0050 C.3       1 5QL         0.0614
     15 NAD        20.3900  -49.0560  -10.7100 N.am      1 5QL        -0.2836
     16 CAE        21.1910  -49.5750  -11.6490 C.2       1 5QL         0.2019
     17 OAF        21.0540  -49.3650  -12.8600 O.2       1 5QL        -0.3847
     18 CAG        22.2290  -50.3760  -11.1470 C.ar      1 5QL         0.0381
     19 CAH        23.4470  -50.4370  -11.8270 C.ar      1 5QL        -0.0249
     20 CAS        22.0820  -51.0900   -9.9420 C.ar      1 5QL        -0.0553
     21 CAR        23.1190  -51.8770   -9.4320 C.ar      1 5QL        -0.0680
     22 CAQ        24.3140  -51.9410  -10.1400 C.ar      1 5QL        -0.0402
     23 CAI        24.4980  -51.2100  -11.3210 C.ar      1 5QL         0.0435
     24 NAJ        25.6220  -51.2680  -12.0580 N.pl3     1 5QL        -0.3191
     25 CAK        27.0580  -51.2170  -11.6610 C.3       1 5QL         0.0393
     26 CAL        27.8920  -52.1440  -12.5630 C.3       1 5QL        -0.0070
     27 CAM        29.3580  -51.8250  -12.3070 C.3       1 5QL         0.0497
     28 OAN        29.6790  -52.0430  -10.9170 O.3       1 5QL        -0.3796
     29 CAO        28.8890  -51.2770   -9.9940 C.3       1 5QL         0.0497
     30 CAP        27.3840  -51.5630  -10.2070 C.3       1 5QL        -0.0070
     31 H1         23.6698  -45.3160  -10.2128 H         1 5QL         0.0837
     32 H2         22.9633  -44.7674  -11.7705 H         1 5QL         0.0837
     33 H3         22.3749  -42.6151  -10.7490 H         1 5QL         0.0463
     34 H4         24.1361  -42.9387  -10.6063 H         1 5QL         0.0463
     35 H5         24.3842  -41.4754   -8.8059 H         1 5QL         0.0537
     36 H6         24.2842  -41.2849   -6.3340 H         1 5QL         0.0541
     37 H7         22.8813  -42.8583   -5.0154 H         1 5QL         0.0541
     38 H8         21.5854  -44.6322   -6.1696 H         1 5QL         0.0539
     39 H9         20.4710  -44.9982   -8.4224 H         1 5QL         0.0965
     40 H10        21.9296  -46.0461   -8.3871 H         1 5QL         0.0965
     41 H11        20.8893  -44.4141  -10.5593 H         1 5QL         0.2049
     42 H12        21.9325  -47.1475  -10.2612 H         1 5QL         0.0841
     43 H13        21.2880  -46.4449  -11.7837 H         1 5QL         0.0841
     44 H14        19.7796  -47.0780   -9.1851 H         1 5QL         0.0667
     45 H15        17.9770  -46.0512  -10.1774 H         1 5QL         0.2101
     46 H16        19.2165  -47.9230  -12.0861 H         1 5QL         0.0547
     47 H17        18.3393  -48.4722  -10.6179 H         1 5QL         0.0547
     48 H18        20.5378  -49.3265   -9.7587 H         1 5QL         0.1846
     49 H19        23.5788  -49.8838  -12.7498 H         1 5QL         0.0565
     50 H20        21.1459  -51.0281   -9.3989 H         1 5QL         0.0557
     51 H21        22.9941  -52.4251   -8.5052 H         1 5QL         0.0594
     52 H22        25.1179  -52.5679   -9.7715 H         1 5QL         0.0550
     53 H23        25.4630  -51.3642  -13.0711 H         1 5QL         0.1757
     54 H24        27.3916  -50.1820  -11.8271 H         1 5QL         0.0549
     55 H25        27.6461  -51.9621  -13.6196 H         1 5QL         0.0309
     56 H26        27.6866  -53.1957  -12.3145 H         1 5QL         0.0309
     57 H27        29.5515  -50.7731  -12.5641 H         1 5QL         0.0560
     58 H28        29.9864  -52.4768  -12.9317 H         1 5QL         0.0560
     59 H29        29.0807  -50.2058  -10.1546 H         1 5QL         0.0560
     60 H30        29.1677  -51.5492   -8.9653 H         1 5QL         0.0560
     61 H31        27.1718  -52.6253  -10.0159 H         1 5QL         0.0309
     62 H32        26.7826  -50.9409   -9.5278 H         1 5QL         0.0309
@<TRIPOS>BOND
     1    1    2 1  
     2    1   10 1  
     3    2    3 1  
     4    3    4 ar 
     5    3    8 ar 
     6    4    5 ar 
     7    5    6 ar 
     8    6    7 ar 
     9    7    8 ar 
    10    8    9 1  
    11    9   10 1  
    12   10   11 1  
    13   11   12 1  
    14   12   13 1  
    15   12   14 1  
    16   14   15 1  
    17   15   16 am 
    18   16   17 2  
    19   16   18 1  
    20   18   19 ar 
    21   18   20 ar 
    22   19   23 ar 
    23   20   21 ar 
    24   21   22 ar 
    25   22   23 ar 
    26   23   24 1  
    27   24   25 1  
    28   25   26 1  
    29   25   30 1  
    30   26   27 1  
    31   27   28 1  
    32   28   29 1  
    33   29   30 1  
    34    1   31 1  
    35    1   32 1  
    36    2   33 1  
    37    2   34 1  
    38    4   35 1  
    39    5   36 1  
    40    6   37 1  
    41    7   38 1  
    42    9   39 1  
    43    9   40 1  
    44   10   41 1  
    45   11   42 1  
    46   11   43 1  
    47   12   44 1  
    48   13   45 1  
    49   14   46 1  
    50   14   47 1  
    51   15   48 1  
    52   19   49 1  
    53   20   50 1  
    54   21   51 1  
    55   22   52 1  
    56   24   53 1  
    57   25   54 1  
    58   26   55 1  
    59   26   56 1  
    60   27   57 1  
    61   27   58 1  
    62   29   59 1  
    63   29   60 1  
    64   30   61 1  
    65   30   62 1  
@<TRIPOS>SUBSTRUCTURE
     1 5QL         1

