### 
### Created by X-TOOL on Mon Sep 10 21:13:25 2018
### 

@<TRIPOS>MOLECULE
5en3_ligand
   30    32     1     0     0
SMALL
GAST_HUCK


@<TRIPOS>ATOM
      1 CL1        -1.0190    3.0820   21.1180 Cl        1 7LU        -0.0721
      2 C16        -0.5110    1.6840   22.0030 C.ar      1 7LU         0.0299
      3 C15        -0.4940    1.7400   23.3800 C.ar      1 7LU        -0.0171
      4 C18        -0.1730    0.5420   21.3100 C.ar      1 7LU        -0.0232
      5 C19         0.1760   -0.5940   22.0120 C.ar      1 7LU         0.1012
      6 O20         0.4890   -1.7160   21.3130 O.3       1 7LU        -0.3302
      7 C21         0.1950   -0.5880   23.4190 C.ar      1 7LU         0.0873
      8 C02         0.5360   -1.7550   24.1950 C.2       1 7LU         0.1039
      9 O01         0.8140   -2.8390   23.6640 O.2       1 7LU        -0.4233
     10 C14        -0.1460    0.6020   24.0690 C.ar      1 7LU         0.1373
     11 O13        -0.1750    0.6860   25.4480 O.3       1 7LU        -0.2406
     12 C04         0.1340   -0.4120   26.1930 C.2       1 7LU         0.1336
     13 C03         0.4930   -1.5770   25.6240 C.2       1 7LU         0.0042
     14 C05        -0.0580   -0.1680   27.6280 C.ar      1 7LU         0.0119
     15 C12        -1.0780    0.6780   28.0580 C.ar      1 7LU        -0.0239
     16 C10        -1.3050    0.8590   29.4150 C.ar      1 7LU         0.1223
     17 O11        -2.3140    1.6550   29.8550 O.3       1 7LU        -0.3356
     18 C08        -0.5040    0.2020   30.3510 C.ar      1 7LU         0.1233
     19 O09        -0.7410    0.3860   31.6770 O.3       1 7LU        -0.3320
     20 C07         0.5160   -0.6320   29.9180 C.ar      1 7LU        -0.0339
     21 C06         0.7360   -0.8140   28.5670 C.ar      1 7LU        -0.0626
     22 H1         -0.7475    2.6542   23.9044 H         1 7LU         0.0484
     23 H2         -0.1811    0.5358   20.2260 H         1 7LU         0.0478
     24 H3          0.7075   -2.4144   21.9187 H         1 7LU         0.2505
     25 H4          0.7605   -2.4149   26.2661 H         1 7LU         0.0378
     26 H5         -1.6948    1.1953   27.3320 H         1 7LU         0.0550
     27 H6         -2.3198    1.6610   30.8050 H         1 7LU         0.2443
     28 H7         -0.1184   -0.1233   32.1825 H         1 7LU         0.2472
     29 H8          1.1417   -1.1420   30.6415 H         1 7LU         0.0531
     30 H9          1.5356   -1.4669   28.2362 H         1 7LU         0.0553
@<TRIPOS>BOND
     1    1    2 1  
     2    2    3 ar 
     3    2    4 ar 
     4    3   10 ar 
     5    4    5 ar 
     6    5    6 1  
     7    5    7 ar 
     8    7    8 1  
     9    7   10 ar 
    10    8    9 2  
    11    8   13 1  
    12   10   11 1  
    13   11   12 1  
    14   12   13 2  
    15   12   14 1  
    16   14   15 ar 
    17   14   21 ar 
    18   15   16 ar 
    19   16   17 1  
    20   16   18 ar 
    21   18   19 1  
    22   18   20 ar 
    23   20   21 ar 
    24    3   22 1  
    25    4   23 1  
    26    6   24 1  
    27   13   25 1  
    28   15   26 1  
    29   17   27 1  
    30   19   28 1  
    31   20   29 1  
    32   21   30 1  
@<TRIPOS>SUBSTRUCTURE
     1 7LU         1

