### 
### Created by X-TOOL on Mon Sep 10 21:13:29 2018
### 

@<TRIPOS>MOLECULE
5enb_ligand
   21    21     1     0     0
SMALL
GAST_HUCK


@<TRIPOS>ATOM
      1 N1        -21.5150    3.5070   -8.5720 N.am      1 5Q5        -0.2928
      2 C4        -25.5740    1.8050   -7.1200 C.ar      1 5Q5        -0.0814
      3 C5        -24.7270    1.8300   -8.2100 C.ar      1 5Q5        -0.0452
      4 C6        -24.3350    3.0550   -8.7480 C.ar      1 5Q5         0.0750
      5 C7        -22.0740    3.1930   -9.7470 C.2       1 5Q5         0.1584
      6 S         -21.1460    2.7910  -11.0960 S.2       1 5Q5        -0.2982
      7 N         -23.4050    3.0700   -9.8070 N.am      1 5Q5        -0.2349
      8 C1        -24.8010    4.2630   -8.2160 C.ar      1 5Q5        -0.0219
      9 C         -24.3280    5.5950   -8.7310 C.3       1 5Q5        -0.0345
     10 C3        -26.0510    2.9840   -6.5850 C.ar      1 5Q5        -0.0831
     11 C2        -25.6760    4.1970   -7.1340 C.ar      1 5Q5        -0.0727
     12 H1        -22.0928    3.7411   -7.7901 H         1 5Q5         0.1942
     13 H2        -20.5196    3.5075   -8.4761 H         1 5Q5         0.1942
     14 H3        -25.8651    0.8565   -6.6833 H         1 5Q5         0.0522
     15 H4        -24.3692    0.9036   -8.6445 H         1 5Q5         0.0490
     16 H5        -23.7911    2.9763  -10.7247 H         1 5Q5         0.2336
     17 H6        -24.8231    6.4016   -8.1704 H         1 5Q5         0.0364
     18 H7        -24.5765    5.6846   -9.7988 H         1 5Q5         0.0364
     19 H8        -23.2386    5.6728   -8.6003 H         1 5Q5         0.0364
     20 H9        -26.7208    2.9596   -5.7330 H         1 5Q5         0.0477
     21 H10       -26.0710    5.1148   -6.7138 H         1 5Q5         0.0515
@<TRIPOS>BOND
     1    5    1 am 
     2    3    2 ar 
     3    2   10 ar 
     4    4    3 ar 
     5    7    4 1  
     6    4    8 ar 
     7    5    6 2  
     8    5    7 am 
     9    8    9 1  
    10    8   11 ar 
    11   10   11 ar 
    12    1   12 1  
    13    1   13 1  
    14    2   14 1  
    15    3   15 1  
    16    7   16 1  
    17    9   17 1  
    18    9   18 1  
    19    9   19 1  
    20   10   20 1  
    21   11   21 1  
@<TRIPOS>SUBSTRUCTURE
     1 5Q5         1

