### 
### Created by X-TOOL on Mon Sep 10 21:13:29 2018
### 

@<TRIPOS>MOLECULE
5enc_ligand
   22    22     1     0     0
SMALL
GAST_HUCK


@<TRIPOS>ATOM
      1 C4        -26.7760    1.3340   -6.7740 C.ar      1 5QD         0.0437
      2 C5        -27.5910    0.6610   -5.8740 C.ar      1 5QD        -0.0544
      3 C6        -28.7310    1.2840   -5.3940 C.ar      1 5QD        -0.0677
      4 C7        -29.0410    2.5720   -5.7960 C.ar      1 5QD        -0.0544
      5 C8        -28.2030    3.2250   -6.6900 C.ar      1 5QD         0.0437
      6 O         -23.6850    3.3430   -9.5760 O.2       1 5QD        -0.3972
      7 C1        -23.7410    3.6760   -8.4060 C.2       1 5QD         0.1748
      8 C         -22.5350    4.1790   -7.6700 C.3       1 5QD         0.0258
      9 N         -24.8770    3.6100   -7.7080 N.am      1 5QD        -0.2756
     10 C2        -26.1900    3.3130   -8.2710 C.3       1 5QD         0.0657
     11 C3        -27.0550    2.6250   -7.2360 C.ar      1 5QD         0.0071
     12 CL        -28.5450    4.8810   -7.0760 Cl        1 5QD        -0.0771
     13 CL1       -25.3210    0.5620   -7.3160 Cl        1 5QD        -0.0771
     14 H1        -27.3377   -0.3420   -5.5502 H         1 5QD         0.0607
     15 H2        -29.3820    0.7620   -4.7020 H         1 5QD         0.0560
     16 H3        -29.9286    3.0655   -5.4168 H         1 5QD         0.0607
     17 H4        -22.8124    4.4202   -6.6332 H         1 5QD         0.0467
     18 H5        -22.1527    5.0828   -8.1670 H         1 5QD         0.0467
     19 H6        -21.7554    3.4030   -7.6698 H         1 5QD         0.0467
     20 H7        -24.8241    3.7770   -6.7235 H         1 5QD         0.1878
     21 H8        -26.0714    2.6531   -9.1431 H         1 5QD         0.0687
     22 H9        -26.6727    4.2507   -8.5836 H         1 5QD         0.0687
@<TRIPOS>BOND
     1    1    2 ar 
     2   11    1 ar 
     3    1   13 1  
     4    2    3 ar 
     5    4    3 ar 
     6    5    4 ar 
     7   11    5 ar 
     8    5   12 1  
     9    7    6 2  
    10    7    8 1  
    11    9    7 am 
    12   10    9 1  
    13   10   11 1  
    14    2   14 1  
    15    3   15 1  
    16    4   16 1  
    17    8   17 1  
    18    8   18 1  
    19    8   19 1  
    20    9   20 1  
    21   10   21 1  
    22   10   22 1  
@<TRIPOS>SUBSTRUCTURE
     1 5QD         1

