### 
### Created by X-TOOL on Mon Sep 10 21:13:29 2018
### 

@<TRIPOS>MOLECULE
5ene_ligand
   24    25     1     0     0
SMALL
GAST_HUCK


@<TRIPOS>ATOM
      1 N1        -31.6510    5.2360   -7.5010 N.1       1 5Q8        -0.3857
      2 C4        -22.8770    4.5130   -8.5890 C.ar      1 5Q8        -0.0684
      3 C5        -22.8550    3.1400   -8.4980 C.ar      1 5Q8        -0.0681
      4 C6        -24.0050    2.4450   -8.1530 C.ar      1 5Q8        -0.0578
      5 C7        -27.6570    3.0630   -8.0010 C.2       1 5Q8         0.1908
      6 C8        -29.4300    4.1050   -8.3240 C.2       1 5Q8         0.1548
      7 C10       -28.9360    3.9830   -9.6840 C.2       1 5Q8         0.2529
      8 C9        -30.6830    4.7470   -7.8570 C.1       1 5Q8         0.0463
      9 N         -28.6720    3.5790   -7.3710 N.2       1 5Q8        -0.3072
     10 N2        -29.3280    4.3380  -10.8980 N.pl3     1 5Q8        -0.2885
     11 O         -27.7300    3.2880   -9.4840 O.3       1 5Q8        -0.1797
     12 C         -26.4370    2.3610   -7.5070 C.3       1 5Q8         0.0659
     13 C1        -25.1870    3.1170   -7.8900 C.ar      1 5Q8        -0.0248
     14 C3        -24.0460    5.1960   -8.3340 C.ar      1 5Q8        -0.0681
     15 C2        -25.1930    4.5030   -7.9800 C.ar      1 5Q8        -0.0578
     16 H1        -21.9782    5.0549   -8.8602 H         1 5Q8         0.0561
     17 H2        -21.9363    2.5999   -8.6965 H         1 5Q8         0.0600
     18 H3        -23.9781    1.3632   -8.0885 H         1 5Q8         0.0561
     19 H4        -28.7460    4.1059  -11.7155 H         1 5Q8         0.1872
     20 H5        -30.2149    4.8462  -11.0248 H         1 5Q8         0.1872
     21 H6        -26.3978    1.3539   -7.9477 H         1 5Q8         0.0664
     22 H7        -26.4871    2.2800   -6.4111 H         1 5Q8         0.0664
     23 H8        -24.0688    6.2771   -8.4103 H         1 5Q8         0.0600
     24 H9        -26.1056    5.0493   -7.7709 H         1 5Q8         0.0561
@<TRIPOS>BOND
     1    8    1 3  
     2    3    2 ar 
     3    2   14 ar 
     4    4    3 ar 
     5   13    4 ar 
     6    5    9 2  
     7    5   11 1  
     8   12    5 1  
     9    7    6 2  
    10    6    8 1  
    11    9    6 1  
    12    7   10 1  
    13   11    7 1  
    14   12   13 1  
    15   13   15 ar 
    16   14   15 ar 
    17    2   16 1  
    18    3   17 1  
    19    4   18 1  
    20   10   19 1  
    21   10   20 1  
    22   12   21 1  
    23   12   22 1  
    24   14   23 1  
    25   15   24 1  
@<TRIPOS>SUBSTRUCTURE
     1 5Q8         1

