### 
### Created by X-TOOL on Mon Sep 10 21:13:27 2018
### 

@<TRIPOS>MOLECULE
5enf_ligand
   23    23     1     0     0
SMALL
GAST_HUCK


@<TRIPOS>ATOM
      1 N1        -31.9880    5.4040   -7.5060 N.1       1 5Q7        -0.3859
      2 C4        -28.0740    3.0530   -7.8630 C.2       1 5Q7         0.1801
      3 C5        -29.7680    4.2120   -8.2440 C.2       1 5Q7         0.1540
      4 C6        -31.0220    4.8880   -7.8300 C.1       1 5Q7         0.0460
      5 C7        -29.1590    4.1670   -9.5530 C.2       1 5Q7         0.2525
      6 N         -29.1210    3.5650   -7.2780 N.2       1 5Q7        -0.3096
      7 N2        -29.3840    4.6180  -10.7660 N.pl3     1 5Q7        -0.2886
      8 O         -28.0250    3.3860   -9.2970 O.3       1 5Q7        -0.1816
      9 C3        -26.9690    2.2530   -7.3070 C.3       1 5Q7         0.0355
     10 C1        -25.5750    2.5710   -7.8850 C.3       1 5Q7        -0.0304
     11 C2        -24.5030    1.7710   -7.1620 C.3       1 5Q7        -0.0603
     12 C         -25.2790    4.0660   -7.8240 C.3       1 5Q7        -0.0603
     13 H1        -28.7244    4.4010  -11.5267 H         1 5Q7         0.1871
     14 H2        -30.2201    5.1886  -10.9564 H         1 5Q7         0.1871
     15 H3        -27.1847    1.1922   -7.5021 H         1 5Q7         0.0510
     16 H4        -26.9353    2.4267   -6.2213 H         1 5Q7         0.0510
     17 H5        -25.5692    2.2690   -8.9427 H         1 5Q7         0.0323
     18 H6        -23.5173    2.0107   -7.5873 H         1 5Q7         0.0234
     19 H7        -24.7031    0.6962   -7.2834 H         1 5Q7         0.0234
     20 H8        -24.5130    2.0274   -6.0924 H         1 5Q7         0.0234
     21 H9        -26.0692    4.6181   -8.3539 H         1 5Q7         0.0234
     22 H10       -24.3083    4.2674   -8.3006 H         1 5Q7         0.0234
     23 H11       -25.2461    4.3907   -6.7736 H         1 5Q7         0.0234
@<TRIPOS>BOND
     1    4    1 3  
     2    6    2 2  
     3    2    8 1  
     4    2    9 1  
     5    3    4 1  
     6    3    5 2  
     7    3    6 1  
     8    5    7 1  
     9    5    8 1  
    10    9   10 1  
    11   10   11 1  
    12   10   12 1  
    13    7   13 1  
    14    7   14 1  
    15    9   15 1  
    16    9   16 1  
    17   10   17 1  
    18   11   18 1  
    19   11   19 1  
    20   11   20 1  
    21   12   21 1  
    22   12   22 1  
    23   12   23 1  
@<TRIPOS>SUBSTRUCTURE
     1 5Q7         1

