### 
### Created by X-TOOL on Wed Jan  1 15:39:34 2020
### 

@<TRIPOS>MOLECULE
5eng_ligand
   67    69     1     0     0
SMALL
GAST_HUCK


@<TRIPOS>ATOM
      1 C17        34.0850    0.0050   80.7710 C.ar      1 5QN        -0.0454
      2 C21        31.1050    0.2300   83.6550 C.3       1 5QN         0.1131
      3 C22        29.5860   -0.0860   84.0680 C.3       1 5QN        -0.0025
      4 C24        28.5510    1.8040   83.6290 C.3       1 5QN         0.0095
      5 C28        27.9830    0.2890   85.4620 C.3       1 5QN         0.0095
      6 C01        33.9600    1.2150   74.0860 C.3       1 5QN        -0.0374
      7 C02        35.3910    1.6160   74.2380 C.3       1 5QN         0.0659
      8 O03        35.6040    1.6350   75.6510 O.3       1 5QN        -0.3205
      9 C04        36.9260    1.7280   76.0950 C.ar      1 5QN         0.1188
     10 C05        38.0230    1.8960   75.2580 C.ar      1 5QN        -0.0390
     11 C06        39.2820    1.9530   75.7970 C.ar      1 5QN        -0.0667
     12 C07        39.4500    1.8620   77.1680 C.ar      1 5QN         0.0073
     13 C08        40.8870    1.9970   77.6880 C.2       1 5QN         0.1182
     14 C09        41.1350    1.9870   79.2050 C.3       1 5QN         0.0088
     15 O10        41.7520    2.1260   76.9360 O.2       1 5QN        -0.3843
     16 C11        38.3390    1.7240   78.0030 C.ar      1 5QN        -0.0305
     17 C12        37.0930    1.6370   77.4350 C.ar      1 5QN         0.1024
     18 N13        35.9180    1.5960   78.2350 N.am      1 5QN        -0.2364
     19 C14        35.6770    0.8050   79.2590 C.2       1 5QN         0.2228
     20 O15        36.5000    0.0540   79.5890 O.2       1 5QN        -0.3795
     21 C16        34.4330    1.0770   80.0490 C.ar      1 5QN         0.0502
     22 C18        33.0420    0.1550   81.6300 C.ar      1 5QN        -0.0205
     23 C19        32.4030    1.3240   81.8330 C.ar      1 5QN         0.1197
     24 O20        31.3210    1.4050   82.7950 O.3       1 5QN        -0.3037
     25 N23        28.9210    0.8370   84.5710 N.4       1 5QN         0.2446
     26 C25        27.0690    1.7260   83.2050 C.3       1 5QN         0.0077
     27 N26        26.1170    1.3570   84.1810 N.4       1 5QN         0.2345
     28 C27        26.5730    0.9170   85.4320 C.3       1 5QN         0.0077
     29 C29        32.7710    2.4690   81.1400 C.ar      1 5QN         0.0967
     30 C30        32.0510    3.8250   81.3590 C.2       1 5QN         0.2583
     31 O31        30.9830    3.9880   81.9460 O.2       1 5QN        -0.3633
     32 O32        32.7640    4.9820   80.9400 O.3       1 5QN        -0.2826
     33 C33        32.0870    6.2030   80.8610 C.3       1 5QN         0.0644
     34 C34        33.8370    2.3180   80.2360 C.ar      1 5QN        -0.0281
     35 H1         34.6101   -0.9385   80.6753 H         1 5QN         0.0678
     36 H2         31.4967   -0.6497   83.1234 H         1 5QN         0.0674
     37 H3         31.6781    0.3840   84.5812 H         1 5QN         0.0674
     38 H4         29.6078   -0.9102   84.7962 H         1 5QN         0.0842
     39 H5         29.0594   -0.4133   83.1594 H         1 5QN         0.0842
     40 H6         29.1754    1.6721   82.7330 H         1 5QN         0.0868
     41 H7         28.7360    2.7983   84.0617 H         1 5QN         0.0868
     42 H8         28.3805    0.4032   86.4813 H         1 5QN         0.0868
     43 H9         27.8800   -0.7805   85.2263 H         1 5QN         0.0868
     44 H10        33.7024    1.1733   73.0174 H         1 5QN         0.0255
     45 H11        33.3172    1.9520   74.5896 H         1 5QN         0.0255
     46 H12        33.8067    0.2244   74.5390 H         1 5QN         0.0255
     47 H13        35.5649    2.6118   73.8043 H         1 5QN         0.0608
     48 H14        36.0543    0.8842   73.7538 H         1 5QN         0.0608
     49 H15        37.8838    1.9813   74.1864 H         1 5QN         0.0512
     50 H16        40.1445    2.0691   75.1508 H         1 5QN         0.0520
     51 H17        42.2122    2.0927   79.4011 H         1 5QN         0.0447
     52 H18        40.7766    1.0373   79.6289 H         1 5QN         0.0447
     53 H19        40.5937    2.8238   79.6706 H         1 5QN         0.0447
     54 H20        38.4588    1.6863   79.0797 H         1 5QN         0.0517
     55 H21        35.1932    2.2408   77.9922 H         1 5QN         0.2216
     56 H22        32.7054   -0.7146   82.1827 H         1 5QN         0.0569
     57 H23        29.5599    1.3347   85.1711 H         1 5QN         0.2039
     58 H24        27.0009    0.9922   82.3884 H         1 5QN         0.0867
     59 H25        26.7837    2.7199   82.8297 H         1 5QN         0.0867
     60 H26        25.5625    0.6124   83.7884 H         1 5QN         0.2018
     61 H27        25.5320    2.1615   84.3443 H         1 5QN         0.2018
     62 H28        26.5766    1.7824   86.1110 H         1 5QN         0.0867
     63 H29        25.8622    0.1635   85.8021 H         1 5QN         0.0867
     64 H30        32.7817    6.9862   80.5235 H         1 5QN         0.0575
     65 H31        31.6903    6.4672   81.8524 H         1 5QN         0.0575
     66 H32        31.2565    6.1162   80.1450 H         1 5QN         0.0575
     67 H33        34.1968    3.1765   79.6805 H         1 5QN         0.0699
@<TRIPOS>BOND
     1    1   21 ar 
     2   22    1 ar 
     3    2    3 1  
     4   24    2 1  
     5    3   25 1  
     6   25    4 1  
     7    4   26 1  
     8   25    5 1  
     9    5   28 1  
    10    7    6 1  
    11    8    7 1  
    12    9    8 1  
    13    9   10 ar 
    14   17    9 ar 
    15   10   11 ar 
    16   12   11 ar 
    17   12   13 1  
    18   16   12 ar 
    19   13   14 1  
    20   13   15 2  
    21   17   16 ar 
    22   18   17 1  
    23   19   18 am 
    24   19   20 2  
    25   21   19 1  
    26   21   34 ar 
    27   23   22 ar 
    28   23   24 1  
    29   23   29 ar 
    30   26   27 1  
    31   27   28 1  
    32   29   30 1  
    33   29   34 ar 
    34   30   31 2  
    35   30   32 1  
    36   32   33 1  
    37    1   35 1  
    38    2   36 1  
    39    2   37 1  
    40    3   38 1  
    41    3   39 1  
    42    4   40 1  
    43    4   41 1  
    44    5   42 1  
    45    5   43 1  
    46    6   44 1  
    47    6   45 1  
    48    6   46 1  
    49    7   47 1  
    50    7   48 1  
    51   10   49 1  
    52   11   50 1  
    53   14   51 1  
    54   14   52 1  
    55   14   53 1  
    56   16   54 1  
    57   18   55 1  
    58   22   56 1  
    59   25   57 1  
    60   26   58 1  
    61   26   59 1  
    62   27   60 1  
    63   27   61 1  
    64   28   62 1  
    65   28   63 1  
    66   33   64 1  
    67   33   65 1  
    68   33   66 1  
    69   34   67 1  
@<TRIPOS>SUBSTRUCTURE
     1 5QN         1

