### 
### Created by X-TOOL on Mon Sep 10 21:13:29 2018
### 

@<TRIPOS>MOLECULE
5enh_ligand
   30    30     1     0     0
SMALL
GAST_HUCK


@<TRIPOS>ATOM
      1 C4        -27.2280    3.8530   -6.2760 C.ar      1 5QB         0.0859
      2 C5        -28.1280    3.4330   -5.3050 C.ar      1 5QB        -0.0504
      3 C6        -28.1930    2.0930   -4.9620 C.ar      1 5QB        -0.0858
      4 C7        -27.3680    1.1670   -5.5760 C.ar      1 5QB        -0.0504
      5 C8        -26.4730    1.5850   -6.5580 C.ar      1 5QB         0.0859
      6 C10       -26.7720    6.1080   -5.6230 C.3       1 5QB         0.0574
      7 O2        -23.1090    3.1920   -9.5340 O.2       1 5QB        -0.3973
      8 C1        -23.0330    3.5400   -8.3610 C.2       1 5QB         0.1743
      9 C         -21.7310    3.9550   -7.7410 C.3       1 5QB         0.0258
     10 N         -24.1040    3.5700   -7.5630 N.am      1 5QB        -0.2795
     11 C2        -25.4640    3.3720   -8.0510 C.3       1 5QB         0.0606
     12 C3        -26.3910    2.9360   -6.9350 C.ar      1 5QB         0.0363
     13 O         -25.6280    0.7470   -7.2350 O.3       1 5QB        -0.3279
     14 C9        -25.4670   -0.5830   -6.7440 C.3       1 5QB         0.0574
     15 O1        -27.0680    5.1610   -6.6460 O.3       1 5QB        -0.3279
     16 H1        -28.7770    4.1515   -4.8176 H         1 5QB         0.0433
     17 H2        -28.8969    1.7662   -4.2052 H         1 5QB         0.0506
     18 H3        -27.4181    0.1215   -5.2941 H         1 5QB         0.0433
     19 H4        -26.6721    7.1091   -6.0678 H         1 5QB         0.0574
     20 H5        -25.8294    5.8309   -5.1284 H         1 5QB         0.0574
     21 H6        -27.5860    6.1151   -4.8832 H         1 5QB         0.0574
     22 H7        -21.8961    4.2248   -6.6875 H         1 5QB         0.0467
     23 H8        -21.3270    4.8229   -8.2828 H         1 5QB         0.0467
     24 H9        -21.0155    3.1215   -7.7982 H         1 5QB         0.0467
     25 H10       -23.9669    3.7358   -6.5864 H         1 5QB         0.1871
     26 H11       -25.4552    2.5979   -8.8325 H         1 5QB         0.0635
     27 H12       -25.8337    4.3172   -8.4752 H         1 5QB         0.0635
     28 H13       -24.7628   -1.1291   -7.3888 H         1 5QB         0.0574
     29 H14       -26.4403   -1.0955   -6.7474 H         1 5QB         0.0574
     30 H15       -25.0737   -0.5497   -5.7173 H         1 5QB         0.0574
@<TRIPOS>BOND
     1    1    2 ar 
     2   12    1 ar 
     3    1   15 1  
     4    2    3 ar 
     5    4    3 ar 
     6    5    4 ar 
     7   12    5 ar 
     8    5   13 1  
     9   15    6 1  
    10    8    7 2  
    11    8    9 1  
    12   10    8 am 
    13   11   10 1  
    14   11   12 1  
    15   13   14 1  
    16    2   16 1  
    17    3   17 1  
    18    4   18 1  
    19    6   19 1  
    20    6   20 1  
    21    6   21 1  
    22    9   22 1  
    23    9   23 1  
    24    9   24 1  
    25   10   25 1  
    26   11   26 1  
    27   11   27 1  
    28   14   28 1  
    29   14   29 1  
    30   14   30 1  
@<TRIPOS>SUBSTRUCTURE
     1 5QB         1

