### 
### Created by X-TOOL on Mon Sep 10 21:13:29 2018
### 

@<TRIPOS>MOLECULE
5eni_ligand
   23    23     1     0     0
SMALL
GAST_HUCK


@<TRIPOS>ATOM
      1 C4        -28.1710    0.7390   -5.2430 C.ar      1 5QA        -0.0677
      2 C5        -26.9670    0.3750   -5.8190 C.ar      1 5QA        -0.0544
      3 C6        -26.3720    1.2200   -6.7450 C.ar      1 5QA         0.0437
      4 C7        -23.8670    3.8570   -8.0020 C.2       1 5QA         0.2037
      5 C8        -22.7540    4.3530   -7.0760 C.3       1 5QA         0.1333
      6 O1        -23.5650    3.3550   -9.0820 O.2       1 5QA        -0.3944
      7 O         -23.1900    4.3560   -5.7320 O.3       1 5QA        -0.3746
      8 N         -25.1250    4.0050   -7.5740 N.am      1 5QA        -0.2735
      9 C         -26.2750    3.3350   -8.1690 C.3       1 5QA         0.0658
     10 C1        -26.9410    2.4380   -7.1440 C.ar      1 5QA         0.0071
     11 CL        -24.8420    0.7590   -7.4160 Cl        1 5QA        -0.0771
     12 C3        -28.7800    1.9350   -5.5880 C.ar      1 5QA        -0.0544
     13 C2        -28.1740    2.7660   -6.5190 C.ar      1 5QA         0.0437
     14 CL1       -28.9770    4.2600   -6.8860 Cl        1 5QA        -0.0771
     15 H1        -28.6408    0.0848   -4.5175 H         1 5QA         0.0560
     16 H2        -26.4927   -0.5617   -5.5494 H         1 5QA         0.0607
     17 H3        -22.4708    5.3755   -7.3665 H         1 5QA         0.0801
     18 H4        -21.8817    3.6897   -7.1716 H         1 5QA         0.0801
     19 H5        -22.4873    4.6662   -5.1730 H         1 5QA         0.2129
     20 H6        -25.2872    4.6134   -6.7971 H         1 5QA         0.1879
     21 H7        -25.9408    2.7269   -9.0225 H         1 5QA         0.0687
     22 H8        -26.9964    4.0893   -8.5162 H         1 5QA         0.0687
     23 H9        -29.7225    2.2190   -5.1340 H         1 5QA         0.0607
@<TRIPOS>BOND
     1    2    1 ar 
     2    1   12 ar 
     3    3    2 ar 
     4   10    3 ar 
     5    3   11 1  
     6    4    5 1  
     7    4    6 2  
     8    8    4 am 
     9    5    7 1  
    10    9    8 1  
    11    9   10 1  
    12   10   13 ar 
    13   12   13 ar 
    14   13   14 1  
    15    1   15 1  
    16    2   16 1  
    17    5   17 1  
    18    5   18 1  
    19    7   19 1  
    20    8   20 1  
    21    9   21 1  
    22    9   22 1  
    23   12   23 1  
@<TRIPOS>SUBSTRUCTURE
     1 5QA         1

