### 
### Created by X-TOOL on Mon Sep 10 21:13:30 2018
### 

@<TRIPOS>MOLECULE
5enj_ligand
   25    25     1     0     0
SMALL
GAST_HUCK


@<TRIPOS>ATOM
      1 C4        -27.3530    2.8060   -7.1700 C.ar      1 5Q9         0.0074
      2 C5        -26.9610    1.5370   -6.7170 C.ar      1 5Q9         0.0437
      3 C6        -27.6860    0.8140   -5.7790 C.ar      1 5Q9        -0.0544
      4 C7        -28.8390    1.3580   -5.2500 C.ar      1 5Q9        -0.0677
      5 C8        -29.2600    2.6150   -5.6400 C.ar      1 5Q9        -0.0544
      6 O         -24.0120    2.8290   -9.2430 O.2       1 5Q9        -0.3970
      7 C1        -24.0630    3.6310   -8.3210 C.2       1 5Q9         0.1770
      8 C         -22.8040    4.2050   -7.7380 C.3       1 5Q9         0.0260
      9 N         -25.2570    3.9720   -7.7290 N.am      1 5Q9        -0.2650
     10 C2        -25.3510    4.7880   -6.5240 C.3       1 5Q9         0.0248
     11 C3        -26.5840    3.5430   -8.2430 C.3       1 5Q9         0.0684
     12 C9        -28.5140    3.3270   -6.5700 C.ar      1 5Q9         0.0437
     13 CL        -29.0320    4.9360   -6.9390 Cl        1 5Q9        -0.0771
     14 CL1       -25.4920    0.8560   -7.3350 Cl        1 5Q9        -0.0771
     15 H1        -27.3499   -0.1677   -5.4654 H         1 5Q9         0.0607
     16 H2        -29.4171    0.7964   -4.5251 H         1 5Q9         0.0560
     17 H3        -30.1652    3.0418   -5.2234 H         1 5Q9         0.0607
     18 H4        -23.0602    4.9008   -6.9255 H         1 5Q9         0.0467
     19 H5        -22.2497    4.7436   -8.5208 H         1 5Q9         0.0467
     20 H6        -22.1797    3.3912   -7.3405 H         1 5Q9         0.0467
     21 H7        -26.4086    4.9186   -6.2512 H         1 5Q9         0.0488
     22 H8        -24.8964    5.7720   -6.7111 H         1 5Q9         0.0488
     23 H9        -24.8190    4.2889   -5.7007 H         1 5Q9         0.0488
     24 H10       -27.1558    4.4297   -8.5542 H         1 5Q9         0.0690
     25 H11       -26.4399    2.8777   -9.1071 H         1 5Q9         0.0690
@<TRIPOS>BOND
     1    1    2 ar 
     2   11    1 1  
     3    1   12 ar 
     4    2    3 ar 
     5    2   14 1  
     6    3    4 ar 
     7    5    4 ar 
     8   12    5 ar 
     9    7    6 2  
    10    7    8 1  
    11    9    7 am 
    12    9   10 1  
    13    9   11 1  
    14   12   13 1  
    15    3   15 1  
    16    4   16 1  
    17    5   17 1  
    18    8   18 1  
    19    8   19 1  
    20    8   20 1  
    21   10   21 1  
    22   10   22 1  
    23   10   23 1  
    24   11   24 1  
    25   11   25 1  
@<TRIPOS>SUBSTRUCTURE
     1 5Q9         1

