### 
### Created by X-TOOL on Mon Sep 10 21:13:30 2018
### 

@<TRIPOS>MOLECULE
5enk_ligand
   49    52     1     0     0
SMALL
GAST_HUCK


@<TRIPOS>ATOM
      1 N14        15.2000   40.0270   -6.1330 N.pl3     1 5QV        -0.2673
      2 C18        20.8060   40.2540   -6.9440 C.ar      1 5QV         0.0565
      3 C17        19.4740   39.9250   -7.1970 C.ar      1 5QV        -0.0268
      4 C16        19.1190   39.2330   -8.3560 C.ar      1 5QV         0.0285
      5 C15        17.5210   37.3990   -8.9280 C.3       1 5QV        -0.0457
      6 C19        21.7940   39.8970   -7.8690 C.ar      1 5QV         0.1769
      7 C20        21.4520   39.2140   -9.0320 C.ar      1 5QV         0.0410
      8 C21        20.1200   38.8860   -9.2760 C.ar      1 5QV         0.1665
      9 C24        21.1360   40.9990   -5.6910 C.ar      1 5QV         0.0400
     10 C12        15.9940   40.0470   -7.2130 C.cat     1 5QV         0.2591
     11 C27        21.7180   42.4020   -3.4150 C.ar      1 5QV         0.0886
     12 C1         14.0330   40.8810  -10.9500 C.3       1 5QV        -0.0299
     13 C2         15.1910   41.7330  -11.4250 C.2       1 5QV         0.0138
     14 C3         16.4730   41.8560  -10.8710 C.2       1 5QV        -0.0041
     15 C4         17.1750   42.7580  -11.6700 C.2       1 5QV         0.1262
     16 O5         16.4070   43.1670  -12.6320 O.3       1 5QV        -0.1900
     17 N6         15.1530   42.5400  -12.5060 N.2       1 5QV        -0.1775
     18 C7         18.6050   43.2060  -11.4630 C.3       1 5QV         0.0025
     19 C8         17.0270   41.1520   -9.6430 C.3       1 5QV         0.0199
     20 C9         17.1000   39.6320   -9.8300 C.3       1 5QV        -0.0192
     21 C10        17.6520   38.8900   -8.6100 C.3       1 5QV         0.0957
     22 N11        16.8450   39.1030   -7.4020 N.pl3     1 5QV        -0.2867
     23 S13        16.0810   41.5310   -8.1630 S.3       1 5QV        -0.0799
     24 F22        19.8460   38.2330  -10.4100 F         1 5QV        -0.1546
     25 F23        23.0790   40.2080   -7.6400 F         1 5QV        -0.1539
     26 C25        21.8650   42.1880   -5.7500 C.ar      1 5QV         0.0357
     27 N26        22.1480   42.8640   -4.6120 N.ar      1 5QV        -0.2635
     28 N28        21.0010   41.2560   -3.3330 N.ar      1 5QV        -0.2635
     29 C29        20.6990   40.5460   -4.4450 C.ar      1 5QV         0.0357
     30 H1         15.1306   39.1735   -5.5606 H         1 5QV         0.3186
     31 H2         14.6594   40.8651   -5.8757 H         1 5QV         0.3186
     32 H3         18.7068   40.2098   -6.4861 H         1 5QV         0.0842
     33 H4         16.4641   37.1545   -9.1105 H         1 5QV         0.0167
     34 H5         17.8923   36.8086   -8.0774 H         1 5QV         0.0167
     35 H6         18.1122   37.1620   -9.8248 H         1 5QV         0.0167
     36 H7         22.2195   38.9379   -9.7460 H         1 5QV         0.0679
     37 H8         21.9499   42.9551   -2.5121 H         1 5QV         0.1114
     38 H9         13.1727   41.0251  -11.6202 H         1 5QV         0.0367
     39 H10        13.7550   41.1771   -9.9277 H         1 5QV         0.0367
     40 H11        14.3299   39.8219  -10.9571 H         1 5QV         0.0367
     41 H12        18.8831   43.9208  -12.2515 H         1 5QV         0.0423
     42 H13        19.2728   42.3331  -11.5074 H         1 5QV         0.0423
     43 H14        18.6990   43.6900  -10.4797 H         1 5QV         0.0423
     44 H15        18.0520   41.5207   -9.4900 H         1 5QV         0.0466
     45 H16        17.7509   39.4184  -10.6907 H         1 5QV         0.0224
     46 H17        16.0862   39.2578  -10.0351 H         1 5QV         0.0224
     47 H18        16.9734   38.4310   -6.6320 H         1 5QV         0.3096
     48 H19        22.2041   42.5696   -6.7063 H         1 5QV         0.0935
     49 H20        20.1217   39.6317   -4.3686 H         1 5QV         0.0935
@<TRIPOS>BOND
     1   10    1 ar 
     2    2    3 ar 
     3    2    6 ar 
     4    9    2 1  
     5    3    4 ar 
     6    4    8 ar 
     7    4   21 1  
     8   21    5 1  
     9    6    7 ar 
    10    6   25 1  
    11    7    8 ar 
    12    8   24 1  
    13   26    9 ar 
    14    9   29 ar 
    15   22   10 ar 
    16   10   23 1  
    17   27   11 ar 
    18   11   28 ar 
    19   13   12 1  
    20   14   13 1  
    21   13   17 2  
    22   14   15 2  
    23   19   14 1  
    24   15   16 1  
    25   15   18 1  
    26   16   17 1  
    27   20   19 1  
    28   19   23 1  
    29   21   20 1  
    30   21   22 1  
    31   26   27 ar 
    32   28   29 ar 
    33    1   30 1  
    34    1   31 1  
    35    3   32 1  
    36    5   33 1  
    37    5   34 1  
    38    5   35 1  
    39    7   36 1  
    40   11   37 1  
    41   12   38 1  
    42   12   39 1  
    43   12   40 1  
    44   18   41 1  
    45   18   42 1  
    46   18   43 1  
    47   19   44 1  
    48   20   45 1  
    49   20   46 1  
    50   22   47 1  
    51   26   48 1  
    52   29   49 1  
@<TRIPOS>SUBSTRUCTURE
     1 5QV         1

