### 
### Created by X-TOOL on Mon Sep 10 21:13:30 2018
### 

@<TRIPOS>MOLECULE
5enm_ligand
   46    49     1     0     0
SMALL
GAST_HUCK


@<TRIPOS>ATOM
      1 N14        15.2320   40.0610   -6.0840 N.pl3     1 5QU        -0.2665
      2 C18        22.0590   39.4140   -7.5590 C.ar      1 5QU         0.1355
      3 C17        21.1050   40.0680   -6.7740 C.ar      1 5QU         0.0186
      4 C16        19.7510   39.8690   -7.0460 C.ar      1 5QU        -0.0482
      5 C15        19.3210   39.0320   -8.0770 C.ar      1 5QU         0.0376
      6 C19        21.6360   38.5810   -8.5930 C.ar      1 5QU         0.0021
      7 C20        20.2820   38.3880   -8.8560 C.ar      1 5QU         0.1386
      8 C23        21.5060   40.9730   -5.6540 C.ar      1 5QU         0.0304
      9 C24        22.3910   42.0290   -5.8820 C.ar      1 5QU         0.0345
     10 C12        16.0830   40.0560   -7.1200 C.cat     1 5QU         0.2699
     11 C1         14.4920   40.9960  -11.0970 C.3       1 5QU        -0.0299
     12 C2         15.7320   41.8230  -11.3600 C.2       1 5QU         0.0138
     13 C3         16.9350   41.8840  -10.6510 C.2       1 5QU        -0.0031
     14 C4         17.7500   42.8030  -11.3120 C.2       1 5QU         0.1262
     15 O5         17.1090   43.2680  -12.3420 O.3       1 5QU        -0.1900
     16 N6         15.8350   42.6720  -12.4030 N.2       1 5QU        -0.1775
     17 C7         19.1530   43.2000  -10.9080 C.3       1 5QU         0.0025
     18 C8         17.3640   41.1450   -9.3970 C.3       1 5QU         0.0298
     19 C9         17.3890   39.6220   -9.5780 C.3       1 5QU         0.0153
     20 C10        17.8280   38.8810   -8.3010 C.3       1 5QU         0.1330
     21 N11        17.0430   39.2020   -7.0930 N.pl3     1 5QU        -0.2411
     22 S13        16.3630   41.5720   -7.9750 S.3       1 5QU        -0.0778
     23 F21        19.9880   37.5690   -9.8720 F         1 5QU        -0.1878
     24 F22        23.3700   39.5780   -7.3320 F         1 5QU        -0.1867
     25 N25        22.7370   42.8380   -4.8510 N.ar      1 5QU        -0.2639
     26 C26        22.2310   42.6410   -3.6110 C.ar      1 5QU         0.0883
     27 N27        21.3690   41.6250   -3.3710 N.ar      1 5QU        -0.2639
     28 C28        20.9980   40.7870   -4.3660 C.ar      1 5QU         0.0345
     29 H1         15.0478   39.1908   -5.5646 H         1 5QU         0.3186
     30 H2         14.7624   40.9350   -5.8075 H         1 5QU         0.3186
     31 H3         19.0117   40.3791   -6.4391 H         1 5QU         0.0554
     32 H4         22.3743   38.0740   -9.2037 H         1 5QU         0.0578
     33 H5         22.7967   42.1998   -6.8726 H         1 5QU         0.0932
     34 H6         13.7382   41.2098  -11.8690 H         1 5QU         0.0367
     35 H7         14.0851   41.2498  -10.1071 H         1 5QU         0.0367
     36 H8         14.7514   39.9274  -11.1239 H         1 5QU         0.0367
     37 H9         19.5429   43.9432  -11.6191 H         1 5QU         0.0423
     38 H10        19.8015   42.3115  -10.9138 H         1 5QU         0.0423
     39 H11        19.1346   43.6340   -9.8974 H         1 5QU         0.0423
     40 H12        18.3941   41.4636   -9.1794 H         1 5QU         0.0476
     41 H13        18.0913   39.3749  -10.3877 H         1 5QU         0.0353
     42 H14        16.3791   39.2832   -9.8524 H         1 5QU         0.0353
     43 H15        17.6489   37.8132   -8.4952 H         1 5QU         0.0986
     44 H16        17.2703   38.7298   -6.2063 H         1 5QU         0.3236
     45 H17        22.5188   43.3031   -2.8024 H         1 5QU         0.1111
     46 H18        20.3093   39.9744   -4.1647 H         1 5QU         0.0932
@<TRIPOS>BOND
     1   10    1 ar 
     2    3    2 ar 
     3    6    2 ar 
     4    2   24 1  
     5    4    3 ar 
     6    3    8 1  
     7    5    4 ar 
     8    5    7 ar 
     9   20    5 1  
    10    7    6 ar 
    11    7   23 1  
    12    8    9 ar 
    13    8   28 ar 
    14    9   25 ar 
    15   10   21 ar 
    16   22   10 1  
    17   12   11 1  
    18   13   12 1  
    19   12   16 2  
    20   13   14 2  
    21   18   13 1  
    22   14   15 1  
    23   14   17 1  
    24   15   16 1  
    25   19   18 1  
    26   18   22 1  
    27   19   20 1  
    28   20   21 1  
    29   25   26 ar 
    30   26   27 ar 
    31   27   28 ar 
    32    1   29 1  
    33    1   30 1  
    34    4   31 1  
    35    6   32 1  
    36    9   33 1  
    37   11   34 1  
    38   11   35 1  
    39   11   36 1  
    40   17   37 1  
    41   17   38 1  
    42   17   39 1  
    43   18   40 1  
    44   19   41 1  
    45   19   42 1  
    46   20   43 1  
    47   21   44 1  
    48   26   45 1  
    49   28   46 1  
@<TRIPOS>SUBSTRUCTURE
     1 5QU         1

