### 
### Created by X-TOOL on Mon Sep 10 21:13:27 2018
### 

@<TRIPOS>MOLECULE
5eob_ligand
   40    44     1     0     0
SMALL
GAST_HUCK


@<TRIPOS>ATOM
      1 C13         1.7800   11.6800   30.6160 C.3       1 5QQ         0.2638
      2 C17         0.5860   13.7630   29.8840 C.ar      1 5QQ        -0.0511
      3 C21        -4.1260   14.3780   30.6240 C.ar      1 5QQ         0.0183
      4 C22        -4.2350   13.1240   31.2330 C.ar      1 5QQ        -0.0235
      5 C24        -1.8590   12.8060   30.8620 C.ar      1 5QQ         0.0321
      6 C28        -1.6610    7.9540   29.2170 C.ar      1 5QQ        -0.0495
      7 F01        -4.1200    5.3000   28.9220 F         1 5QQ        -0.1805
      8 C02        -3.0510    6.0740   28.6650 C.ar      1 5QQ         0.1360
      9 C03        -2.2370    5.7870   27.5840 C.ar      1 5QQ        -0.0242
     10 C04        -1.1370    6.5890   27.3150 C.ar      1 5QQ        -0.0495
     11 C05        -0.8480    7.6670   28.1330 C.ar      1 5QQ         0.0148
     12 C06         0.2620    8.4730   27.8810 C.2       1 5QQ         0.1461
     13 C07         1.0100    8.3170   26.7000 C.2       1 5QQ         0.0777
     14 N08         2.0850    9.1110   26.4780 N.2       1 5QQ        -0.2029
     15 C09         2.4360   10.0500   27.4200 C.2       1 5QQ         0.2909
     16 N10         3.4620   10.9740   27.4400 N.2       1 5QQ        -0.1908
     17 N11         3.3520   11.6750   28.5970 N.2       1 5QQ        -0.2041
     18 C12         2.2830   11.2120   29.2720 C.2       1 5QQ         0.2097
     19 F14         2.7170   12.4550   31.1640 F         1 5QQ        -0.2844
     20 F15         1.5460   10.6170   31.3960 F         1 5QQ        -0.2844
     21 C16         0.5240   12.5050   30.4860 C.ar      1 5QQ        -0.0090
     22 C18        -0.5590   14.5470   29.7670 C.ar      1 5QQ        -0.0298
     23 C19        -1.7940   14.0500   30.2770 C.ar      1 5QQ         0.0609
     24 N20        -2.9330   14.8170   30.1610 N.ar      1 5QQ        -0.2848
     25 C23        -3.1090   12.3110   31.3610 C.ar      1 5QQ        -0.0230
     26 C25        -0.6830   12.0130   30.9800 C.ar      1 5QQ        -0.0255
     27 N26         1.7190   10.1980   28.5420 N.pl3     1 5QQ        -0.0664
     28 N27         0.6160    9.4010   28.7930 N.2       1 5QQ        -0.0912
     29 C29        -2.7660    7.1590   29.4800 C.ar      1 5QQ        -0.0242
     30 H1          1.5321   14.1322   29.5049 H         1 5QQ         0.0723
     31 H2         -5.0051   15.0039   30.5220 H         1 5QQ         0.0925
     32 H3         -5.1945   12.7838   31.6055 H         1 5QQ         0.0715
     33 H4         -1.4339    8.7981   29.8581 H         1 5QQ         0.0638
     34 H5         -2.4580    4.9372   26.9483 H         1 5QQ         0.0613
     35 H6         -0.5033    6.3707   26.4630 H         1 5QQ         0.0638
     36 H7          0.7265    7.5621   25.9681 H         1 5QQ         0.1190
     37 H8         -0.5118   15.5216   29.2947 H         1 5QQ         0.0668
     38 H9         -3.1768   11.3333   31.8242 H         1 5QQ         0.0839
     39 H10        -0.7255   11.0367   31.4491 H         1 5QQ         0.0920
     40 H11        -3.4078    7.3859   30.3236 H         1 5QQ         0.0613
@<TRIPOS>BOND
     1    1   18 1  
     2    1   19 1  
     3    1   20 1  
     4   21    1 1  
     5   21    2 ar 
     6    2   22 ar 
     7    4    3 ar 
     8    3   24 ar 
     9   25    4 ar 
    10    5   23 ar 
    11    5   25 ar 
    12   26    5 ar 
    13   11    6 ar 
    14    6   29 ar 
    15    8    7 1  
    16    9    8 ar 
    17   29    8 ar 
    18   10    9 ar 
    19   11   10 ar 
    20   12   11 1  
    21   13   12 1  
    22   12   28 2  
    23   14   13 2  
    24   15   14 1  
    25   15   16 2  
    26   27   15 1  
    27   17   16 1  
    28   18   17 2  
    29   18   27 1  
    30   21   26 ar 
    31   22   23 ar 
    32   23   24 ar 
    33   27   28 1  
    34    2   30 1  
    35    3   31 1  
    36    4   32 1  
    37    6   33 1  
    38    9   34 1  
    39   10   35 1  
    40   13   36 1  
    41   22   37 1  
    42   25   38 1  
    43   26   39 1  
    44   29   40 1  
@<TRIPOS>SUBSTRUCTURE
     1 5QQ         1

