### 
### Created by X-TOOL on Mon Sep 10 21:13:28 2018
### 

@<TRIPOS>MOLECULE
5eol_ligand
   48    52     1     0     0
SMALL
GAST_HUCK


@<TRIPOS>ATOM
      1 C15       -15.7570  -34.2700    2.0600 C.3       1 5QO         0.0478
      2 N5        -15.4800  -33.7750    0.6750 N.am      1 5QO        -0.2894
      3 C16       -16.2650  -34.1860   -0.4300 C.2       1 5QO         0.1750
      4 O1        -16.0070  -33.7780   -1.5610 O.2       1 5QO        -0.4040
      5 C12       -17.2990  -35.0970   -0.2140 C.2       1 5QO         0.0398
      6 C13       -17.9830  -35.9430   -0.9810 C.2       1 5QO        -0.0591
      7 C10       -18.8670  -36.5970   -0.2090 C.2       1 5QO         0.0585
      8 N4        -18.7410  -36.1770    1.0570 N.pl3     1 5QO        -0.2716
      9 C11       -17.7880  -35.2590    1.0690 C.2       1 5QO         0.0754
     10 C14       -17.2640  -34.4740    2.2770 C.3       1 5QO         0.0489
     11 C17       -17.5340  -35.2050    3.6060 C.3       1 5QO        -0.0175
     12 C21       -18.8300  -34.9250    4.0480 C.2       1 5QO        -0.0937
     13 C20       -19.7370  -35.8980    4.4700 C.2       1 5QO        -0.0738
     14 C18       -19.4110  -37.3960    4.5590 C.3       1 5QO         0.0538
     15 C19       -19.1200  -37.7300    6.0220 C.3       1 5QO        -0.0351
     16 N3        -20.5720  -38.1980    4.1270 N.pl3     1 5QO        -0.2906
     17 C2        -20.8240  -38.5420    2.8570 C.ar      1 5QO         0.1493
     18 N2        -20.2020  -37.9210    1.8390 N.ar      1 5QO        -0.2709
     19 C3        -20.4510  -38.2580    0.5570 C.ar      1 5QO         0.0538
     20 C5        -19.8020  -37.5930   -0.4900 C.ar      1 5QO         0.0109
     21 C6        -20.0600  -37.9680   -1.8100 C.ar      1 5QO        -0.0586
     22 C7        -20.9780  -38.9800   -2.0810 C.ar      1 5QO        -0.0671
     23 C8        -21.6380  -39.6310   -1.0410 C.ar      1 5QO        -0.0496
     24 C4        -21.3740  -39.2710    0.2800 C.ar      1 5QO         0.0467
     25 N1        -22.0000  -39.8960    1.2930 N.ar      1 5QO        -0.2844
     26 C1        -21.7490  -39.5560    2.5700 C.ar      1 5QO         0.0783
     27 C9        -22.4870  -40.2910    3.6910 C.3       1 5QO        -0.0076
     28 H1        -15.3848  -33.5333    2.7871 H         1 5QO         0.0551
     29 H2        -15.2384  -35.2283    2.2106 H         1 5QO         0.0551
     30 H3        -14.7228  -33.1390    0.5262 H         1 5QO         0.1835
     31 H4        -17.8488  -36.0816   -2.0528 H         1 5QO         0.0360
     32 H5        -19.2836  -36.5065    1.8681 H         1 5QO         0.2340
     33 H6        -17.7629  -33.4943    2.3136 H         1 5QO         0.0560
     34 H7        -16.8099  -34.8670    4.3619 H         1 5QO         0.0419
     35 H8        -17.4267  -36.2892    3.4543 H         1 5QO         0.0419
     36 H9        -19.1515  -33.8846    4.0641 H         1 5QO         0.0453
     37 H10       -20.7376  -35.5751    4.7537 H         1 5QO         0.0473
     38 H11       -18.5386  -37.6292    3.9310 H         1 5QO         0.0679
     39 H12       -18.8829  -38.8002    6.1136 H         1 5QO         0.0272
     40 H13       -20.0036  -37.4966    6.6342 H         1 5QO         0.0272
     41 H14       -18.2641  -37.1337    6.3710 H         1 5QO         0.0272
     42 H15       -21.2331  -38.5146    4.8506 H         1 5QO         0.1858
     43 H16       -19.5455  -37.4712   -2.6246 H         1 5QO         0.0567
     44 H17       -21.1802  -39.2629   -3.1077 H         1 5QO         0.0604
     45 H18       -22.3545  -40.4149   -1.2581 H         1 5QO         0.0567
     46 H19       -23.1613  -41.0426    3.2547 H         1 5QO         0.0433
     47 H20       -23.0735  -39.5694    4.2786 H         1 5QO         0.0433
     48 H21       -21.7568  -40.7894    4.3455 H         1 5QO         0.0433
@<TRIPOS>BOND
     1    1    2 1  
     2    1   10 1  
     3    2    3 am 
     4    3    4 2  
     5    3    5 1  
     6    5    6 1  
     7    5    9 2  
     8    6    7 2  
     9    7    8 1  
    10    7   20 1  
    11    8    9 1  
    12    9   10 1  
    13   10   11 1  
    14   11   12 1  
    15   12   13 2  
    16   13   14 1  
    17   14   15 1  
    18   14   16 1  
    19   16   17 1  
    20   17   18 ar 
    21   17   26 ar 
    22   18   19 ar 
    23   19   20 ar 
    24   19   24 ar 
    25   20   21 ar 
    26   21   22 ar 
    27   22   23 ar 
    28   23   24 ar 
    29   24   25 ar 
    30   25   26 ar 
    31   26   27 1  
    32    1   28 1  
    33    1   29 1  
    34    2   30 1  
    35    6   31 1  
    36    8   32 1  
    37   10   33 1  
    38   11   34 1  
    39   11   35 1  
    40   12   36 1  
    41   13   37 1  
    42   14   38 1  
    43   15   39 1  
    44   15   40 1  
    45   15   41 1  
    46   16   42 1  
    47   21   43 1  
    48   22   44 1  
    49   23   45 1  
    50   27   46 1  
    51   27   47 1  
    52   27   48 1  
@<TRIPOS>SUBSTRUCTURE
     1 5QO         1

