### 
### Created by X-TOOL on Wed Jan  1 15:39:34 2020
### 

@<TRIPOS>MOLECULE
5ep7_ligand
   31    32     1     0     0
SMALL
GAST_HUCK


@<TRIPOS>ATOM
      1 C10       -19.7980   -9.1060   21.4750 C.ar      1 5QR        -0.0720
      2 C13       -18.4940  -12.3710   20.0220 C.2       1 5QR         0.0594
      3 C17       -13.8450   -9.7220   25.7290 C.2       1 5QR        -0.0575
      4 O20       -10.7000   -8.0220   25.5640 O.2       1 5QR        -0.4183
      5 C19       -11.7630   -8.4670   25.2310 C.2       1 5QR         0.2032
      6 N02       -12.2150   -8.3280   23.9930 N.am      1 5QR        -0.2018
      7 C01       -11.4010   -7.6220   22.9660 C.3       1 5QR         0.0626
      8 C18       -12.6270   -9.1750   26.1230 C.2       1 5QR        -0.0102
      9 C04       -14.2650   -9.5130   24.4330 C.2       1 5QR         0.0771
     10 C03       -13.3800   -8.8140   23.5840 C.2       1 5QR         0.0929
     11 C05       -15.6280  -10.1090   23.8600 C.2       1 5QR         0.2113
     12 O06       -15.9740  -11.1260   24.3280 O.2       1 5QR        -0.3921
     13 N07       -16.3610   -9.2930   22.9080 N.am      1 5QR        -0.2382
     14 C08       -17.6210   -9.5880   22.1740 C.ar      1 5QR         0.0684
     15 C16       -17.5270  -10.6810   21.5020 C.ar      1 5QR        -0.0273
     16 C12       -18.6240  -11.0490   20.7210 C.ar      1 5QR        -0.0034
     17 O15       -17.4990  -13.0850   20.1060 O.co2     1 5QR        -0.5608
     18 O14       -19.4540  -12.8490   19.3840 O.co2     1 5QR        -0.5608
     19 C11       -19.7330  -10.2620   20.7300 C.ar      1 5QR        -0.0631
     20 C09       -18.6900   -8.7310   22.1780 C.ar      1 5QR        -0.0388
     21 H1        -20.7035   -8.5107   21.5024 H         1 5QR         0.0584
     22 H2        -14.4499  -10.2997   26.4263 H         1 5QR         0.0675
     23 H3        -11.9454   -7.6118   22.0102 H         1 5QR         0.0617
     24 H4        -10.4416   -8.1442   22.8359 H         1 5QR         0.0617
     25 H5        -11.2146   -6.5884   23.2928 H         1 5QR         0.0617
     26 H6        -12.3176   -9.2921   27.1605 H         1 5QR         0.0413
     27 H7        -13.6670   -8.6666   22.5439 H         1 5QR         0.1354
     28 H8        -15.9580   -8.3979   22.7171 H         1 5QR         0.2240
     29 H9        -16.6321  -11.2915   21.5407 H         1 5QR         0.0535
     30 H10       -20.5902  -10.5531   20.1337 H         1 5QR         0.0521
     31 H11       -18.6570   -7.7919   22.7184 H         1 5QR         0.0523
@<TRIPOS>BOND
     1    1   19 ar 
     2   20    1 ar 
     3   16    2 1  
     4    2   17 ar 
     5    2   18 ar 
     6    3    8 2  
     7    9    3 1  
     8    5    4 2  
     9    6    5 am 
    10    8    5 1  
    11    6    7 1  
    12   10    6 1  
    13    9   10 2  
    14   11    9 1  
    15   11   12 2  
    16   13   11 am 
    17   14   13 1  
    18   15   14 ar 
    19   14   20 ar 
    20   15   16 ar 
    21   16   19 ar 
    22    1   21 1  
    23    3   22 1  
    24    7   23 1  
    25    7   24 1  
    26    7   25 1  
    27    8   26 1  
    28   10   27 1  
    29   13   28 1  
    30   15   29 1  
    31   19   30 1  
    32   20   31 1  
@<TRIPOS>SUBSTRUCTURE
     1 5QR         1

