### 
### Created by X-TOOL on Mon Sep 10 21:13:26 2018
### 

@<TRIPOS>MOLECULE
5epn_ligand
  105   110     1     0     0
SMALL
GAST_HUCK


@<TRIPOS>ATOM
      1 C10       -15.0800  -18.4960   17.1620 C.3       1 5R2         0.0683
      2 C13       -17.3610  -20.1650   16.1510 C.3       1 5R2         0.1330
      3 C15       -16.8030  -21.9480   17.9240 C.3       1 5R2        -0.0488
      4 C17       -15.3780  -24.0000   17.4630 C.3       1 5R2        -0.0531
      5 C20       -14.1910  -23.9640   14.6320 C.3       1 5R2        -0.0488
      6 C21       -13.1040  -23.9870   13.6290 C.3       1 5R2        -0.0064
      7 C22       -12.8070  -22.8200   12.7850 C.3       1 5R2        -0.0152
      8 C01       -15.3750  -14.5170   12.5870 C.3       1 5R2        -0.0527
      9 C02       -14.7640  -15.3740   13.5970 C.3       1 5R2         0.0013
     10 C03       -13.7910  -14.7690   14.5530 C.ar      1 5R2         0.0904
     11 C04       -13.6480  -15.4010   15.7590 C.ar      1 5R2         0.1985
     12 O05       -14.4450  -16.4770   16.0290 O.3       1 5R2        -0.2852
     13 C06       -13.9550  -17.3900   16.9730 C.3       1 5R2         0.1116
     14 C07       -12.9150  -18.0410   16.5620 C.3       1 5R2         0.0213
     15 C08       -13.3870  -19.3620   15.8830 C.3       1 5R2         0.1364
     16 N09       -14.9160  -19.3460   16.1930 N.am      1 5R2        -0.2468
     17 C11       -15.9280  -20.1970   15.6300 C.2       1 5R2         0.2064
     18 O12       -15.6660  -20.9350   14.8030 O.2       1 5R2        -0.3942
     19 C14       -17.7900  -21.4660   16.8440 C.3       1 5R2        -0.0124
     20 C16       -16.6590  -23.4470   18.0120 C.3       1 5R2        -0.0528
     21 C18       -15.5980  -25.0140   16.3960 C.3       1 5R2        -0.0531
     22 C19       -14.3920  -25.0480   15.4520 C.3       1 5R2        -0.0529
     23 C23       -12.2970  -22.7610   14.2070 C.3       1 5R2         0.1374
     24 N24       -12.6000  -21.4010   14.5690 N.am      1 5R2        -0.2737
     25 C25       -13.0920  -20.9040   15.7910 C.2       1 5R2         0.2013
     26 O26       -13.2790  -21.6880   16.6650 O.2       1 5R2        -0.3947
     27 C27       -11.0000  -23.3500   14.8670 C.2       1 5R2         0.2444
     28 O28       -10.6810  -24.4240   14.6450 O.2       1 5R2        -0.3404
     29 N29       -10.1720  -22.6380   15.7600 N.am      1 5R2        -0.1552
     30 S30        -8.8960  -23.1480   16.4860 S.o2      1 5R2         0.0645
     31 O31        -8.0700  -23.7250   15.6630 O.2       1 5R2        -0.1503
     32 O32        -9.2400  -24.1090   17.3070 O.2       1 5R2        -0.1503
     33 C33        -8.1430  -21.9170   17.5690 C.3       1 5R2         0.1004
     34 C34        -7.0650  -21.1800   16.8230 C.3       1 5R2        -0.0268
     35 C35        -6.6980  -22.2190   17.7960 C.3       1 5R2        -0.0268
     36 N36       -18.3110  -19.8080   15.2260 N.am      1 5R2        -0.2412
     37 C37       -18.6350  -18.4860   14.9950 C.2       1 5R2         0.3223
     38 O38       -17.9180  -17.6440   15.3790 O.2       1 5R2        -0.3774
     39 O39       -19.3110  -18.4400   13.7970 O.3       1 5R2        -0.2580
     40 C40       -19.8980  -17.2870   13.2560 C.3       1 5R2         0.0905
     41 C41       -20.6340  -16.4870   14.3010 C.3       1 5R2        -0.0320
     42 C42       -20.8820  -17.7200   12.1860 C.3       1 5R2        -0.0320
     43 C43       -18.8110  -16.4450   12.6150 C.3       1 5R2        -0.0320
     44 N44       -12.8140  -14.9270   16.6260 N.ar      1 5R2        -0.2649
     45 C45       -12.0920  -13.8240   16.2870 C.ar      1 5R2         0.0423
     46 C46       -11.1860  -13.3070   17.2220 C.ar      1 5R2        -0.0161
     47 C47       -10.4120  -12.1840   16.9090 C.ar      1 5R2         0.0960
     48 O48        -9.5030  -11.6220   17.7860 O.3       1 5R2        -0.3183
     49 C49        -9.2230  -12.2500   18.9830 C.3       1 5R2         0.0605
     50 C50       -10.5680  -11.5760   15.6680 C.ar      1 5R2        -0.0236
     51 C51       -11.4730  -12.0790   14.7500 C.ar      1 5R2        -0.0425
     52 C52       -12.2360  -13.2090   15.0890 C.ar      1 5R2         0.0479
     53 N53       -13.0940  -13.7190   14.2090 N.ar      1 5R2        -0.2830
     54 H1        -16.0787  -18.0386   17.1036 H         1 5R2         0.0554
     55 H2        -14.9627  -18.9977   18.1338 H         1 5R2         0.0554
     56 H3        -17.3738  -19.3807   16.9222 H         1 5R2         0.0799
     57 H4        -17.1525  -21.5781   18.8992 H         1 5R2         0.0267
     58 H5        -15.8143  -21.5199   17.7023 H         1 5R2         0.0267
     59 H6        -14.8175  -24.4702   18.2844 H         1 5R2         0.0265
     60 H7        -14.7884  -23.1713   17.0440 H         1 5R2         0.0265
     61 H8        -15.1291  -23.8051   14.0801 H         1 5R2         0.0267
     62 H9        -14.0004  -23.1012   15.2872 H         1 5R2         0.0267
     63 H10       -12.7469  -24.9892   13.3497 H         1 5R2         0.0312
     64 H11       -13.6269  -22.1539   12.4784 H         1 5R2         0.0279
     65 H12       -12.0883  -22.9215   11.9584 H         1 5R2         0.0279
     66 H13       -16.0620  -15.1125   11.9678 H         1 5R2         0.0255
     67 H14       -14.5898  -14.0835   11.9502 H         1 5R2         0.0255
     68 H15       -15.9340  -13.7089   13.0813 H         1 5R2         0.0255
     69 H16       -14.2369  -16.1788   13.0637 H         1 5R2         0.0460
     70 H17       -15.5811  -15.8041   14.1947 H         1 5R2         0.0460
     71 H18       -13.7322  -16.8712   17.9171 H         1 5R2         0.0683
     72 H19       -12.2643  -18.2766   17.4170 H         1 5R2         0.0343
     73 H20       -12.3592  -17.4299   15.8356 H         1 5R2         0.0343
     74 H21       -13.2476  -19.0859   14.8274 H         1 5R2         0.0803
     75 H22       -17.8802  -22.2526   16.0804 H         1 5R2         0.0312
     76 H23       -18.7690  -21.3006   17.3175 H         1 5R2         0.0312
     77 H24       -17.4918  -23.9019   17.4556 H         1 5R2         0.0265
     78 H25       -16.7263  -23.7334   19.0719 H         1 5R2         0.0265
     79 H26       -16.5009  -24.7523   15.8248 H         1 5R2         0.0265
     80 H27       -15.7292  -26.0046   16.8558 H         1 5R2         0.0265
     81 H28       -13.4916  -25.1609   16.0737 H         1 5R2         0.0265
     82 H29       -14.5051  -25.9315   14.8065 H         1 5R2         0.0265
     83 H30       -12.4395  -20.7175   13.8569 H         1 5R2         0.1839
     84 H31       -10.4377  -21.6925   15.9483 H         1 5R2         0.2148
     85 H32        -8.8158  -21.4711   18.3163 H         1 5R2         0.0559
     86 H33        -6.8663  -20.1218   17.0483 H         1 5R2         0.0285
     87 H34        -6.9206  -21.3593   15.7474 H         1 5R2         0.0285
     88 H35        -6.2766  -23.1727   17.4454 H         1 5R2         0.0285
     89 H36        -6.2223  -21.9352   18.7464 H         1 5R2         0.0285
     90 H37       -18.7795  -20.5230   14.7071 H         1 5R2         0.1899
     91 H38       -21.0773  -15.5947   13.8348 H         1 5R2         0.0260
     92 H39       -19.9311  -16.1782   15.0888 H         1 5R2         0.0260
     93 H40       -21.4306  -17.1044   14.7417 H         1 5R2         0.0260
     94 H41       -21.3577  -16.8319   11.7444 H         1 5R2         0.0260
     95 H42       -21.6527  -18.3635   12.6353 H         1 5R2         0.0260
     96 H43       -20.3493  -18.2785   11.4023 H         1 5R2         0.0260
     97 H44       -19.2569  -15.5357   12.1856 H         1 5R2         0.0260
     98 H45       -18.3203  -17.0239   11.8187 H         1 5R2         0.0260
     99 H46       -18.0677  -16.1647   13.3758 H         1 5R2         0.0260
    100 H47       -11.0840  -13.7790   18.1925 H         1 5R2         0.0508
    101 H48        -8.4830  -11.6591   19.5427 H         1 5R2         0.0580
    102 H49        -8.8172  -13.2530   18.7848 H         1 5R2         0.0580
    103 H50       -10.1456  -12.3382   19.5754 H         1 5R2         0.0580
    104 H51        -9.9768  -10.7024   15.4182 H         1 5R2         0.0606
    105 H52       -11.5918  -11.6071   13.7814 H         1 5R2         0.0637
@<TRIPOS>BOND
     1    1   13 1  
     2   16    1 1  
     3    2   17 1  
     4   19    2 1  
     5    2   36 1  
     6    3   19 1  
     7   20    3 1  
     8    4   20 1  
     9   21    4 1  
    10    5    6 1  
    11   22    5 1  
    12    6    7 1  
    13    6   23 1  
    14   23    7 1  
    15    9    8 1  
    16   10    9 1  
    17   11   10 ar 
    18   10   53 ar 
    19   12   11 1  
    20   11   44 ar 
    21   13   12 1  
    22   14   13 1  
    23   15   14 1  
    24   16   15 1  
    25   15   25 1  
    26   17   16 am 
    27   17   18 2  
    28   21   22 1  
    29   23   24 1  
    30   23   27 1  
    31   24   25 am 
    32   25   26 2  
    33   27   28 2  
    34   27   29 am 
    35   29   30 am 
    36   30   31 2  
    37   30   32 2  
    38   30   33 1  
    39   33   34 1  
    40   33   35 1  
    41   34   35 1  
    42   36   37 am 
    43   37   38 2  
    44   37   39 1  
    45   39   40 1  
    46   40   41 1  
    47   40   42 1  
    48   40   43 1  
    49   44   45 ar 
    50   45   46 ar 
    51   45   52 ar 
    52   46   47 ar 
    53   47   48 1  
    54   47   50 ar 
    55   48   49 1  
    56   50   51 ar 
    57   51   52 ar 
    58   52   53 ar 
    59    1   54 1  
    60    1   55 1  
    61    2   56 1  
    62    3   57 1  
    63    3   58 1  
    64    4   59 1  
    65    4   60 1  
    66    5   61 1  
    67    5   62 1  
    68    6   63 1  
    69    7   64 1  
    70    7   65 1  
    71    8   66 1  
    72    8   67 1  
    73    8   68 1  
    74    9   69 1  
    75    9   70 1  
    76   13   71 1  
    77   14   72 1  
    78   14   73 1  
    79   15   74 1  
    80   19   75 1  
    81   19   76 1  
    82   20   77 1  
    83   20   78 1  
    84   21   79 1  
    85   21   80 1  
    86   22   81 1  
    87   22   82 1  
    88   24   83 1  
    89   29   84 1  
    90   33   85 1  
    91   34   86 1  
    92   34   87 1  
    93   35   88 1  
    94   35   89 1  
    95   36   90 1  
    96   41   91 1  
    97   41   92 1  
    98   41   93 1  
    99   42   94 1  
   100   42   95 1  
   101   42   96 1  
   102   43   97 1  
   103   43   98 1  
   104   43   99 1  
   105   46  100 1  
   106   49  101 1  
   107   49  102 1  
   108   49  103 1  
   109   50  104 1  
   110   51  105 1  
@<TRIPOS>SUBSTRUCTURE
     1 5R2         1

