### 
### Created by X-TOOL on Mon Sep 10 21:13:28 2018
### 

@<TRIPOS>MOLECULE
5epr_ligand
   22    23     1     0     0
SMALL
GAST_HUCK


@<TRIPOS>ATOM
      1 O          14.6070    0.6400   -8.7550 O.2       1 5QY        -0.3840
      2 C          14.3640    1.1240   -7.6500 C.2       1 5QY         0.2247
      3 NAG        13.1270    0.8360   -7.0610 N.am      1 5QY        -0.2365
      4 CAJ        12.7970    1.3300   -5.7970 C.ar      1 5QY         0.0858
      5 CAE        11.5160    1.1640   -5.2840 C.ar      1 5QY        -0.0522
      6 CAC        11.2030    1.6460   -4.0170 C.ar      1 5QY        -0.0891
      7 CAD        12.1770    2.2870   -3.2600 C.ar      1 5QY        -0.0893
      8 CAF        13.4610    2.4420   -3.7710 C.ar      1 5QY        -0.0571
      9 CAK        13.7710    1.9600   -5.0410 C.ar      1 5QY         0.0632
     10 N          15.0580    2.1140   -5.5690 N.pl3     1 5QY        -0.3078
     11 CA         15.2700    2.0020   -7.0360 C.3       1 5QY         0.1249
     12 CB         16.7100    1.6000   -7.3600 C.3       1 5QY        -0.0251
     13 H1         12.4686    0.2670   -7.5536 H         1 5QY         0.2218
     14 H2         10.7592    0.6579   -5.8723 H         1 5QY         0.0459
     15 H3         10.2016    1.5220   -3.6209 H         1 5QY         0.0466
     16 H4         11.9360    2.6653   -2.2732 H         1 5QY         0.0454
     17 H5         14.2221    2.9387   -3.1802 H         1 5QY         0.0466
     18 H6         15.8544    2.3040   -4.9441 H         1 5QY         0.1745
     19 H7         15.0994    3.0003   -7.4652 H         1 5QY         0.0789
     20 H8         16.8335    1.5260   -8.4505 H         1 5QY         0.0276
     21 H9         16.9314    0.6261   -6.8990 H         1 5QY         0.0276
     22 H10        17.4006    2.3588   -6.9635 H         1 5QY         0.0276
@<TRIPOS>BOND
     1    1    2 2  
     2    2    3 am 
     3    2   11 1  
     4    3    4 1  
     5    4    5 ar 
     6    4    9 ar 
     7    5    6 ar 
     8    6    7 ar 
     9    7    8 ar 
    10    8    9 ar 
    11    9   10 1  
    12   10   11 1  
    13   11   12 1  
    14    3   13 1  
    15    5   14 1  
    16    6   15 1  
    17    7   16 1  
    18    8   17 1  
    19   10   18 1  
    20   11   19 1  
    21   12   20 1  
    22   12   21 1  
    23   12   22 1  
@<TRIPOS>SUBSTRUCTURE
     1 5QY         1

