### 
### Created by X-TOOL on Mon Sep 10 21:13:28 2018
### 

@<TRIPOS>MOLECULE
5eps_ligand
   22    23     1     0     0
SMALL
GAST_HUCK


@<TRIPOS>ATOM
      1 O          14.6050    0.4510   -8.6340 O.2       1 5QX        -0.3841
      2 C          14.4360    1.0160   -7.5490 C.2       1 5QX         0.2240
      3 CA         15.3980    1.9130   -7.0710 C.3       1 5QX         0.1168
      4 N          15.2440    2.2480   -5.6370 N.pl3     1 5QX        -0.3100
      5 CAJ        14.0110    2.0650   -5.0300 C.ar      1 5QX         0.0632
      6 CAE        13.7600    2.6190   -3.7790 C.ar      1 5QX        -0.0571
      7 CAC        12.5210    2.4270   -3.1850 C.ar      1 5QX        -0.0893
      8 CAD        11.5460    1.6810   -3.8390 C.ar      1 5QX        -0.0890
      9 CAF        11.8060    1.1260   -5.0870 C.ar      1 5QX        -0.0520
     10 CAK        13.0390    1.3250   -5.6870 C.ar      1 5QX         0.0883
     11 NAL        13.2980    0.7760   -6.8850 N.am      1 5QX        -0.2258
     12 CAA        12.3270   -0.1720   -7.4620 C.3       1 5QX         0.0420
     13 H1         15.3248    2.8430   -7.6539 H         1 5QX         0.0755
     14 H2         16.3922    1.4657   -7.2175 H         1 5QX         0.0755
     15 H3         16.0423    2.6122   -5.0975 H         1 5QX         0.1742
     16 H4         14.5257    3.1956   -3.2727 H         1 5QX         0.0466
     17 H5         12.3130    2.8579   -2.2123 H         1 5QX         0.0454
     18 H6         10.5786    1.5316   -3.3733 H         1 5QX         0.0466
     19 H7         11.0458    0.5389   -5.5895 H         1 5QX         0.0459
     20 H8         12.6928   -0.5228   -8.4383 H         1 5QX         0.0545
     21 H9         11.3573    0.3305   -7.5929 H         1 5QX         0.0545
     22 H10        12.2066   -1.0309   -6.7854 H         1 5QX         0.0545
@<TRIPOS>BOND
     1    1    2 2  
     2    2    3 1  
     3    2   11 am 
     4    3    4 1  
     5    4    5 1  
     6    5    6 ar 
     7    5   10 ar 
     8    6    7 ar 
     9    7    8 ar 
    10    8    9 ar 
    11    9   10 ar 
    12   10   11 1  
    13   11   12 1  
    14    3   13 1  
    15    3   14 1  
    16    4   15 1  
    17    6   16 1  
    18    7   17 1  
    19    8   18 1  
    20    9   19 1  
    21   12   20 1  
    22   12   21 1  
    23   12   22 1  
@<TRIPOS>SUBSTRUCTURE
     1 5QX         1

