### 
### Created by X-TOOL on Mon Sep 10 21:13:27 2018
### 

@<TRIPOS>MOLECULE
5epy_ligand
  103   108     1     0     0
SMALL
GAST_HUCK


@<TRIPOS>ATOM
      1 C10       -14.9650  -10.5520   12.9260 C.3       1 5R2         0.0683
      2 C13       -17.2500   -8.9460   13.8160 C.3       1 5R2         0.1330
      3 C15       -16.5580   -7.1300   12.1820 C.3       1 5R2        -0.0487
      4 C17       -15.3580   -4.9750   12.5030 C.3       1 5R2        -0.0464
      5 C20       -14.0490   -5.2430   15.3510 C.2       1 5R2        -0.0942
      6 C21       -13.0850   -5.1240   16.4420 C.3       1 5R2         0.0105
      7 C22       -12.8540   -6.2690   17.3440 C.3       1 5R2        -0.0069
      8 C01       -15.8080  -14.4470   16.1490 C.3       1 5R2        -0.0527
      9 C02       -14.3980  -14.1160   16.4310 C.3       1 5R2         0.0013
     10 C03       -13.5150  -14.4440   15.2780 C.ar      1 5R2         0.0904
     11 C04       -13.4270  -13.7200   14.0790 C.ar      1 5R2         0.1985
     12 O05       -14.2370  -12.6210   13.9150 O.3       1 5R2        -0.2852
     13 C06       -13.7670  -11.5930   13.0520 C.3       1 5R2         0.1116
     14 C07       -12.7470  -10.9100   13.4480 C.3       1 5R2         0.0213
     15 C08       -13.3640   -9.7830   14.3200 C.3       1 5R2         0.1364
     16 N09       -14.8440   -9.7430   13.9160 N.am      1 5R2        -0.2468
     17 C11       -15.8730   -8.9160   14.4630 C.2       1 5R2         0.2064
     18 O12       -15.6480   -8.1870   15.3350 O.2       1 5R2        -0.3942
     19 C14       -17.5870   -7.6170   13.1780 C.3       1 5R2        -0.0124
     20 C16       -16.6200   -5.6290   12.0000 C.3       1 5R2        -0.0513
     21 C18       -15.6150   -4.2710   13.7960 C.3       1 5R2        -0.0365
     22 C19       -14.3060   -4.1740   14.5470 C.2       1 5R2        -0.0985
     23 C23       -12.2780   -6.3870   15.9300 C.3       1 5R2         0.1453
     24 N24       -12.5790   -7.7780   15.6110 N.am      1 5R2        -0.2722
     25 C25       -12.9860   -8.3150   14.3760 C.2       1 5R2         0.2014
     26 O26       -13.0820   -7.6610   13.4350 O.2       1 5R2        -0.3947
     27 C27       -10.9780   -5.8310   15.2530 C.2       1 5R2         0.2463
     28 O28       -10.6640   -4.7370   15.4050 O.2       1 5R2        -0.3402
     29 N29       -10.1320   -6.5960   14.4230 N.am      1 5R2        -0.1550
     30 S30        -8.8330   -6.0530   13.7530 S.o2      1 5R2         0.0645
     31 O31        -8.0250   -5.4660   14.6370 O.2       1 5R2        -0.1503
     32 O32        -9.2120   -5.0870   12.9580 O.2       1 5R2        -0.1503
     33 C33        -8.0580   -7.2920   12.6830 C.3       1 5R2         0.1004
     34 C34        -6.5820   -7.1110   12.5500 C.3       1 5R2        -0.0268
     35 C35        -7.0850   -8.1030   13.4990 C.3       1 5R2        -0.0268
     36 N36       -18.3310   -9.2430   14.6550 N.am      1 5R2        -0.2412
     37 C37       -18.8170  -10.5420   14.7340 C.2       1 5R2         0.3223
     38 O38       -18.2210  -11.4560   14.2390 O.2       1 5R2        -0.3774
     39 O39       -19.6730  -10.7330   15.8080 O.3       1 5R2        -0.2580
     40 C40       -20.4540  -11.9280   15.8330 C.3       1 5R2         0.0905
     41 C41       -21.0190  -12.3220   14.4600 C.3       1 5R2        -0.0320
     42 C42       -21.6220  -11.7010   16.7830 C.3       1 5R2        -0.0320
     43 C43       -19.6140  -13.0540   16.3390 C.3       1 5R2        -0.0320
     44 N44       -12.6050  -14.1560   13.1220 N.ar      1 5R2        -0.2649
     45 C45       -11.8840  -15.2930   13.4130 C.ar      1 5R2         0.0423
     46 C46       -10.9800  -15.8230   12.4950 C.ar      1 5R2        -0.0161
     47 C47       -10.2400  -16.9740   12.8230 C.ar      1 5R2         0.0960
     48 O48        -9.3280  -17.5610   11.9910 O.3       1 5R2        -0.3183
     49 C49        -9.0150  -16.9210   10.7850 C.3       1 5R2         0.0605
     50 C50       -10.3920  -17.6090   14.0450 C.ar      1 5R2        -0.0236
     51 C51       -11.2600  -17.0890   14.9720 C.ar      1 5R2        -0.0425
     52 C52       -11.9980  -15.9430   14.6050 C.ar      1 5R2         0.0479
     53 N53       -12.8330  -15.5180   15.5030 N.ar      1 5R2        -0.2830
     54 H1        -15.9313  -11.0750   12.9773 H         1 5R2         0.0554
     55 H2        -14.8949  -10.0036   11.9751 H         1 5R2         0.0554
     56 H3        -17.2127   -9.7167   13.0321 H         1 5R2         0.0799
     57 H4        -16.7439   -7.6144   11.2121 H         1 5R2         0.0267
     58 H5        -15.5556   -7.4040   12.5426 H         1 5R2         0.0267
     59 H6        -15.0055   -4.2467   11.7578 H         1 5R2         0.0285
     60 H7        -14.5874   -5.7448   12.6566 H         1 5R2         0.0285
     61 H8        -14.5630   -6.1878   15.1802 H         1 5R2         0.0452
     62 H9        -12.7552   -4.1080   16.7046 H         1 5R2         0.0435
     63 H10       -13.7020   -6.9057   17.6364 H         1 5R2         0.0300
     64 H11       -12.1700   -6.1544   18.1978 H         1 5R2         0.0300
     65 H12       -16.4264  -14.1909   17.0219 H         1 5R2         0.0255
     66 H13       -15.8972  -15.5232   15.9395 H         1 5R2         0.0255
     67 H14       -16.1516  -13.8736   15.2754 H         1 5R2         0.0255
     68 H15       -14.0658  -14.6894   17.3090 H         1 5R2         0.0460
     69 H16       -14.3202  -13.0398   16.6449 H         1 5R2         0.0460
     70 H17       -13.5306  -12.0384   12.0744 H         1 5R2         0.0683
     71 H18       -12.2030  -10.4872   12.5906 H         1 5R2         0.0343
     72 H19       -12.0650  -11.5353   14.0428 H         1 5R2         0.0343
     73 H20       -13.2652  -10.1433   15.3546 H         1 5R2         0.0803
     74 H21       -17.6787   -6.8647   13.9753 H         1 5R2         0.0312
     75 H22       -18.5505   -7.7186   12.6571 H         1 5R2         0.0312
     76 H23       -17.4793   -5.2331   12.5610 H         1 5R2         0.0267
     77 H24       -16.7431   -5.4003   10.9311 H         1 5R2         0.0267
     78 H25       -16.3449   -4.8393   14.3912 H         1 5R2         0.0388
     79 H26       -16.0077   -3.2624   13.5997 H         1 5R2         0.0388
     80 H27       -13.6296   -3.3257   14.4534 H         1 5R2         0.0450
     81 H28       -12.4844   -8.4305   16.3629 H         1 5R2         0.1841
     82 H29       -10.3818   -7.5493   14.2531 H         1 5R2         0.2148
     83 H30        -8.7042   -7.6856   11.8846 H         1 5R2         0.0559
     84 H31        -6.1088   -6.1902   12.9217 H         1 5R2         0.0285
     85 H32        -6.0714   -7.4415   11.6335 H         1 5R2         0.0285
     86 H33        -6.9554   -9.1756   13.2922 H         1 5R2         0.0285
     87 H34        -6.9928   -7.9243   14.5804 H         1 5R2         0.0285
     88 H35       -18.7542   -8.5182   15.1987 H         1 5R2         0.1899
     89 H36       -21.6063  -13.2470   14.5569 H         1 5R2         0.0260
     90 H37       -20.1901  -12.4861   13.7557 H         1 5R2         0.0260
     91 H38       -21.6653  -11.5151   14.0841 H         1 5R2         0.0260
     92 H39       -22.2436  -12.6077   16.8230 H         1 5R2         0.0260
     93 H40       -22.2282  -10.8564   16.4236 H         1 5R2         0.0260
     94 H41       -21.2381  -11.4750   17.7887 H         1 5R2         0.0260
     95 H42       -20.2121  -13.9770   16.3599 H         1 5R2         0.0260
     96 H43       -19.2628  -12.8216   17.3552 H         1 5R2         0.0260
     97 H44       -18.7484  -13.1930   15.6747 H         1 5R2         0.0260
     98 H45       -10.8468  -15.3492   11.5291 H         1 5R2         0.0508
     99 H46        -8.2716  -17.5173   10.2357 H         1 5R2         0.0580
    100 H47        -8.6018  -15.9236   10.9957 H         1 5R2         0.0580
    101 H48        -9.9258  -16.8196   10.1765 H         1 5R2         0.0580
    102 H49        -9.8300  -18.5090   14.2669 H         1 5R2         0.0606
    103 H50       -11.3747  -17.5417   15.9503 H         1 5R2         0.0637
@<TRIPOS>BOND
     1    1   13 1  
     2   16    1 1  
     3    2   17 1  
     4   19    2 1  
     5    2   36 1  
     6    3   19 1  
     7   20    3 1  
     8    4   20 1  
     9   21    4 1  
    10    5    6 1  
    11   22    5 2  
    12    6    7 1  
    13    6   23 1  
    14   23    7 1  
    15    9    8 1  
    16   10    9 1  
    17   11   10 ar 
    18   10   53 ar 
    19   12   11 1  
    20   11   44 ar 
    21   13   12 1  
    22   14   13 1  
    23   15   14 1  
    24   16   15 1  
    25   15   25 1  
    26   17   16 am 
    27   17   18 2  
    28   21   22 1  
    29   23   24 1  
    30   23   27 1  
    31   24   25 am 
    32   25   26 2  
    33   27   28 2  
    34   27   29 am 
    35   29   30 am 
    36   30   31 2  
    37   30   32 2  
    38   30   33 1  
    39   33   34 1  
    40   33   35 1  
    41   34   35 1  
    42   36   37 am 
    43   37   38 2  
    44   37   39 1  
    45   39   40 1  
    46   40   41 1  
    47   40   42 1  
    48   40   43 1  
    49   44   45 ar 
    50   45   46 ar 
    51   45   52 ar 
    52   46   47 ar 
    53   47   48 1  
    54   47   50 ar 
    55   48   49 1  
    56   50   51 ar 
    57   51   52 ar 
    58   52   53 ar 
    59    1   54 1  
    60    1   55 1  
    61    2   56 1  
    62    3   57 1  
    63    3   58 1  
    64    4   59 1  
    65    4   60 1  
    66    5   61 1  
    67    6   62 1  
    68    7   63 1  
    69    7   64 1  
    70    8   65 1  
    71    8   66 1  
    72    8   67 1  
    73    9   68 1  
    74    9   69 1  
    75   13   70 1  
    76   14   71 1  
    77   14   72 1  
    78   15   73 1  
    79   19   74 1  
    80   19   75 1  
    81   20   76 1  
    82   20   77 1  
    83   21   78 1  
    84   21   79 1  
    85   22   80 1  
    86   24   81 1  
    87   29   82 1  
    88   33   83 1  
    89   34   84 1  
    90   34   85 1  
    91   35   86 1  
    92   35   87 1  
    93   36   88 1  
    94   41   89 1  
    95   41   90 1  
    96   41   91 1  
    97   42   92 1  
    98   42   93 1  
    99   42   94 1  
   100   43   95 1  
   101   43   96 1  
   102   43   97 1  
   103   46   98 1  
   104   49   99 1  
   105   49  100 1  
   106   49  101 1  
   107   50  102 1  
   108   51  103 1  
@<TRIPOS>SUBSTRUCTURE
     1 5R2         1

