### 
### Created by X-TOOL on Mon Sep 10 21:13:29 2018
### 

@<TRIPOS>MOLECULE
5eqe_ligand
   43    44     1     0     0
SMALL
GAST_HUCK


@<TRIPOS>ATOM
      1 C6         17.2160   72.9340   60.2590 C.3       1 5R8         0.0090
      2 C1         19.6050   72.1640   60.4190 C.3       1 5R8        -0.0429
      3 N2         18.2970   72.3260   61.0750 N.4       1 5R8         0.2369
      4 C7         17.4650   74.4120   59.8420 C.3       1 5R8         0.0105
      5 N8         17.8350   75.3910   60.9230 N.4       1 5R8         0.2501
      6 C9         17.4390   75.0220   62.3020 C.3       1 5R8        -0.0255
      7 C10        18.4690   74.1010   62.9500 C.3       1 5R8         0.0277
      8 C11        18.2850   72.6280   62.5420 C.3       1 5R8        -0.0270
      9 C22        17.7520   76.8590   60.6240 C.3       1 5R8        -0.0009
     10 C23        17.2610   77.3120   59.2440 C.ar      1 5R8        -0.0053
     11 C26        18.1980   77.6890   58.2340 C.ar      1 5R8        -0.0616
     12 C27        17.7530   78.1070   56.9580 C.ar      1 5R8        -0.0616
     13 C28        16.3510   78.1660   56.6640 C.ar      1 5R8        -0.0054
     14 C29        15.4130   77.7940   57.6690 C.ar      1 5R8        -0.0616
     15 C30        15.8580   77.3760   58.9420 C.ar      1 5R8        -0.0616
     16 C35        15.8630   78.6110   55.3030 C.3       1 5R8        -0.0046
     17 N36        16.0910   80.0430   55.0660 N.4       1 5R8         0.2299
     18 H1         16.2842   72.8956   60.8424 H         1 5R8         0.0868
     19 H2         17.1004   72.3352   59.3435 H         1 5R8         0.0868
     20 H3         20.3144   71.7059   61.1239 H         1 5R8         0.0778
     21 H4         19.9829   73.1486   60.1064 H         1 5R8         0.0778
     22 H5         19.4950   71.5164   59.5367 H         1 5R8         0.0778
     23 H6         17.9895   71.3662   61.0920 H         1 5R8         0.2033
     24 H7         16.5430   74.7793   59.3678 H         1 5R8         0.0868
     25 H8         18.2816   74.4123   59.1051 H         1 5R8         0.0868
     26 H9         18.8337   75.2591   60.9596 H         1 5R8         0.2049
     27 H10        16.4680   74.5061   62.2695 H         1 5R8         0.0816
     28 H11        17.3479   75.9373   62.9052 H         1 5R8         0.0816
     29 H12        18.3728   74.1785   64.0430 H         1 5R8         0.0369
     30 H13        19.4745   74.4278   62.6463 H         1 5R8         0.0369
     31 H14        19.0972   72.0502   63.0072 H         1 5R8         0.0816
     32 H15        17.3181   72.2901   62.9432 H         1 5R8         0.0816
     33 H16        18.7625   77.2724   60.7578 H         1 5R8         0.0967
     34 H17        17.0734   77.3013   61.3682 H         1 5R8         0.0967
     35 H18        19.2602   77.6545   58.4474 H         1 5R8         0.0542
     36 H19        18.4755   78.3840   56.1988 H         1 5R8         0.0542
     37 H20        14.3510   77.8320   57.4553 H         1 5R8         0.0542
     38 H21        15.1333   77.1004   59.6996 H         1 5R8         0.0542
     39 H22        14.7842   78.4086   55.2312 H         1 5R8         0.0965
     40 H23        16.3961   78.0362   54.5314 H         1 5R8         0.0965
     41 H24        15.7505   80.2903   54.1500 H         1 5R8         0.2007
     42 H25        17.0780   80.2399   55.1220 H         1 5R8         0.2007
     43 H26        15.6009   80.5812   55.7632 H         1 5R8         0.2007
@<TRIPOS>BOND
     1    1    3 1  
     2    1    4 1  
     3    3    2 1  
     4    3    8 1  
     5    4    5 1  
     6    5    6 1  
     7    5    9 1  
     8    6    7 1  
     9    7    8 1  
    10    9   10 1  
    11   10   11 ar 
    12   10   15 ar 
    13   11   12 ar 
    14   12   13 ar 
    15   13   14 ar 
    16   13   16 1  
    17   14   15 ar 
    18   16   17 1  
    19    1   18 1  
    20    1   19 1  
    21    2   20 1  
    22    2   21 1  
    23    2   22 1  
    24    3   23 1  
    25    4   24 1  
    26    4   25 1  
    27    5   26 1  
    28    6   27 1  
    29    6   28 1  
    30    7   29 1  
    31    7   30 1  
    32    8   31 1  
    33    8   32 1  
    34    9   33 1  
    35    9   34 1  
    36   11   35 1  
    37   12   36 1  
    38   14   37 1  
    39   15   38 1  
    40   16   39 1  
    41   16   40 1  
    42   17   41 1  
    43   17   42 1  
    44   17   43 1  
@<TRIPOS>SUBSTRUCTURE
     1 5R8         1

