### 
### Created by X-TOOL on Mon Sep 10 21:13:29 2018
### 

@<TRIPOS>MOLECULE
5eqp_ligand
   42    44     1     0     0
SMALL
GAST_HUCK


@<TRIPOS>ATOM
      1 N7         18.3270   71.1430   60.9240 N.4       1 5R9         0.2369
      2 C5         18.3310   73.5380   60.2080 C.3       1 5R9         0.0107
      3 C6         17.8300   72.1120   59.9470 C.3       1 5R9         0.0090
      4 C2         18.6800   72.8470   62.7330 C.3       1 5R9         0.0277
      5 C1         17.9980   71.5460   62.2970 C.3       1 5R9        -0.0270
      6 C3         17.8030   74.0820   62.5070 C.3       1 5R9        -0.0253
      7 N4         17.4480   74.2900   61.1010 N.4       1 5R9         0.2515
      8 C18        19.7600   70.9210   60.7650 C.3       1 5R9        -0.0429
      9 C22        17.4840   75.7030   60.7680 C.3       1 5R9         0.0039
     10 C23        16.6530   76.0110   59.5600 C.ar      1 5R9         0.0076
     11 C26        15.3470   75.5470   59.4710 C.ar      1 5R9        -0.0462
     12 C27        14.5760   75.8280   58.3550 C.ar      1 5R9        -0.0416
     13 C28        15.0880   76.5680   57.2950 C.ar      1 5R9         0.0424
     14 C29        16.3990   77.0400   57.4000 C.ar      1 5R9        -0.0005
     15 C30        17.1680   76.7540   58.5170 C.ar      1 5R9        -0.0417
     16 N34        14.3160   76.8360   56.2300 N.ar      1 5R9        -0.2983
     17 C35        14.8670   77.5580   55.2420 C.ar      1 5R9         0.0084
     18 C36        16.1560   78.0510   55.2680 C.ar      1 5R9        -0.0341
     19 C37        16.9450   77.7750   56.3680 C.ar      1 5R9        -0.0381
     20 H1         17.8620   70.2666   60.7458 H         1 5R9         0.2033
     21 H2         18.3964   74.0698   59.2474 H         1 5R9         0.0868
     22 H3         19.3300   73.4824   60.6651 H         1 5R9         0.0868
     23 H4         16.7306   72.1146   59.9841 H         1 5R9         0.0868
     24 H5         18.1624   71.8017   58.9454 H         1 5R9         0.0868
     25 H6         19.6098   72.9663   62.1575 H         1 5R9         0.0369
     26 H7         18.9184   72.7768   63.8045 H         1 5R9         0.0369
     27 H8         18.3116   70.7429   62.9801 H         1 5R9         0.0816
     28 H9         16.9089   71.6833   62.3679 H         1 5R9         0.0816
     29 H10        18.3484   74.9679   62.8643 H         1 5R9         0.0816
     30 H11        16.8762   73.9633   63.0874 H         1 5R9         0.0816
     31 H12        16.5065   73.9568   60.9644 H         1 5R9         0.2051
     32 H13        19.9717   70.6212   59.7280 H         1 5R9         0.0778
     33 H14        20.0860   70.1250   61.4506 H         1 5R9         0.0778
     34 H15        20.3028   71.8493   60.9964 H         1 5R9         0.0778
     35 H16        18.5254   75.9953   60.5677 H         1 5R9         0.0987
     36 H17        17.0989   76.2800   61.6217 H         1 5R9         0.0987
     37 H18        14.9279   74.9607   60.2807 H         1 5R9         0.0623
     38 H19        13.5558   75.4647   58.3072 H         1 5R9         0.0640
     39 H20        18.1873   77.1186   58.5722 H         1 5R9         0.0564
     40 H21        14.2612   77.7674   54.3678 H         1 5R9         0.0846
     41 H22        16.5405   78.6413   54.4441 H         1 5R9         0.0687
     42 H23        17.9688   78.1276   56.4190 H         1 5R9         0.0752
@<TRIPOS>BOND
     1    1    3 1  
     2    1    5 1  
     3    1    8 1  
     4    3    2 1  
     5    2    7 1  
     6    5    4 1  
     7    4    6 1  
     8    6    7 1  
     9    7    9 1  
    10    9   10 1  
    11   10   11 ar 
    12   10   15 ar 
    13   11   12 ar 
    14   12   13 ar 
    15   13   14 ar 
    16   13   16 ar 
    17   14   15 ar 
    18   14   19 ar 
    19   16   17 ar 
    20   17   18 ar 
    21   18   19 ar 
    22    1   20 1  
    23    2   21 1  
    24    2   22 1  
    25    3   23 1  
    26    3   24 1  
    27    4   25 1  
    28    4   26 1  
    29    5   27 1  
    30    5   28 1  
    31    6   29 1  
    32    6   30 1  
    33    7   31 1  
    34    8   32 1  
    35    8   33 1  
    36    8   34 1  
    37    9   35 1  
    38    9   36 1  
    39   11   37 1  
    40   12   38 1  
    41   15   39 1  
    42   17   40 1  
    43   18   41 1  
    44   19   42 1  
@<TRIPOS>SUBSTRUCTURE
     1 5R9         1

