### 
### Created by X-TOOL on Mon Sep 10 21:13:29 2018
### 

@<TRIPOS>MOLECULE
5eqy_ligand
   73    76     1     0     0
SMALL
GAST_HUCK


@<TRIPOS>ATOM
      1 C1         19.7990   71.6290   60.5030 C.3       1 5RA        -0.0429
      2 C51        12.6750   83.5900   50.6730 C.3       1 5RA         0.0090
      3 C6         18.8160   72.4180   62.1360 C.3       1 5RA        -0.0270
      4 C8         17.2180   74.4640   62.2330 C.3       1 5RA        -0.0254
      5 C10        17.9800   74.5270   59.7740 C.3       1 5RA         0.0107
      6 N2         18.2050   72.2240   60.7860 N.4       1 5RA         0.2369
      7 C7         18.2270   73.5810   62.9920 C.3       1 5RA         0.0277
      8 N9         17.7910   75.2380   61.1010 N.4       1 5RA         0.2511
      9 C11        18.6420   73.1430   59.7200 C.3       1 5RA         0.0090
     10 C22        17.2200   76.6370   61.0470 C.3       1 5RA         0.0040
     11 C23        16.6220   77.1260   59.7350 C.ar      1 5RA         0.0119
     12 C26        15.4060   76.5970   59.2240 C.ar      1 5RA        -0.0212
     13 C27        14.8410   77.0390   57.9970 C.ar      1 5RA         0.0940
     14 C28        15.4980   78.0860   57.2070 C.ar      1 5RA         0.0054
     15 C29        16.7200   78.5940   57.7590 C.ar      1 5RA        -0.0508
     16 C30        17.2690   78.1330   58.9880 C.ar      1 5RA        -0.0466
     17 C34        15.0450   78.6840   55.8540 C.ar      1 5RA        -0.0206
     18 C35        13.9720   78.1470   55.1100 C.ar      1 5RA        -0.0590
     19 C36        13.5620   78.6840   53.8620 C.ar      1 5RA        -0.0533
     20 C37        14.2220   79.7990   53.3090 C.ar      1 5RA         0.0030
     21 C38        15.3030   80.3460   54.0460 C.ar      1 5RA        -0.0533
     22 C39        15.7010   79.8120   55.2710 C.ar      1 5RA        -0.0590
     23 C44        13.6120   76.3560   57.6530 C.1       1 5RA         0.0957
     24 N45        12.6420   75.7890   57.3440 N.1       1 5RA        -0.3316
     25 C46        13.8080   80.3970   51.9730 C.3       1 5RA         0.0029
     26 N47        12.7550   81.4610   51.9960 N.4       1 5RA         0.2513
     27 C50        12.3950   82.0860   50.7130 C.3       1 5RA         0.0107
     28 N52        13.3140   83.9990   51.9260 N.4       1 5RA         0.2369
     29 C53        12.4020   84.3050   53.0340 C.3       1 5RA        -0.0270
     30 C54        11.4970   83.1690   53.5470 C.3       1 5RA         0.0277
     31 C55        11.8940   81.7090   53.1960 C.3       1 5RA        -0.0253
     32 C66        14.4650   84.8930   51.7980 C.3       1 5RA        -0.0429
     33 H1         19.9983   70.7808   61.1744 H         1 5RA         0.0778
     34 H2         20.5288   72.4290   60.6964 H         1 5RA         0.0778
     35 H3         19.8865   71.2976   59.4578 H         1 5RA         0.0778
     36 H4         11.7285   84.1364   50.5483 H         1 5RA         0.0868
     37 H5         13.3432   83.8167   49.8292 H         1 5RA         0.0868
     38 H6         19.8891   72.6141   61.9948 H         1 5RA         0.0816
     39 H7         18.6853   71.4839   62.7020 H         1 5RA         0.0816
     40 H8         16.7821   75.1769   62.9483 H         1 5RA         0.0816
     41 H9         16.4257   73.8129   61.8352 H         1 5RA         0.0816
     42 H10        18.5883   75.1923   59.1436 H         1 5RA         0.0868
     43 H11        16.9795   74.4154   59.3307 H         1 5RA         0.0868
     44 H12        17.3166   71.7549   60.7043 H         1 5RA         0.2033
     45 H13        19.0579   74.2171   63.3309 H         1 5RA         0.0369
     46 H14        17.7186   73.1458   63.8650 H         1 5RA         0.0369
     47 H15        18.7439   75.3903   61.3922 H         1 5RA         0.2050
     48 H16        19.7305   73.2773   59.8048 H         1 5RA         0.0868
     49 H17        18.4037   72.6839   58.7492 H         1 5RA         0.0868
     50 H18        18.0321   77.3299   61.3122 H         1 5RA         0.0982
     51 H19        16.4267   76.6938   61.8068 H         1 5RA         0.0982
     52 H20        14.8911   75.8292   59.7901 H         1 5RA         0.0657
     53 H21        17.2509   79.3661   57.2139 H         1 5RA         0.0624
     54 H22        18.1952   78.5605   59.3547 H         1 5RA         0.0629
     55 H23        13.4401   77.2904   55.5079 H         1 5RA         0.0614
     56 H24        12.7332   78.2320   53.3292 H         1 5RA         0.0564
     57 H25        15.8342   81.2023   53.6463 H         1 5RA         0.0564
     58 H26        16.5330   80.2661   55.7970 H         1 5RA         0.0614
     59 H27        13.4343   79.5754   51.3443 H         1 5RA         0.0985
     60 H28        14.7073   80.8315   51.5121 H         1 5RA         0.0985
     61 H29        13.4082   82.1864   52.2474 H         1 5RA         0.2051
     62 H30        12.9749   81.6014   49.9137 H         1 5RA         0.0868
     63 H31        11.3213   81.9258   50.5357 H         1 5RA         0.0868
     64 H32        13.7444   83.1411   52.2339 H         1 5RA         0.2033
     65 H33        11.7465   85.1244   52.7041 H         1 5RA         0.0816
     66 H34        13.0158   84.6448   53.8812 H         1 5RA         0.0816
     67 H35        10.4905   83.3420   53.1383 H         1 5RA         0.0369
     68 H36        11.4655   83.2452   54.6439 H         1 5RA         0.0369
     69 H37        12.4289   81.3019   54.0667 H         1 5RA         0.0816
     70 H38        10.9599   81.1482   53.0444 H         1 5RA         0.0816
     71 H39        15.0806   84.5780   50.9425 H         1 5RA         0.0778
     72 H40        15.0665   84.8503   52.7179 H         1 5RA         0.0778
     73 H41        14.1134   85.9228   51.6372 H         1 5RA         0.0778
@<TRIPOS>BOND
     1    6    1 1  
     2   27    2 1  
     3    2   28 1  
     4    6    3 1  
     5    7    3 1  
     6    4    7 1  
     7    8    4 1  
     8    8    5 1  
     9    5    9 1  
    10    9    6 1  
    11   10    8 1  
    12   11   10 1  
    13   12   11 ar 
    14   16   11 ar 
    15   13   12 ar 
    16   14   13 ar 
    17   13   23 1  
    18   14   15 ar 
    19   17   14 1  
    20   15   16 ar 
    21   18   17 ar 
    22   22   17 ar 
    23   19   18 ar 
    24   20   19 ar 
    25   20   21 ar 
    26   25   20 1  
    27   21   22 ar 
    28   23   24 3  
    29   26   25 1  
    30   26   27 1  
    31   26   31 1  
    32   28   29 1  
    33   28   32 1  
    34   29   30 1  
    35   30   31 1  
    36    1   33 1  
    37    1   34 1  
    38    1   35 1  
    39    2   36 1  
    40    2   37 1  
    41    3   38 1  
    42    3   39 1  
    43    4   40 1  
    44    4   41 1  
    45    5   42 1  
    46    5   43 1  
    47    6   44 1  
    48    7   45 1  
    49    7   46 1  
    50    8   47 1  
    51    9   48 1  
    52    9   49 1  
    53   10   50 1  
    54   10   51 1  
    55   12   52 1  
    56   15   53 1  
    57   16   54 1  
    58   18   55 1  
    59   19   56 1  
    60   21   57 1  
    61   22   58 1  
    62   25   59 1  
    63   25   60 1  
    64   26   61 1  
    65   27   62 1  
    66   27   63 1  
    67   28   64 1  
    68   29   65 1  
    69   29   66 1  
    70   30   67 1  
    71   30   68 1  
    72   31   69 1  
    73   31   70 1  
    74   32   71 1  
    75   32   72 1  
    76   32   73 1  
@<TRIPOS>SUBSTRUCTURE
     1 5RA         1

