### 
### Created by X-TOOL on Mon Sep 10 21:12:44 2018
### 

@<TRIPOS>MOLECULE
5er1_ligand
   87    87     1     0     0
SMALL
GAST_HUCK


@<TRIPOS>ATOM
      1 CD1        36.8870   -4.6090    1.6280 C.3       1 0HT        -0.0625
      2 CD2        38.3870   -6.4960    2.0040 C.3       1 0HT        -0.0625
      3 CG         36.9420   -6.1370    1.6530 C.3       1 0HT        -0.0416
      4 CB         35.9240   -6.7550    2.6110 C.3       1 0HT        -0.0048
      5 N          34.8830   -8.9140    2.0700 N.4       1 0HT         0.2227
      6 CA         36.0430   -8.2750    2.7100 C.3       1 0HT         0.0075
      7 CH         36.0700   -8.6090    4.1960 C.3       1 0HT         0.1370
      8 OH         34.8400   -8.2350    4.7810 O.3       1 0HT        -0.3812
      9 CH2        36.4000  -10.0830    4.4700 C.3       1 0HT         0.0004
     10 N          35.3670  -10.8190    4.8460 N.4       1 0HT         0.2483
     11 CA         35.5180  -12.0550    5.6330 C.3       1 0HT         0.0692
     12 C          36.9810  -12.4800    5.6680 C.2       1 0HT         0.2270
     13 O          37.5530  -12.8830    4.6450 O.2       1 0HT        -0.3907
     14 CB         34.8040  -13.2220    4.9470 C.3       1 0HT         0.0139
     15 CG1        35.1140  -14.5740    5.5950 C.3       1 0HT        -0.0553
     16 CG2        33.2810  -13.0900    4.9680 C.3       1 0HT        -0.0553
     17 N          37.5410  -12.3800    6.8530 N.am      1 0HT        -0.2607
     18 CA         38.9210  -12.7960    7.1110 C.3       1 0HT         0.1336
     19 C          39.0550  -14.3010    6.8730 C.2       1 0HT         0.2044
     20 O          38.2960  -15.1060    7.4340 O.2       1 0HT        -0.3944
     21 CB         39.3040  -12.4700    8.5540 C.3       1 0HT        -0.0037
     22 CG1        40.6630  -13.0470    8.9550 C.3       1 0HT        -0.0491
     23 CG2        38.3010  -13.0100    9.5750 C.3       1 0HT        -0.0582
     24 CD1        41.4910  -12.0850    9.8090 C.3       1 0HT        -0.0648
     25 N          40.0140  -14.6280    6.0300 N.am      1 0HT        -0.2606
     26 CA         40.3100  -16.0180    5.6550 C.3       1 0HT         0.1517
     27 C          41.6600  -16.4400    6.2390 C.2       1 0HT         0.2614
     28 O          42.3860  -17.2510    5.6460 O.2       1 0HT        -0.3676
     29 CB         40.3720  -16.1470    4.1310 C.3       1 0HT         0.0228
     30 CG         39.0240  -16.5060    3.5020 C.ar      1 0HT        -0.0384
     31 CD1        37.8320  -16.1110    4.1230 C.ar      1 0HT        -0.0601
     32 CD2        38.9810  -17.2280    2.3030 C.ar      1 0HT        -0.0601
     33 CE1        36.5990  -16.4360    3.5440 C.ar      1 0HT        -0.0686
     34 CE2        37.7480  -17.5520    1.7240 C.ar      1 0HT        -0.0686
     35 CZ         36.5570  -17.1560    2.3440 C.ar      1 0HT        -0.0687
     36 CM         43.1450  -14.9660    7.2560 C.3       1 0HT         0.0658
     37 O          42.0980  -15.9000    7.4770 O.3       1 0HT        -0.2783
     38 H1         37.6399   -4.2265    0.9231 H         1 0HT         0.0232
     39 H2         37.0953   -4.2180    2.6348 H         1 0HT         0.0232
     40 H3         35.8863   -4.2833    1.3080 H         1 0HT         0.0232
     41 H4         38.4949   -7.5901    2.0384 H         1 0HT         0.0232
     42 H5         38.6421   -6.0713    2.9861 H         1 0HT         0.0232
     43 H6         39.0630   -6.0848    1.2399 H         1 0HT         0.0232
     44 H7         36.7174   -6.5163    0.6452 H         1 0HT         0.0297
     45 H8         34.9130   -6.5050    2.2571 H         1 0HT         0.0323
     46 H9         36.0788   -6.3255    3.6118 H         1 0HT         0.0323
     47 H10        34.9701   -9.9158    2.1401 H         1 0HT         0.1998
     48 H11        34.8458   -8.6472    1.0987 H         1 0HT         0.1998
     49 H12        34.0381   -8.6170    2.5326 H         1 0HT         0.1998
     50 H13        36.9683   -8.6185    2.2243 H         1 0HT         0.0878
     51 H14        36.8638   -8.0052    4.6601 H         1 0HT         0.0705
     52 H15        34.7072   -7.3013    4.6667 H         1 0HT         0.2103
     53 H16        37.1572  -10.1225    5.2669 H         1 0HT         0.0842
     54 H17        36.8141  -10.5187    3.5488 H         1 0HT         0.0842
     55 H18        34.7745  -10.2117    5.3902 H         1 0HT         0.2036
     56 H19        34.8893  -11.0837    3.9988 H         1 0HT         0.2036
     57 H20        35.1279  -11.8984    6.6495 H         1 0HT         0.1101
     58 H21        35.1425  -13.2446    3.9006 H         1 0HT         0.0376
     59 H22        34.5743  -15.3693    5.0601 H         1 0HT         0.0236
     60 H23        34.7946  -14.5580    6.6475 H         1 0HT         0.0236
     61 H24        36.1958  -14.7661    5.5430 H         1 0HT         0.0236
     62 H25        32.9897  -12.1319    4.5128 H         1 0HT         0.0236
     63 H26        32.9242  -13.1254    6.0079 H         1 0HT         0.0236
     64 H27        32.8333  -13.9177    4.3983 H         1 0HT         0.0236
     65 H28        37.0033  -12.0050    7.6082 H         1 0HT         0.1885
     66 H29        39.5947  -12.2585    6.4275 H         1 0HT         0.0803
     67 H30        39.3445  -11.3744    8.6437 H         1 0HT         0.0345
     68 H31        41.2287  -13.2801    8.0409 H         1 0HT         0.0267
     69 H32        40.4965  -13.9706    9.5287 H         1 0HT         0.0267
     70 H33        37.2966  -12.6282    9.3395 H         1 0HT         0.0235
     71 H34        38.5912  -12.6808   10.5836 H         1 0HT         0.0235
     72 H35        38.2938  -14.1093    9.5360 H         1 0HT         0.0235
     73 H36        42.4522  -12.5554   10.0637 H         1 0HT         0.0230
     74 H37        40.9420  -11.8493   10.7326 H         1 0HT         0.0230
     75 H38        41.6743  -11.1587    9.2448 H         1 0HT         0.0230
     76 H39        40.5652  -13.8972    5.6273 H         1 0HT         0.1886
     77 H40        39.5194  -16.6749    6.0467 H         1 0HT         0.0840
     78 H41        41.0975  -16.9334    3.8757 H         1 0HT         0.0475
     79 H42        40.7089  -15.1873    3.7121 H         1 0HT         0.0475
     80 H43        37.8641  -15.5535    5.0521 H         1 0HT         0.0557
     81 H44        39.9027  -17.5362    1.8228 H         1 0HT         0.0557
     82 H45        35.6770  -16.1301    4.0250 H         1 0HT         0.0599
     83 H46        37.7157  -18.1098    0.7951 H         1 0HT         0.0599
     84 H47        35.6027  -17.4067    1.8952 H         1 0HT         0.0559
     85 H48        43.4776  -14.5533    8.2198 H         1 0HT         0.0577
     86 H49        42.7796  -14.1506    6.6145 H         1 0HT         0.0577
     87 H50        43.9886  -15.4708    6.7626 H         1 0HT         0.0577
@<TRIPOS>BOND
     1    3    1 1  
     2    3    2 1  
     3    4    3 1  
     4    6    4 1  
     5    6    5 1  
     6    7    6 1  
     7    7    8 1  
     8   12   11 1  
     9   11   14 1  
    10   11   10 1  
    11   14   15 1  
    12   14   16 1  
    13   12   13 2  
    14   19   18 1  
    15   18   21 1  
    16   18   17 1  
    17   21   22 1  
    18   21   23 1  
    19   22   24 1  
    20   19   20 2  
    21   27   26 1  
    22   26   29 1  
    23   26   25 1  
    24   29   30 1  
    25   30   32 ar 
    26   30   31 ar 
    27   31   33 ar 
    28   33   35 ar 
    29   34   35 ar 
    30   32   34 ar 
    31   27   28 2  
    32   37   36 1  
    33   17   12 am 
    34   25   19 am 
    35    9    7 1  
    36   10    9 1  
    37   37   27 1  
    38    1   38 1  
    39    1   39 1  
    40    1   40 1  
    41    2   41 1  
    42    2   42 1  
    43    2   43 1  
    44    3   44 1  
    45    4   45 1  
    46    4   46 1  
    47    5   47 1  
    48    5   48 1  
    49    5   49 1  
    50    6   50 1  
    51    7   51 1  
    52    8   52 1  
    53    9   53 1  
    54    9   54 1  
    55   10   55 1  
    56   10   56 1  
    57   11   57 1  
    58   14   58 1  
    59   15   59 1  
    60   15   60 1  
    61   15   61 1  
    62   16   62 1  
    63   16   63 1  
    64   16   64 1  
    65   17   65 1  
    66   18   66 1  
    67   21   67 1  
    68   22   68 1  
    69   22   69 1  
    70   23   70 1  
    71   23   71 1  
    72   23   72 1  
    73   24   73 1  
    74   24   74 1  
    75   24   75 1  
    76   25   76 1  
    77   26   77 1  
    78   29   78 1  
    79   29   79 1  
    80   31   80 1  
    81   32   81 1  
    82   33   82 1  
    83   34   83 1  
    84   35   84 1  
    85   36   85 1  
    86   36   86 1  
    87   36   87 1  
@<TRIPOS>SUBSTRUCTURE
     1 0HT         1

