### 
### Created by X-TOOL on Mon Sep 10 21:12:44 2018
### 

@<TRIPOS>MOLECULE
5er2_ligand
  143   146     1     0     0
SMALL
GAST_HUCK


@<TRIPOS>ATOM
      1 OT1         1.8910   27.1630   20.0240 O.2       1 0EK        -0.3774
      2 CT1         2.6450   26.3830   19.4510 C.2       1 0EK         0.3224
      3 OT2         2.5120   24.9680   19.4990 O.3       1 0EK        -0.2580
      4 CT2         1.4250   24.4700   20.2720 C.3       1 0EK         0.0905
      5 CT3         1.5230   22.9370   20.2300 C.3       1 0EK        -0.0320
      6 CT4         0.0820   24.9150   19.6930 C.3       1 0EK        -0.0320
      7 CT5         1.5460   24.9270   21.7290 C.3       1 0EK        -0.0320
      8 N           3.6800   26.7560   18.7220 N.am      1 0EK        -0.2394
      9 CA          4.0640   28.1530   18.4910 C.3       1 0EK         0.1423
     10 C           3.2970   28.7290   17.3100 C.2       1 0EK         0.2060
     11 O           2.9620   28.0120   16.3730 O.2       1 0EK        -0.3942
     12 CB          5.5660   28.2490   18.2070 C.3       1 0EK         0.0214
     13 CG          6.3520   28.1020   19.5110 C.ar      1 0EK        -0.0386
     14 CD1         5.9790   28.8470   20.6230 C.ar      1 0EK        -0.0601
     15 CD2         7.4280   27.2250   19.5620 C.ar      1 0EK        -0.0601
     16 CE1         6.6930   28.7160   21.8090 C.ar      1 0EK        -0.0686
     17 CE2         8.1370   27.1000   20.7510 C.ar      1 0EK        -0.0686
     18 CZ          7.7710   27.8400   21.8690 C.ar      1 0EK        -0.0687
     19 N           3.0910   30.0400   17.3820 N.am      1 0EK        -0.2618
     20 CA          2.3720   30.7220   16.2530 C.3       1 0EK         0.1420
     21 C           3.0440   32.0620   15.9940 C.2       1 0EK         0.2041
     22 O           2.6860   33.0900   16.5650 O.2       1 0EK        -0.3943
     23 CB          0.9320   30.9740   16.6510 C.3       1 0EK         0.0427
     24 CG          0.1370   31.3760   15.4140 C.2       1 0EK         0.0561
     25 ND1         0.5090   31.0740   14.1060 N.pl3     1 0EK        -0.2623
     26 CD2        -1.0600   32.1140   15.3660 C.2       1 0EK        -0.0276
     27 CE1        -0.4580   31.6090   13.2570 C.2       1 0EK         0.0875
     28 NE2        -1.4260   32.2670   14.0280 N.2       1 0EK        -0.3437
     29 N           4.0320   32.0130   15.1300 N.am      1 0EK        -0.2793
     30 CA          4.9180   33.1770   14.9660 C.3       1 0EK         0.0701
     31 CB          6.3790   32.7570   15.1140 C.3       1 0EK        -0.0246
     32 CG          6.7400   32.3700   16.5450 C.3       1 0EK        -0.0389
     33 CD1         6.3080   33.4030   17.5880 C.3       1 0EK        -0.0501
     34 CD2         8.2320   32.0600   16.6920 C.3       1 0EK        -0.0501
     35 CE1         6.5800   32.8580   18.9960 C.3       1 0EK        -0.0528
     36 CE2         8.5440   31.5320   18.0930 C.3       1 0EK        -0.0528
     37 CZ          8.0540   32.4910   19.1790 C.3       1 0EK        -0.0530
     38 CH          4.6570   33.8330   13.6040 C.3       1 0EK         0.0980
     39 OH          5.2410   33.0280   12.5730 O.3       1 0EK        -0.3875
     40 CM          3.1620   33.9930   13.3430 C.3       1 0EK         0.0624
     41 N1          2.9580   35.1140   12.4140 N.am      1 0EK        -0.2566
     42 CB2         2.5730   34.8420   11.0210 C.3       1 0EK         0.0366
     43 CG2         1.1240   34.3860   10.9140 C.3       1 0EK        -0.0265
     44 CD3         0.1630   35.5610   10.9230 C.3       1 0EK        -0.0609
     45 CD4         0.8930   33.4470    9.7460 C.3       1 0EK        -0.0609
     46 C           3.0430   36.3530   12.8660 C.2       1 0EK         0.2622
     47 O           3.2620   36.5440   14.0650 O.2       1 0EK        -0.4005
     48 N           3.0340   37.3660   12.0150 N.am      1 0EK        -0.2517
     49 CA          2.9300   38.7370   12.5440 C.3       1 0EK         0.1313
     50 C           1.4770   39.1560   12.6560 C.2       1 0EK         0.2032
     51 O           0.7080   39.0870   11.6980 O.2       1 0EK        -0.3944
     52 CB          3.6880   39.6980   11.6440 C.3       1 0EK        -0.0124
     53 CG          3.8990   41.0230   12.3560 C.3       1 0EK        -0.0441
     54 CD          4.0770   42.1490   11.3510 C.3       1 0EK        -0.0124
     55 CE          3.7560   43.4800   12.0150 C.3       1 0EK        -0.0354
     56 NZ          3.8870   44.5620   11.0270 N.4       1 0EK         0.2185
     57 N           1.0510   39.6000   13.8260 N.am      1 0EK        -0.2677
     58 CA         -0.3710   39.9870   13.9450 C.3       1 0EK         0.1039
     59 C          -0.4890   41.2800   14.7380 C.2       1 0EK         0.0621
     60 O          -0.2760   42.3520   14.1700 O.co2     1 0EK        -0.5664
     61 CB         -1.1590   38.8810   14.6350 C.3       1 0EK         0.0159
     62 CG         -2.3310   38.2850   13.8600 C.ar      1 0EK        -0.0392
     63 CD1        -3.4900   37.9290   14.5490 C.ar      1 0EK        -0.0602
     64 CD2        -2.3070   38.0710   12.4850 C.ar      1 0EK        -0.0602
     65 CE1        -4.5840   37.3830   13.8890 C.ar      1 0EK        -0.0686
     66 CE2        -3.3950   37.5240   11.8100 C.ar      1 0EK        -0.0686
     67 CZ         -4.5450   37.1760   12.5140 C.ar      1 0EK        -0.0687
     68 OXT        -0.7930   41.1760   16.0170 O.co2     1 0EK        -0.5664
     69 H1          0.7005   22.5008   20.8159 H         1 0EK         0.0260
     70 H2          2.4858   22.6193   20.6567 H         1 0EK         0.0260
     71 H3          1.4527   22.5935   19.1874 H         1 0EK         0.0260
     72 H4         -0.7347   24.5147   20.3117 H         1 0EK         0.0260
     73 H5         -0.0175   24.5367   18.6649 H         1 0EK         0.0260
     74 H6          0.0318   26.0138   19.6859 H         1 0EK         0.0260
     75 H7          0.6983   24.5326   22.3086 H         1 0EK         0.0260
     76 H8          1.5386   26.0262   21.7704 H         1 0EK         0.0260
     77 H9          2.4879   24.5504   22.1544 H         1 0EK         0.0260
     78 H10         4.2378   26.0411   18.3004 H         1 0EK         0.1901
     79 H11         3.8295   28.7392   19.3917 H         1 0EK         0.0823
     80 H12         5.7900   29.2261   17.7542 H         1 0EK         0.0474
     81 H13         5.8580   27.4474   17.5126 H         1 0EK         0.0474
     82 H14         5.1362   29.5264   20.5663 H         1 0EK         0.0557
     83 H15         7.7101   26.6476   18.6890 H         1 0EK         0.0557
     84 H16         6.4107   29.2936   22.6818 H         1 0EK         0.0599
     85 H17         8.9804   26.4213   20.8066 H         1 0EK         0.0599
     86 H18         8.3288   27.7337   22.7924 H         1 0EK         0.0559
     87 H19         3.4087   30.5628   18.1731 H         1 0EK         0.1885
     88 H20         2.4094   30.0964   15.3490 H         1 0EK         0.0824
     89 H21         0.8914   31.7837   17.3944 H         1 0EK         0.0491
     90 H22         0.5032   30.0577   17.0830 H         1 0EK         0.0491
     91 H23         1.3476   30.5498   13.8182 H         1 0EK         0.2386
     92 H24        -1.6068   32.4995   16.2252 H         1 0EK         0.0324
     93 H25        -0.4610   31.5288   12.1710 H         1 0EK         0.1149
     94 H26         4.1818   31.1878   14.5854 H         1 0EK         0.1856
     95 H27         4.6877   33.9087   15.7544 H         1 0EK         0.0582
     96 H28         7.0192   33.5963   14.8046 H         1 0EK         0.0291
     97 H29         6.5647   31.8932   14.4587 H         1 0EK         0.0291
     98 H30         6.1911   31.4430   16.7673 H         1 0EK         0.0302
     99 H31         5.2331   33.6084   17.4764 H         1 0EK         0.0268
    100 H32         6.8764   34.3330   17.4394 H         1 0EK         0.0268
    101 H33         8.8099   32.9794   16.5167 H         1 0EK         0.0268
    102 H34         8.5170   31.3004   15.9491 H         1 0EK         0.0268
    103 H35         5.9653   31.9601   19.1569 H         1 0EK         0.0265
    104 H36         6.3082   33.6258   19.7354 H         1 0EK         0.0265
    105 H37         9.6322   31.4061   18.1927 H         1 0EK         0.0265
    106 H38         8.0485   30.5590   18.2262 H         1 0EK         0.0265
    107 H39         8.1814   32.0111   20.1605 H         1 0EK         0.0265
    108 H40         8.6566   33.4104   19.1393 H         1 0EK         0.0265
    109 H41         5.1258   34.8280   13.5940 H         1 0EK         0.0636
    110 H42         6.1770   32.9581   12.7194 H         1 0EK         0.2100
    111 H43         2.6418   34.1990   14.2901 H         1 0EK         0.0546
    112 H44         2.7636   33.0687   12.8993 H         1 0EK         0.0546
    113 H45         3.2253   34.0529   10.6188 H         1 0EK         0.0522
    114 H46         2.7017   35.7608   10.4300 H         1 0EK         0.0522
    115 H47         0.9124   33.8041   11.8232 H         1 0EK         0.0315
    116 H48        -0.8698   35.1906   10.8443 H         1 0EK         0.0233
    117 H49         0.3820   36.2204   10.0702 H         1 0EK         0.0233
    118 H50         0.2803   36.1235   11.8610 H         1 0EK         0.0233
    119 H51         1.6158   32.6191    9.7927 H         1 0EK         0.0233
    120 H52         1.0252   33.9963    8.8022 H         1 0EK         0.0233
    121 H53        -0.1294   33.0444    9.7958 H         1 0EK         0.0233
    122 H54         3.0967   37.2039   11.0302 H         1 0EK         0.1877
    123 H55         3.3807   38.7626   13.5471 H         1 0EK         0.0797
    124 H56         3.1098   39.8675   10.7237 H         1 0EK         0.0312
    125 H57         4.6653   39.2628   11.3881 H         1 0EK         0.0312
    126 H58         4.7982   40.9555   12.9860 H         1 0EK         0.0269
    127 H59         3.0241   41.2373   12.9874 H         1 0EK         0.0269
    128 H60         3.3981   41.9911   10.5000 H         1 0EK         0.0317
    129 H61         5.1171   42.1596   10.9933 H         1 0EK         0.0317
    130 H62         4.4560   43.6544   12.8454 H         1 0EK         0.0813
    131 H63         2.7264   43.4586   12.4017 H         1 0EK         0.0813
    132 H64         3.6747   45.4446   11.4652 H         1 0EK         0.1994
    133 H65         3.2456   44.4018   10.2661 H         1 0EK         0.1994
    134 H66         4.8305   44.5811   10.6727 H         1 0EK         0.1994
    135 H67         1.6716   39.6719   14.6068 H         1 0EK         0.1877
    136 H68        -0.7842   40.1453   12.9379 H         1 0EK         0.0749
    137 H69        -1.5561   39.2919   15.5749 H         1 0EK         0.0467
    138 H70        -0.4583   38.0633   14.8594 H         1 0EK         0.0467
    139 H71        -3.5384   38.0813   15.6212 H         1 0EK         0.0557
    140 H72        -1.4179   38.3372   11.9249 H         1 0EK         0.0557
    141 H73        -5.4732   37.1168   14.4489 H         1 0EK         0.0599
    142 H74        -3.3470   37.3693   10.7382 H         1 0EK         0.0599
    143 H75        -5.3977   36.7499   11.9978 H         1 0EK         0.0559
@<TRIPOS>BOND
     1    9    8 1  
     2    9   12 1  
     3   10    9 1  
     4   10   11 2  
     5   12   13 1  
     6   13   14 ar 
     7   13   15 ar 
     8   15   17 ar 
     9   17   18 ar 
    10   16   18 ar 
    11   14   16 ar 
    12   20   19 1  
    13   20   23 1  
    14   21   20 1  
    15   21   22 2  
    16   23   24 1  
    17   24   25 1  
    18   24   26 2  
    19   26   28 1  
    20   28   27 2  
    21   25   27 1  
    22   19   10 am 
    23   48   49 1  
    24   49   52 1  
    25   49   50 1  
    26   50   51 2  
    27   52   53 1  
    28   53   54 1  
    29   54   55 1  
    30   55   56 1  
    31   57   58 1  
    32   58   61 1  
    33   58   59 1  
    34   59   60 ar 
    35   59   68 ar 
    36   61   62 1  
    37   62   63 ar 
    38   62   64 ar 
    39   64   66 ar 
    40   66   67 ar 
    41   65   67 ar 
    42   63   65 ar 
    43   50   57 am 
    44    2    1 2  
    45    2    3 1  
    46    3    4 1  
    47    4    5 1  
    48    4    6 1  
    49    4    7 1  
    50    8    2 am 
    51   29   21 am 
    52   30   29 1  
    53   30   31 1  
    54   38   30 1  
    55   31   32 1  
    56   32   33 1  
    57   32   34 1  
    58   33   35 1  
    59   34   36 1  
    60   35   37 1  
    61   36   37 1  
    62   38   39 1  
    63   40   38 1  
    64   41   40 1  
    65   41   42 1  
    66   46   41 am 
    67   42   43 1  
    68   43   44 1  
    69   43   45 1  
    70   46   47 2  
    71   46   48 am 
    72    5   69 1  
    73    5   70 1  
    74    5   71 1  
    75    6   72 1  
    76    6   73 1  
    77    6   74 1  
    78    7   75 1  
    79    7   76 1  
    80    7   77 1  
    81    8   78 1  
    82    9   79 1  
    83   12   80 1  
    84   12   81 1  
    85   14   82 1  
    86   15   83 1  
    87   16   84 1  
    88   17   85 1  
    89   18   86 1  
    90   19   87 1  
    91   20   88 1  
    92   23   89 1  
    93   23   90 1  
    94   25   91 1  
    95   26   92 1  
    96   27   93 1  
    97   29   94 1  
    98   30   95 1  
    99   31   96 1  
   100   31   97 1  
   101   32   98 1  
   102   33   99 1  
   103   33  100 1  
   104   34  101 1  
   105   34  102 1  
   106   35  103 1  
   107   35  104 1  
   108   36  105 1  
   109   36  106 1  
   110   37  107 1  
   111   37  108 1  
   112   38  109 1  
   113   39  110 1  
   114   40  111 1  
   115   40  112 1  
   116   42  113 1  
   117   42  114 1  
   118   43  115 1  
   119   44  116 1  
   120   44  117 1  
   121   44  118 1  
   122   45  119 1  
   123   45  120 1  
   124   45  121 1  
   125   48  122 1  
   126   49  123 1  
   127   52  124 1  
   128   52  125 1  
   129   53  126 1  
   130   53  127 1  
   131   54  128 1  
   132   54  129 1  
   133   55  130 1  
   134   55  131 1  
   135   56  132 1  
   136   56  133 1  
   137   56  134 1  
   138   57  135 1  
   139   58  136 1  
   140   61  137 1  
   141   61  138 1  
   142   63  139 1  
   143   64  140 1  
   144   65  141 1  
   145   66  142 1  
   146   67  143 1  
@<TRIPOS>SUBSTRUCTURE
     1 0EK         1

