### 
### Created by X-TOOL on Mon Sep 10 21:13:28 2018
### 

@<TRIPOS>MOLECULE
5er4_ligand
   35    38     1     0     0
SMALL
GAST_HUCK


@<TRIPOS>ATOM
      1 C10        36.3950   -4.1850   13.4910 C.ar      1 5RL        -0.0237
      2 C11        35.9120   -1.9640   12.8120 C.ar      1 5RL        -0.0528
      3 C12        36.7790   -2.8120   13.4390 C.ar      1 5RL         0.0028
      4 C13        31.7490   -3.2240   11.8680 C.3       1 5RL         0.0167
      5 C14        35.6190   -6.9220   13.5830 C.ar      1 5RL        -0.0623
      6 C15        37.2250   -5.1190   14.0970 C.ar      1 5RL        -0.0661
      7 C16        36.1540   -0.5860   12.6800 C.ar      1 5RL        -0.0805
      8 C19        38.2020   -0.8580   13.8280 C.ar      1 5RL         0.1109
      9 C20        37.3080   -0.0310   13.1950 C.ar      1 5RL        -0.0462
     10 O01        38.9800   -2.8730   14.6450 O.3       1 5RL        -0.3364
     11 O02        39.3660   -0.3390   14.3730 O.3       1 5RL        -0.3418
     12 N03        32.8550   -4.1020   12.2000 N.pl3     1 5RL        -0.3085
     13 C04        34.2500   -3.7260   12.2920 C.ar      1 5RL         0.0448
     14 C05        35.1830   -4.6670   12.9460 C.ar      1 5RL         0.0111
     15 C06        34.6390   -2.2910   12.1950 C.ar      1 5RL        -0.0540
     16 C07        34.8210   -5.9500   12.9900 C.ar      1 5RL        -0.0312
     17 C08        32.4410   -5.5010   12.4420 C.3       1 5RL         0.0378
     18 C09        33.5660   -6.5720   12.4550 C.3       1 5RL         0.0027
     19 C17        37.9690   -2.2190   13.9660 C.ar      1 5RL         0.1201
     20 C18        36.8400   -6.4760   14.1470 C.ar      1 5RL        -0.0723
     21 H1         30.8103   -3.7974   11.8767 H         1 5RL         0.0482
     22 H2         31.9081   -2.7962   10.8672 H         1 5RL         0.0482
     23 H3         31.6899   -2.4127   12.6084 H         1 5RL         0.0482
     24 H4         35.3231   -7.9644   13.6123 H         1 5RL         0.0517
     25 H5         38.1677   -4.8062   14.5312 H         1 5RL         0.0529
     26 H6         35.4320    0.0431   12.1721 H         1 5RL         0.0444
     27 H7         37.5033    1.0312   13.1019 H         1 5RL         0.0522
     28 H8         39.0649   -2.5041   15.5163 H         1 5RL         0.2455
     29 H9         39.8686   -1.0405   14.7702 H         1 5RL         0.2418
     30 H10        34.0203   -1.5495   11.7026 H         1 5RL         0.0368
     31 H11        31.7269   -5.7781   11.6525 H         1 5RL         0.0542
     32 H12        31.9381   -5.5349   13.4197 H         1 5RL         0.0542
     33 H13        33.2676   -7.4134   13.0977 H         1 5RL         0.0458
     34 H14        33.7412   -6.9362   11.4319 H         1 5RL         0.0458
     35 H15        37.4940   -7.1941   14.6283 H         1 5RL         0.0591
@<TRIPOS>BOND
     1    1    3 ar 
     2    1    6 ar 
     3   14    1 ar 
     4    3    2 ar 
     5    2    7 ar 
     6    2   15 ar 
     7    3   19 ar 
     8   12    4 1  
     9    5   16 ar 
    10   20    5 ar 
    11    6   20 ar 
    12    7    9 ar 
    13    8    9 ar 
    14    8   11 1  
    15   19    8 ar 
    16   19   10 1  
    17   13   12 1  
    18   12   17 1  
    19   13   14 ar 
    20   13   15 ar 
    21   14   16 ar 
    22   16   18 1  
    23   17   18 1  
    24    4   21 1  
    25    4   22 1  
    26    4   23 1  
    27    5   24 1  
    28    6   25 1  
    29    7   26 1  
    30    9   27 1  
    31   10   28 1  
    32   11   29 1  
    33   15   30 1  
    34   17   31 1  
    35   17   32 1  
    36   18   33 1  
    37   18   34 1  
    38   20   35 1  
@<TRIPOS>SUBSTRUCTURE
     1 5RL         1

