### 
### Created by X-TOOL on Mon Sep 10 21:13:26 2018
### 

@<TRIPOS>MOLECULE
5er5_ligand
   44    47     1     0     0
SMALL
GAST_HUCK


@<TRIPOS>ATOM
      1 C1         -0.7740    9.4650   15.2390 C.ar      1 ET         -0.0178
      2 C2         -1.5870   10.0120   16.2200 C.ar      1 ET          0.0015
      3 C3         -2.3100    9.1980   17.0630 C.ar      1 ET          0.0861
      4 C4         -2.2400    7.8050   16.9260 C.ar      1 ET          0.0074
      5 N5         -1.3430    5.8920   15.7910 N.ar      1 ET         -0.3459
      6 C6         -0.5770    5.2850   14.8630 C.ar      1 ET          0.0662
      7 C7          0.9780    5.4250   12.9860 C.ar      1 ET          0.0294
      8 C8          1.7440    6.2160   12.1170 C.ar      1 ET          0.1071
      9 C9          1.7050    7.6020   12.2180 C.ar      1 ET          0.0089
     10 C10         0.9190    8.2350   13.1870 C.ar      1 ET         -0.0155
     11 C11         0.1880    6.0500   13.9600 C.ar      1 ET          0.0550
     12 C12         0.1470    7.4810   14.0650 C.ar      1 ET          0.0430
     13 C13        -0.6860    8.0720   15.0840 C.ar      1 ET          0.0421
     14 C14        -1.4210    7.2200   15.9310 C.ar      1 ET          0.0525
     15 C15        -0.5250    3.8700   14.7270 C.ar      1 ET          0.0197
     16 C16         0.4820    3.1170   15.3430 C.ar      1 ET         -0.0393
     17 C17         0.5110    1.7310   15.1710 C.ar      1 ET         -0.0505
     18 C18        -0.4480    1.1010   14.3900 C.ar      1 ET         -0.0518
     19 C19        -1.4450    1.8420   13.7700 C.ar      1 ET         -0.0505
     20 C20        -1.4810    3.2340   13.9320 C.ar      1 ET         -0.0393
     21 C21        -2.1040    5.0410   16.6940 C.3       1 ET          0.0044
     22 C22        -1.6180    5.1570   18.1170 C.3       1 ET         -0.0529
     23 N23        -3.1470    9.7810   18.0850 N.pl3     1 ET         -0.3098
     24 N24         2.5620    5.6040   11.1000 N.pl3     1 ET         -0.3022
     25 H1         -0.2028   10.1166   14.5877 H         1 ET          0.0767
     26 H2         -1.6539   11.0889   16.3241 H         1 ET          0.0753
     27 H3         -2.8181    7.1702   17.5878 H         1 ET          0.0635
     28 H4          0.9970    4.3442   12.9051 H         1 ET          0.0930
     29 H5          2.2938    8.2027   11.5342 H         1 ET          0.0703
     30 H6          0.9115    9.3169   13.2539 H         1 ET          0.0871
     31 H7          1.2349    3.6068   15.9499 H         1 ET          0.0702
     32 H8          1.2866    1.1444   15.6500 H         1 ET          0.0647
     33 H9         -0.4184    0.0248   14.2635 H         1 ET          0.0701
     34 H10        -2.1932    1.3458   13.1626 H         1 ET          0.0647
     35 H11        -2.2512    3.8170   13.4400 H         1 ET          0.0702
     36 H12        -2.0029    3.9954   16.3676 H         1 ET          0.0415
     37 H13        -3.1627    5.3368   16.6543 H         1 ET          0.0415
     38 H14        -2.2178    4.5001   18.7640 H         1 ET          0.0241
     39 H15        -1.7208    6.1984   18.4558 H         1 ET          0.0241
     40 H16        -0.5610    4.8570   18.1691 H         1 ET          0.0241
     41 H17        -3.1989   10.8047   18.1862 H         1 ET          0.1952
     42 H18        -3.6922    9.1732   18.7129 H         1 ET          0.1952
     43 H19         2.5981    4.5780   11.0165 H         1 ET          0.2004
     44 H20         3.1104    6.1927   10.4569 H         1 ET          0.2004
@<TRIPOS>BOND
     1    2    1 ar 
     2    1   13 ar 
     3    3    2 ar 
     4    4    3 ar 
     5    3   23 1  
     6   14    4 ar 
     7    6    5 ar 
     8    5   14 ar 
     9    5   21 1  
    10   11    6 ar 
    11    6   15 1  
    12    7    8 ar 
    13    7   11 ar 
    14    8    9 ar 
    15    8   24 1  
    16    9   10 ar 
    17   10   12 ar 
    18   11   12 ar 
    19   12   13 ar 
    20   13   14 ar 
    21   15   16 ar 
    22   15   20 ar 
    23   16   17 ar 
    24   17   18 ar 
    25   18   19 ar 
    26   19   20 ar 
    27   21   22 1  
    28    1   25 1  
    29    2   26 1  
    30    4   27 1  
    31    7   28 1  
    32    9   29 1  
    33   10   30 1  
    34   16   31 1  
    35   17   32 1  
    36   18   33 1  
    37   19   34 1  
    38   20   35 1  
    39   21   36 1  
    40   21   37 1  
    41   22   38 1  
    42   22   39 1  
    43   22   40 1  
    44   23   41 1  
    45   23   42 1  
    46   24   43 1  
    47   24   44 1  
@<TRIPOS>SUBSTRUCTURE
     1 ET          1

