### 
### Created by X-TOOL on Mon Sep 10 21:13:28 2018
### 

@<TRIPOS>MOLECULE
5erg_ligand
   50    52     1     0     0
SMALL
GAST_HUCK


@<TRIPOS>ATOM
      1 N          79.0030   -1.2580  -13.3580 N.4       1 SAM         0.2328
      2 CA         78.7860   -0.2040  -12.4110 C.3       1 SAM         0.0327
      3 C          77.3090    0.0060  -12.2630 C.2       1 SAM         0.0846
      4 O          76.8770    0.7980  -11.4320 O.co2     1 SAM        -0.5643
      5 OXT        76.5420   -0.6310  -12.9650 O.co2     1 SAM        -0.5643
      6 CB         79.5140    1.0490  -12.8900 C.3       1 SAM         0.0473
      7 CG         81.0300    0.8910  -12.8940 C.3       1 SAM         0.1163
      8 SD         81.8270    2.3110  -13.2190 S.3       1 SAM        -0.0103
      9 CE         81.4080    2.8040  -14.7190 C.3       1 SAM         0.0995
     10 C5'        83.4660    2.0780  -13.2380 C.3       1 SAM         0.1381
     11 C4'        84.0590    1.8850  -11.8510 C.3       1 SAM         0.1350
     12 O4'        85.2560    1.1380  -11.9490 O.3       1 SAM        -0.3344
     13 C3'        84.4660    3.1870  -11.2220 C.3       1 SAM         0.1168
     14 O3'        83.8340    3.2870   -9.9790 O.3       1 SAM        -0.3863
     15 C2'        85.9500    3.0770  -10.9810 C.3       1 SAM         0.1386
     16 O2'        86.2610    3.7030   -9.7510 O.3       1 SAM        -0.3836
     17 C1'        86.1650    1.5810  -10.9650 C.3       1 SAM         0.2011
     18 N9         87.5300    1.1590  -11.3360 N.pl3     1 SAM        -0.1919
     19 C8         88.2880    1.7170  -12.2690 C.2       1 SAM         0.1123
     20 N7         89.4600    1.0930  -12.3600 N.2       1 SAM        -0.2958
     21 C5         89.4780    0.1150  -11.4670 C.ar      1 SAM         0.1045
     22 C6         90.4360   -0.9280  -11.0460 C.ar      1 SAM         0.1298
     23 N6         91.6310   -1.0110  -11.6450 N.pl3     1 SAM        -0.3152
     24 N1         90.0770   -1.7700  -10.0740 N.ar      1 SAM        -0.2698
     25 C2         88.8850   -1.6640   -9.5070 C.ar      1 SAM         0.0533
     26 N3         87.9720   -0.7460   -9.8340 N.ar      1 SAM        -0.2714
     27 C4         88.2000    0.1610  -10.7920 C.ar      1 SAM         0.1613
     28 H1         79.9931   -1.4116  -13.4688 H         1 SAM         0.2010
     29 H2         78.6016   -0.9999  -14.2459 H         1 SAM         0.2010
     30 H3         78.5670   -2.1037  -13.0253 H         1 SAM         0.2010
     31 H4         79.1994   -0.4981  -11.4350 H         1 SAM         0.1026
     32 H5         79.2502    1.8840  -12.2242 H         1 SAM         0.0385
     33 H6         79.1826    1.2774  -13.9137 H         1 SAM         0.0385
     34 H7         81.3038    0.1515  -13.6609 H         1 SAM         0.0843
     35 H8         81.3477    0.5287  -11.9052 H         1 SAM         0.0843
     36 H9         81.9266    3.7452  -14.9538 H         1 SAM         0.0803
     37 H10        80.3206    2.9639  -14.7620 H         1 SAM         0.0803
     38 H11        81.6948    2.0349  -15.4512 H         1 SAM         0.0803
     39 H12        83.9388    2.9565  -13.7013 H         1 SAM         0.0867
     40 H13        83.6852    1.1836  -13.8396 H         1 SAM         0.0867
     41 H14        83.3282    1.3673  -11.2124 H         1 SAM         0.0671
     42 H15        84.2196    4.0446  -11.8652 H         1 SAM         0.0649
     43 H16        84.1021    2.5600   -9.4293 H         1 SAM         0.2100
     44 H17        86.5301    3.5461  -11.7893 H         1 SAM         0.0676
     45 H18        85.7879    3.2719   -9.0490 H         1 SAM         0.2101
     46 H19        85.9189    1.1689   -9.9753 H         1 SAM         0.0996
     47 H20        87.9922    2.5698  -12.8782 H         1 SAM         0.1349
     48 H21        92.3029   -1.7361  -11.3556 H         1 SAM         0.1820
     49 H22        91.8782   -0.3497  -12.3950 H         1 SAM         0.1820
     50 H23        88.6333   -2.3704   -8.7243 H         1 SAM         0.0996
@<TRIPOS>BOND
     1    1    2 1  
     2    2    3 1  
     3    2    6 1  
     4    3    4 ar 
     5    3    5 ar 
     6    6    7 1  
     7    7    8 1  
     8    8    9 1  
     9    8   10 1  
    10   10   11 1  
    11   11   12 1  
    12   11   13 1  
    13   12   17 1  
    14   13   14 1  
    15   13   15 1  
    16   15   16 1  
    17   15   17 1  
    18   17   18 1  
    19   18   19 1  
    20   18   27 1  
    21   19   20 2  
    22   20   21 1  
    23   21   22 ar 
    24   21   27 ar 
    25   22   23 1  
    26   22   24 ar 
    27   24   25 ar 
    28   25   26 ar 
    29   26   27 ar 
    30    1   28 1  
    31    1   29 1  
    32    1   30 1  
    33    2   31 1  
    34    6   32 1  
    35    6   33 1  
    36    7   34 1  
    37    7   35 1  
    38    9   36 1  
    39    9   37 1  
    40    9   38 1  
    41   10   39 1  
    42   10   40 1  
    43   11   41 1  
    44   13   42 1  
    45   14   43 1  
    46   15   44 1  
    47   16   45 1  
    48   17   46 1  
    49   19   47 1  
    50   23   48 1  
    51   23   49 1  
    52   25   50 1  
@<TRIPOS>SUBSTRUCTURE
     1 SAM         1

