### 
### Created by X-TOOL on Mon Sep 10 21:13:25 2018
### 

@<TRIPOS>MOLECULE
5es1_ligand
   53    56     1     0     0
SMALL
GAST_HUCK


@<TRIPOS>ATOM
      1 C18       -41.2170  -24.2330   -6.4610 C.3       1 5RC         0.1462
      2 C16       -41.4150  -23.4560   -4.1250 C.2       1 5RC         0.2002
      3 C15       -43.6930  -23.1650    0.6140 C.3       1 5RC        -0.0044
      4 C19       -41.5140  -23.5770   -7.8250 C.3       1 5RC         0.0046
      5 C20       -42.8860  -23.9990   -8.3510 C.3       1 5RC        -0.0073
      6 C21       -43.0090  -25.5170   -8.4720 C.3       1 5RC        -0.0424
      7 F30       -49.7730  -20.2030   -5.7000 F         1 5RC        -0.2509
      8 C22       -42.8060  -26.2100   -7.1260 C.3       1 5RC         0.0135
      9 C23       -41.5100  -25.7870   -6.4960 C.3       1 5RC         0.2763
     10 C11       -43.4840  -22.2460   -3.0820 C.2       1 5RC        -0.0596
     11 C12       -42.2430  -22.8370   -3.0700 C.2       1 5RC         0.0908
     12 N1        -47.6350  -21.0420   -1.8100 N.pl3     1 5RC        -0.0906
     13 C2        -46.5650  -21.6520   -2.4590 C.2       1 5RC         0.1933
     14 C3        -45.4920  -21.6700   -1.5740 C.2       1 5RC         0.0152
     15 C4        -45.9850  -21.0400   -0.4180 C.2       1 5RC         0.0119
     16 N5        -47.3010  -20.6400   -0.5190 N.2       1 5RC        -0.1791
     17 C6        -48.8160  -20.8590   -2.4430 C.2       1 5RC         0.1648
     18 C7        -48.8910  -21.2860   -3.7890 C.2       1 5RC         0.1100
     19 C8        -47.7960  -21.9100   -4.3540 C.2       1 5RC         0.0292
     20 N9        -46.6350  -22.0990   -3.7200 N.2       1 5RC        -0.2588
     21 C10       -44.1340  -22.2610   -1.7990 C.2       1 5RC        -0.0294
     22 S13       -41.8670  -23.4190   -1.4800 S.3       1 5RC        -0.0218
     23 C14       -43.3800  -22.8760   -0.8240 C.2       1 5RC         0.0297
     24 N17       -41.9420  -23.6100   -5.3540 N.am      1 5RC        -0.2755
     25 F24       -40.4810  -26.4510   -7.0850 F         1 5RC        -0.2029
     26 O25       -40.2530  -23.7740   -3.8670 O.2       1 5RC        -0.3960
     27 F26       -41.4450  -26.2670   -5.2280 F         1 5RC        -0.2029
     28 N27       -41.3930  -22.1120   -7.8010 N.4       1 5RC         0.2225
     29 C28       -50.0910  -20.9650   -4.6310 C.3       1 5RC         0.3566
     30 F29       -50.6540  -22.0720   -5.1530 F         1 5RC        -0.2509
     31 F31       -51.0610  -20.3040   -3.9530 F         1 5RC        -0.2509
     32 C32       -43.5490  -24.6200    0.9950 C.3       1 5RC        -0.0518
     33 H1        -40.1428  -24.0997   -6.2652 H         1 5RC         0.0671
     34 H2        -44.7306  -22.8573    0.8105 H         1 5RC         0.0478
     35 H3        -43.0101  -22.5741    1.2420 H         1 5RC         0.0478
     36 H4        -40.7597  -23.9513   -8.5327 H         1 5RC         0.0875
     37 H5        -43.0397  -23.5498   -9.3433 H         1 5RC         0.0321
     38 H6        -43.6595  -23.6339   -7.6594 H         1 5RC         0.0321
     39 H7        -42.2485  -25.8810   -9.1784 H         1 5RC         0.0269
     40 H8        -44.0111  -25.7642   -8.8525 H         1 5RC         0.0269
     41 H9        -42.7931  -27.2991   -7.2799 H         1 5RC         0.0323
     42 H10       -43.6362  -25.9442   -6.4551 H         1 5RC         0.0323
     43 H11       -43.9307  -21.8098   -3.9743 H         1 5RC         0.0484
     44 H12       -45.3828  -20.8822    0.4755 H         1 5RC         0.0738
     45 H13       -49.6684  -20.4046   -1.9402 H         1 5RC         0.1943
     46 H14       -47.8841  -22.2697   -5.3781 H         1 5RC         0.1003
     47 H15       -42.8728  -23.2832   -5.5178 H         1 5RC         0.1840
     48 H16       -40.4828  -21.8557   -7.4517 H         1 5RC         0.1998
     49 H17       -42.1044  -21.7259   -7.2002 H         1 5RC         0.1998
     50 H18       -41.5087  -21.7499   -8.7346 H         1 5RC         0.1998
     51 H19       -43.7952  -24.7463    2.0596 H         1 5RC         0.0258
     52 H20       -42.5132  -24.9449    0.8171 H         1 5RC         0.0258
     53 H21       -44.2338  -25.2281    0.3857 H         1 5RC         0.0258
@<TRIPOS>BOND
     1    1    4 1  
     2    1    9 1  
     3   24    1 1  
     4   11    2 1  
     5    2   24 am 
     6    2   26 2  
     7   23    3 1  
     8    3   32 1  
     9    4    5 1  
    10    4   28 1  
    11    5    6 1  
    12    8    6 1  
    13   29    7 1  
    14    9    8 1  
    15    9   25 1  
    16    9   27 1  
    17   10   11 2  
    18   21   10 1  
    19   11   22 1  
    20   13   12 1  
    21   16   12 1  
    22   12   17 1  
    23   14   13 2  
    24   13   20 1  
    25   14   15 1  
    26   21   14 1  
    27   15   16 2  
    28   17   18 2  
    29   19   18 1  
    30   18   29 1  
    31   20   19 2  
    32   21   23 2  
    33   22   23 1  
    34   29   30 1  
    35   29   31 1  
    36    1   33 1  
    37    3   34 1  
    38    3   35 1  
    39    4   36 1  
    40    5   37 1  
    41    5   38 1  
    42    6   39 1  
    43    6   40 1  
    44    8   41 1  
    45    8   42 1  
    46   10   43 1  
    47   15   44 1  
    48   17   45 1  
    49   19   46 1  
    50   24   47 1  
    51   28   48 1  
    52   28   49 1  
    53   28   50 1  
    54   32   51 1  
    55   32   52 1  
    56   32   53 1  
@<TRIPOS>SUBSTRUCTURE
     1 5RC         1

