### 
### Created by X-TOOL on Mon Sep 10 21:13:29 2018
### 

@<TRIPOS>MOLECULE
5eth_ligand
   58    62     1     0     0
SMALL
GAST_HUCK


@<TRIPOS>ATOM
      1 C10       -44.9810    1.7050    9.4110 C.3       1 5RT         0.1474
      2 C12       -45.9670    5.6850    9.1210 C.ar      1 5RT         0.1005
      3 C13       -44.8580    6.4100    9.4390 C.ar      1 5RT        -0.0008
      4 C15       -42.8730    7.3190    9.7310 C.2       1 5RT         0.0239
      5 C16       -43.6150    9.2570   11.1510 C.3       1 5RT         0.0406
      6 OH        -48.8610    4.8170   16.2230 O.2       1 5RT        -0.3829
      7 C1        -48.2480    4.2230   15.3480 C.2       1 5RT         0.2310
      8 C2        -47.3490    3.1890   15.7140 C.2       1 5RT         0.1046
      9 S1        -46.7150    3.3200   17.2860 S.3       1 5RT        -0.0256
     10 C3        -45.8110    1.8840   17.0640 C.2       1 5RT         0.0009
     11 C4        -46.0010    1.3170   15.8290 C.2       1 5RT        -0.0666
     12 C5        -46.8990    2.0710   15.0510 C.2       1 5RT        -0.0548
     13 N1        -48.5570    4.3310   14.0100 N.am      1 5RT        -0.2329
     14 CD1       -47.6740    4.0560   12.9460 C.ar      1 5RT         0.0549
     15 CE1       -46.3290    4.3710   12.9700 C.ar      1 5RT        -0.0614
     16 C8        -45.5340    4.0520   11.8910 C.ar      1 5RT        -0.0642
     17 CA        -46.0920    3.4350   10.7910 C.ar      1 5RT         0.0449
     18 N         -45.2680    3.1480    9.5660 N.am      1 5RT        -0.1760
     19 C11       -43.5220    1.3530    9.6380 C.3       1 5RT         0.4118
     20 F1        -42.7990    2.3880   10.1290 F         1 5RT        -0.1683
     21 F2        -43.4170    0.3860   10.5700 F         1 5RT        -0.1683
     22 F3        -42.9450    0.9030    8.4880 F         1 5RT        -0.1683
     23 S2        -45.7210    4.2080    8.1830 S.o2      1 5RT         0.0842
     24 C14       -43.4860    6.2670    9.1190 C.2       1 5RT        -0.0619
     25 N3        -43.8300    8.0530   10.3800 N.pl3     1 5RT        -0.2686
     26 C17       -45.0680    7.5190   10.2300 C.ar      1 5RT         0.0675
     27 C18       -46.2770    7.9470   10.7320 C.ar      1 5RT        -0.0430
     28 C19       -47.3510    7.1670   10.3970 C.ar      1 5RT        -0.0745
     29 C20       -47.2030    6.0490    9.6090 C.ar      1 5RT        -0.0520
     30 O         -47.0400    3.8600    7.6940 O.2       1 5RT        -0.1460
     31 O3        -44.6040    4.4210    7.2740 O.2       1 5RT        -0.1460
     32 CB        -47.4340    3.1290   10.7540 C.ar      1 5RT        -0.0553
     33 CG        -48.2110    3.4400   11.8380 C.ar      1 5RT        -0.0347
     34 CD2       -49.6600    3.1410   11.8320 C.3       1 5RT        -0.0241
     35 CE2       -50.2790    4.4570   12.2420 C.3       1 5RT        -0.0207
     36 C25       -49.8710    4.8260   13.6560 C.3       1 5RT         0.0517
     37 H1        -45.2581    1.4020    8.3905 H         1 5RT         0.0637
     38 H2        -45.5911    1.1481   10.1373 H         1 5RT         0.0637
     39 H3        -41.8065    7.5382    9.7080 H         1 5RT         0.0934
     40 H4        -42.5450    9.5119   11.1421 H         1 5RT         0.0565
     41 H5        -43.9440    9.0923   12.1876 H         1 5RT         0.0565
     42 H6        -44.1923   10.0829   10.7099 H         1 5RT         0.0565
     43 H7        -45.1535    1.4640   17.8237 H         1 5RT         0.0800
     44 H8        -45.5183    0.4002   15.4936 H         1 5RT         0.0437
     45 H9        -47.2026    1.8006   14.0407 H         1 5RT         0.0514
     46 H10       -45.9012    4.8669   13.8338 H         1 5RT         0.0444
     47 H11       -44.4754    4.2848   11.9065 H         1 5RT         0.0392
     48 H12       -43.0225    5.4875    8.5162 H         1 5RT         0.0286
     49 H13       -46.3711    8.8351   11.3464 H         1 5RT         0.0544
     50 H14       -48.3367    7.4353   10.7595 H         1 5RT         0.0530
     51 H15       -48.0711    5.4459    9.3687 H         1 5RT         0.0534
     52 H16       -47.8674    2.6508    9.8830 H         1 5RT         0.0386
     53 H17       -49.9032    2.3476   12.5540 H         1 5RT         0.0397
     54 H18       -49.9977    2.8404   10.8292 H         1 5RT         0.0397
     55 H19       -51.3746    4.3711   12.1935 H         1 5RT         0.0308
     56 H20       -49.9420    5.2447   11.5521 H         1 5RT         0.0308
     57 H21       -49.8692    5.9223   13.7461 H         1 5RT         0.0577
     58 H22       -50.6063    4.4017   14.3556 H         1 5RT         0.0577
@<TRIPOS>BOND
     1   18    1 1  
     2    1   19 1  
     3    2    3 ar 
     4   23    2 1  
     5    2   29 ar 
     6    3   24 1  
     7    3   26 ar 
     8   24    4 2  
     9    4   25 1  
    10   25    5 1  
    11    7    6 2  
    12    7    8 1  
    13   13    7 am 
    14    8    9 1  
    15    8   12 2  
    16    9   10 1  
    17   11   10 2  
    18   12   11 1  
    19   14   13 1  
    20   13   36 1  
    21   15   14 ar 
    22   14   33 ar 
    23   16   15 ar 
    24   17   16 ar 
    25   18   17 1  
    26   17   32 ar 
    27   18   23 am 
    28   19   20 1  
    29   19   21 1  
    30   19   22 1  
    31   23   30 2  
    32   23   31 2  
    33   25   26 1  
    34   26   27 ar 
    35   27   28 ar 
    36   28   29 ar 
    37   32   33 ar 
    38   33   34 1  
    39   34   35 1  
    40   35   36 1  
    41    1   37 1  
    42    1   38 1  
    43    4   39 1  
    44    5   40 1  
    45    5   41 1  
    46    5   42 1  
    47   10   43 1  
    48   11   44 1  
    49   12   45 1  
    50   15   46 1  
    51   16   47 1  
    52   24   48 1  
    53   27   49 1  
    54   28   50 1  
    55   29   51 1  
    56   32   52 1  
    57   34   53 1  
    58   34   54 1  
    59   35   55 1  
    60   35   56 1  
    61   36   57 1  
    62   36   58 1  
@<TRIPOS>SUBSTRUCTURE
     1 5RT         1

