### 
### Created by X-TOOL on Mon Sep 10 21:13:27 2018
### 

@<TRIPOS>MOLECULE
5etj_ligand
   39    41     1     0     0
SMALL
GAST_HUCK


@<TRIPOS>ATOM
      1 N1         39.5800   -9.3230   61.3270 N.am      1 IM5        -0.2471
      2 C2         39.4050   -8.3940   60.3270 C.cat     1 IM5         0.1780
      3 N2         38.1950   -8.2200   59.7320 N.pl3     1 IM5        -0.3388
      4 N3         40.4270   -7.6250   59.8670 N.pl3     1 IM5        -0.2603
      5 C4         41.6350   -7.7840   60.4050 C.2       1 IM5         0.1889
      6 C5         41.9070   -8.7310   61.4830 C.2       1 IM5         0.2677
      7 C6         40.7620   -9.5300   61.9380 C.2       1 IM5         0.2962
      8 O6         40.9070  -10.3720   62.8460 O.2       1 IM5        -0.3417
      9 N7         43.2080   -8.6170   61.7910 N.pl3     1 IM5        -0.1827
     10 C8         43.7970   -7.6630   61.0160 C.2       1 IM5         0.1195
     11 C9         42.8870   -7.0840   60.1400 C.2       1 IM5         0.1187
     12 N1'        43.0010   -4.6470   59.4540 N.4       1 IM5         0.2484
     13 C10        43.1780   -6.0530   59.1040 C.3       1 IM5         0.0121
     14 C2'        41.5880   -4.2630   59.6380 C.3       1 IM5        -0.0035
     15 C3'        41.7820   -2.8670   60.1620 C.3       1 IM5         0.1046
     16 O3'        42.1600   -1.9410   59.1100 O.3       1 IM5        -0.3860
     17 C4'        42.8880   -3.0720   61.1860 C.3       1 IM5         0.0531
     18 C5'        42.3680   -3.4650   62.5710 C.3       1 IM5         0.0544
     19 O5'        43.4980   -3.7000   63.4320 O.3       1 IM5        -0.3944
     20 C6'        43.7330   -4.2060   60.6620 C.3       1 IM5        -0.0230
     21 H1         38.7930   -9.8696   61.6132 H         1 IM5         0.1817
     22 H2         38.0843   -7.5193   58.9852 H         1 IM5         0.1747
     23 H3         37.3890   -8.7888   60.0280 H         1 IM5         0.1747
     24 H4         40.2707   -6.9345   59.1189 H         1 IM5         0.2181
     25 H5         43.6927   -9.1717   62.5109 H         1 IM5         0.2608
     26 H6         44.8492   -7.3888   61.0758 H         1 IM5         0.1599
     27 H7         43.3619   -4.1180   58.6756 H         1 IM5         0.2047
     28 H8         42.5211   -6.2596   58.2462 H         1 IM5         0.0960
     29 H9         44.2276   -6.1831   58.8018 H         1 IM5         0.0960
     30 H10        41.0780   -4.9089   60.3678 H         1 IM5         0.0840
     31 H11        41.0323   -4.2723   58.6887 H         1 IM5         0.0840
     32 H12        40.8657   -2.4983   60.6461 H         1 IM5         0.0652
     33 H13        42.2729   -1.0730   59.4792 H         1 IM5         0.2100
     34 H14        43.4848   -2.1520   61.2727 H         1 IM5         0.0402
     35 H15        41.7629   -4.3804   62.4945 H         1 IM5         0.0562
     36 H16        41.7518   -2.6512   62.9809 H         1 IM5         0.0562
     37 H17        44.0185   -2.9077   63.4928 H         1 IM5         0.2094
     38 H18        44.7441   -3.8575   60.4046 H         1 IM5         0.0819
     39 H19        43.8021   -5.0192   61.3995 H         1 IM5         0.0819
@<TRIPOS>BOND
     1    1    2 ar 
     2    1    7 am 
     3    2    3 ar 
     4    2    4 ar 
     5    4    5 1  
     6    5    6 2  
     7    5   11 1  
     8    6    7 1  
     9    6    9 1  
    10    7    8 2  
    11    9   10 1  
    12   10   11 2  
    13   11   13 1  
    14   13   12 1  
    15   12   14 1  
    16   12   20 1  
    17   14   15 1  
    18   15   16 1  
    19   15   17 1  
    20   17   18 1  
    21   17   20 1  
    22   18   19 1  
    23    1   21 1  
    24    3   22 1  
    25    3   23 1  
    26    4   24 1  
    27    9   25 1  
    28   10   26 1  
    29   12   27 1  
    30   13   28 1  
    31   13   29 1  
    32   14   30 1  
    33   14   31 1  
    34   15   32 1  
    35   16   33 1  
    36   17   34 1  
    37   18   35 1  
    38   18   36 1  
    39   19   37 1  
    40   20   38 1  
    41   20   39 1  
@<TRIPOS>SUBSTRUCTURE
     1 IM5         1

