### 
### Created by X-TOOL on Mon Sep 10 21:13:25 2018
### 

@<TRIPOS>MOLECULE
5etk_ligand
   31    33     1     0     0
SMALL
GAST_HUCK


@<TRIPOS>ATOM
      1 C11       -10.4250   27.5090  -18.5500 C.ar      1 5RU        -0.0725
      2 C12       -11.7220   27.0620  -18.6050 C.ar      1 5RU        -0.0706
      3 C10        -9.4310   26.6510  -18.1340 C.ar      1 5RU        -0.0609
      4 C13       -11.9840   25.7710  -18.2230 C.ar      1 5RU        -0.0349
      5 C9         -9.6440   25.3280  -17.7590 C.ar      1 5RU         0.0053
      6 C3         -9.4270   20.5370  -19.5200 C.2       1 5RU         0.3016
      7 C14       -10.9550   24.9360  -17.8160 C.ar      1 5RU         0.1342
      8 C4         -9.9560   21.4160  -20.4450 C.2       1 5RU         0.2583
      9 C2         -9.9450   19.2880  -19.4460 C.2       1 5RU         0.3013
     10 C18       -11.4920   19.9590  -21.1600 C.cat     1 5RU         0.1928
     11 C6         -8.3760   22.4280  -19.3280 C.2       1 5RU         0.2588
     12 C8         -8.5190   24.2970  -17.3640 C.3       1 5RU         0.0609
     13 N17       -10.9950   21.1810  -21.2810 N.pl3     1 5RU        -0.2262
     14 N5         -9.2800   22.5800  -20.3180 N.2       1 5RU        -0.1891
     15 N20       -11.0130   19.0340  -20.2850 N.am      1 5RU        -0.2440
     16 N16        -8.4190   21.1750  -18.8370 N.pl3     1 5RU        -0.1498
     17 N19       -12.5330   19.5870  -21.9140 N.pl3     1 5RU        -0.3352
     18 O1         -9.5800   18.3240  -18.6560 O.2       1 5RU        -0.3429
     19 F15       -11.2890   23.6960  -17.4850 F         1 5RU        -0.1890
     20 S7         -7.3130   23.6570  -18.7680 S.3       1 5RU         0.0193
     21 H1        -10.1854   28.5280  -18.8314 H         1 5RU         0.0565
     22 H2        -12.5198   27.7138  -18.9422 H         1 5RU         0.0549
     23 H3         -8.4166   27.0312  -18.0963 H         1 5RU         0.0546
     24 H4        -13.0028   25.4011  -18.2395 H         1 5RU         0.0585
     25 H5         -9.0201   23.4152  -16.9381 H         1 5RU         0.0584
     26 H6         -7.8967   24.7736  -16.5923 H         1 5RU         0.0584
     27 H7        -11.3611   21.8803  -21.9427 H         1 5RU         0.2370
     28 H8        -11.4507   18.1357  -20.2476 H         1 5RU         0.1822
     29 H9         -7.8194   20.7762  -18.1005 H         1 5RU         0.2698
     30 H10       -12.9377   20.2460  -22.5943 H         1 5RU         0.1763
     31 H11       -12.9295   18.6417  -21.8141 H         1 5RU         0.1763
@<TRIPOS>BOND
     1    1    2 ar 
     2    3    1 ar 
     3    4    2 ar 
     4    5    3 ar 
     5    7    4 ar 
     6    5    7 ar 
     7   12    5 1  
     8    6    8 2  
     9    6    9 1  
    10   16    6 1  
    11    7   19 1  
    12    8   13 1  
    13   14    8 1  
    14    9   15 am 
    15    9   18 2  
    16   13   10 ar 
    17   15   10 ar 
    18   10   17 ar 
    19   11   14 2  
    20   11   16 1  
    21   20   11 1  
    22   12   20 1  
    23    1   21 1  
    24    2   22 1  
    25    3   23 1  
    26    4   24 1  
    27   12   25 1  
    28   12   26 1  
    29   13   27 1  
    30   15   28 1  
    31   16   29 1  
    32   17   30 1  
    33   17   31 1  
@<TRIPOS>SUBSTRUCTURE
     1 5RU         1

