### 
### Created by X-TOOL on Mon Sep 10 21:13:29 2018
### 

@<TRIPOS>MOLECULE
5etl_ligand
   31    33     1     0     0
SMALL
GAST_HUCK


@<TRIPOS>ATOM
      1 C1         -8.7540    9.7130  -11.0310 C.1       1 5RV         0.0935
      2 C2        -10.2920    6.4100  -11.3630 C.ar      1 5RV        -0.0574
      3 C3        -11.6320    6.7360  -11.4040 C.ar      1 5RV        -0.0598
      4 C4         -9.3640    7.4230  -11.2380 C.ar      1 5RV        -0.0334
      5 C5        -12.0420    8.0540  -11.3210 C.ar      1 5RV        -0.0476
      6 C6         -9.7830    8.7390  -11.1590 C.ar      1 5RV         0.0979
      7 C7        -11.1330    9.0890  -11.1900 C.ar      1 5RV         0.0054
      8 C8        -13.8550    8.9580   -7.3930 C.2       1 5RV         0.0802
      9 C9        -12.5680    8.5360   -7.1580 C.2       1 5RV         0.1046
     10 C10       -14.8860    8.2930   -6.7870 C.2       1 5RV         0.2092
     11 C11       -13.3370    6.9140   -5.8020 C.2       1 5RV         0.2321
     12 C12       -12.4200   10.1950   -8.4730 C.2       1 5RV         0.1741
     13 C13       -11.6610   10.5210  -11.1080 C.3       1 5RV         0.0536
     14 N14        -7.8880   10.4830  -10.9530 N.1       1 5RV        -0.3348
     15 N15       -12.2660    7.5070   -6.3470 N.2       1 5RV        -0.2804
     16 N16       -11.6780    9.3090   -7.8450 N.pl3     1 5RV        -0.2404
     17 N17       -14.6210    7.2570   -5.9830 N.am      1 5RV        -0.1853
     18 N18       -13.7560   10.0380   -8.2410 N.2       1 5RV        -0.3229
     19 N19       -13.1330    5.8150   -4.9580 N.pl3     1 5RV        -0.2816
     20 O20       -16.1860    8.6470   -6.9550 O.2       1 5RV        -0.4108
     21 S21       -11.7980   11.4450   -9.5070 S.3       1 5RV        -0.0348
     22 H1         -9.9739    5.3757  -11.4279 H         1 5RV         0.0584
     23 H2        -12.3719    5.9499  -11.5024 H         1 5RV         0.0671
     24 H3         -8.3064    7.1878  -11.2017 H         1 5RV         0.0699
     25 H4        -13.1011    8.2819  -11.3595 H         1 5RV         0.0581
     26 H5        -12.6749   10.4971  -11.5339 H         1 5RV         0.0595
     27 H6        -11.0063   11.1249  -11.7535 H         1 5RV         0.0595
     28 H7        -10.6522    9.2187   -7.8670 H         1 5RV         0.2365
     29 H8        -15.3575    6.7539   -5.5309 H         1 5RV         0.2510
     30 H9        -12.1768    5.4846   -4.7647 H         1 5RV         0.1892
     31 H10       -13.9392    5.3372   -4.5306 H         1 5RV         0.1892
@<TRIPOS>BOND
     1    6    1 1  
     2    1   14 3  
     3    3    2 ar 
     4    4    2 ar 
     5    5    3 ar 
     6    6    4 ar 
     7    7    5 ar 
     8    7    6 ar 
     9   13    7 1  
    10    8    9 2  
    11    8   10 1  
    12   18    8 1  
    13    9   15 1  
    14   16    9 1  
    15   10   17 am 
    16   10   20 2  
    17   15   11 2  
    18   17   11 am 
    19   11   19 1  
    20   12   16 1  
    21   12   18 2  
    22   21   12 1  
    23   13   21 1  
    24    2   22 1  
    25    3   23 1  
    26    4   24 1  
    27    5   25 1  
    28   13   26 1  
    29   13   27 1  
    30   16   28 1  
    31   17   29 1  
    32   19   30 1  
    33   19   31 1  
@<TRIPOS>SUBSTRUCTURE
     1 5RV         1

