### 
### Created by X-TOOL on Mon Sep 10 21:13:29 2018
### 

@<TRIPOS>MOLECULE
5etm_ligand
   31    33     1     0     0
SMALL
GAST_HUCK


@<TRIPOS>ATOM
      1 C1         -0.1030   -2.3490    0.8420 C.ar      1 5RW        -0.0609
      2 C2          1.1950   -4.2670    0.4170 C.ar      1 5RW        -0.0609
      3 C3          1.0270   -1.5700    0.9840 C.ar      1 5RW        -0.0349
      4 C4          2.3320   -3.4830    0.5440 C.ar      1 5RW        -0.0349
      5 C5         -0.0590   -3.6920    0.5680 C.ar      1 5RW        -0.0322
      6 C6          2.2550   -2.1500    0.8320 C.ar      1 5RW         0.1248
      7 C7         -0.1670   -8.3430    2.3530 C.2       1 5RW         0.3016
      8 C8          0.3920   -7.4860    3.2830 C.2       1 5RW         0.2583
      9 C9         -1.2680   -6.5160    2.1800 C.2       1 5RW         0.2588
     10 C10         0.3330   -9.6620    2.1960 C.2       1 5RW         0.3013
     11 C11         1.9100   -8.8590    4.0240 C.cat     1 5RW         0.1928
     12 C12        -1.3260   -4.5470    0.3650 C.3       1 5RW         0.0582
     13 N13        -1.2190   -7.7310    1.6880 N.pl3     1 5RW        -0.1498
     14 N14         1.4430   -7.6660    4.1620 N.pl3     1 5RW        -0.2262
     15 N15        -0.3170   -6.3260    3.1550 N.2       1 5RW        -0.1891
     16 N16         1.4330   -9.7950    3.1090 N.am      1 5RW        -0.2440
     17 N17         2.9750   -9.2660    4.7990 N.pl3     1 5RW        -0.3352
     18 O18        -0.0860  -10.5390    1.3970 O.2       1 5RW        -0.3429
     19 F19         3.3550   -1.3850    0.9780 F         1 5RW        -0.1893
     20 S20        -2.3950   -5.2630    1.6670 S.3       1 5RW         0.0194
     21 H1         -1.0724   -1.8766    0.9524 H         1 5RW         0.0548
     22 H2          1.2855   -5.3253    0.2005 H         1 5RW         0.0548
     23 H3          0.9419   -0.5138    1.2127 H         1 5RW         0.0587
     24 H4          3.3062   -3.9395    0.4114 H         1 5RW         0.0587
     25 H5         -0.9934   -5.4081   -0.2331 H         1 5RW         0.0584
     26 H6         -1.9976   -3.9188   -0.2386 H         1 5RW         0.0584
     27 H7         -1.8284   -8.1408    0.9658 H         1 5RW         0.2698
     28 H8          1.7968   -6.9591    4.8223 H         1 5RW         0.2370
     29 H9          1.9177  -10.6694    3.0851 H         1 5RW         0.1822
     30 H10         3.3788   -8.6250    5.4968 H         1 5RW         0.1763
     31 H11         3.3669  -10.2111    4.6803 H         1 5RW         0.1763
@<TRIPOS>BOND
     1    1    3 ar 
     2    5    1 ar 
     3    2    4 ar 
     4    5    2 ar 
     5    3    6 ar 
     6    4    6 ar 
     7   12    5 1  
     8    6   19 1  
     9    8    7 2  
    10    7   10 1  
    11   13    7 1  
    12    8   14 1  
    13   15    8 1  
    14    9   13 1  
    15    9   15 2  
    16   20    9 1  
    17   10   16 am 
    18   10   18 2  
    19   14   11 ar 
    20   11   16 ar 
    21   11   17 ar 
    22   12   20 1  
    23    1   21 1  
    24    2   22 1  
    25    3   23 1  
    26    4   24 1  
    27   12   25 1  
    28   12   26 1  
    29   13   27 1  
    30   14   28 1  
    31   16   29 1  
    32   17   30 1  
    33   17   31 1  
@<TRIPOS>SUBSTRUCTURE
     1 5RW         1

