### 
### Created by X-TOOL on Mon Sep 10 21:13:28 2018
### 

@<TRIPOS>MOLECULE
5etn_ligand
   30    32     1     0     0
SMALL
GAST_HUCK


@<TRIPOS>ATOM
      1 C1         -0.2370    3.8710    0.7530 C.ar      1 5RX        -0.0587
      2 C2          1.4280    2.2540    0.2630 C.ar      1 5RX        -0.0587
      3 C3          0.7350    4.8240    1.0110 C.ar      1 5RX        -0.0546
      4 C4          2.4120    3.2060    0.5060 C.ar      1 5RX        -0.0546
      5 C5          0.0820    2.5750    0.3900 C.ar      1 5RX        -0.0299
      6 C6         -0.1060   -2.2240    2.0800 C.2       1 5RX         0.1387
      7 C7          2.0600    4.4620    0.8870 C.ar      1 5RX         0.0330
      8 C8          0.4050   -1.2790    2.9910 C.2       1 5RX         0.0387
      9 C9          0.4180   -3.4470    1.9980 C.2       1 5RX         0.2348
     10 C10         1.8510   -2.7160    3.7480 C.2       1 5RX         0.2253
     11 C11        -1.1980   -0.3560    1.8640 C.2       1 5RX         0.1812
     12 C12        -1.0180    1.5180    0.1010 C.3       1 5RX         0.0488
     13 N13         1.4360   -1.4560    3.8560 N.2       1 5RX        -0.3120
     14 N14        -0.2790   -0.1230    2.7750 N.2       1 5RX        -0.3089
     15 N15         1.4430   -3.6630    2.8470 N.am      1 5RX        -0.1847
     16 N16        -1.1350   -1.6410    1.4020 N.pl3     1 5RX        -0.2478
     17 N17         2.9640   -3.0730    4.5100 N.pl3     1 5RX        -0.2837
     18 O18         0.0190   -4.4710    1.1760 O.2       1 5RX        -0.4066
     19 S19        -2.2840    0.9000    1.3460 S.3       1 5RX        -0.0284
     20 CL1         3.2210    5.6400    1.2020 Cl        1 5RX        -0.0771
     21 H1         -1.2810    4.1500    0.8384 H         1 5RX         0.0558
     22 H2          1.7142    1.2500   -0.0288 H         1 5RX         0.0558
     23 H3          0.4604    5.8310    1.3036 H         1 5RX         0.0606
     24 H4          3.4583    2.9466    0.3917 H         1 5RX         0.0606
     25 H5         -0.4790    0.6207   -0.2370 H         1 5RX         0.0572
     26 H6         -1.6056    1.9288   -0.7333 H         1 5RX         0.0572
     27 H7          1.9198   -4.5416    2.8178 H         1 5RX         0.2499
     28 H8         -1.7386   -2.0774    0.6906 H         1 5RX         0.2321
     29 H9          3.3383   -2.4193    5.2125 H         1 5RX         0.1881
     30 H10         3.4113   -3.9902    4.3700 H         1 5RX         0.1881
@<TRIPOS>BOND
     1    1    3 ar 
     2    5    1 ar 
     3    2    4 ar 
     4    5    2 ar 
     5    3    7 ar 
     6    4    7 ar 
     7   12    5 1  
     8    6    8 2  
     9    6    9 1  
    10   16    6 1  
    11    7   20 1  
    12    8   13 1  
    13   14    8 1  
    14    9   15 am 
    15    9   18 2  
    16   13   10 2  
    17   15   10 am 
    18   10   17 1  
    19   11   14 2  
    20   11   16 1  
    21   19   11 1  
    22   12   19 1  
    23    1   21 1  
    24    2   22 1  
    25    3   23 1  
    26    4   24 1  
    27   12   25 1  
    28   12   26 1  
    29   15   27 1  
    30   16   28 1  
    31   17   29 1  
    32   17   30 1  
@<TRIPOS>SUBSTRUCTURE
     1 5RX         1

