### 
### Created by X-TOOL on Mon Sep 10 21:13:25 2018
### 

@<TRIPOS>MOLECULE
5eto_ligand
   32    34     1     0     0
SMALL
GAST_HUCK


@<TRIPOS>ATOM
      1 C1        -12.7510   27.7720  -19.3130 C.1       1 5RY         0.0923
      2 C2        -10.4560   27.4920  -18.6190 C.ar      1 5RY        -0.0373
      3 C3         -9.4760   26.6940  -18.1110 C.ar      1 5RY        -0.0490
      4 C4        -12.0250   25.7560  -18.2700 C.ar      1 5RY         0.0001
      5 C5        -11.7410   27.0260  -18.7130 C.ar      1 5RY         0.0866
      6 C6         -9.6920   25.3910  -17.6880 C.ar      1 5RY         0.0150
      7 C7         -9.4650   20.5770  -19.4470 C.2       1 5RY         0.3016
      8 C8        -11.0040   24.9650  -17.7880 C.ar      1 5RY         0.1454
      9 C9         -9.9720   21.4450  -20.3940 C.2       1 5RY         0.2583
     10 C10        -9.9750   19.3050  -19.4030 C.2       1 5RY         0.3013
     11 C11       -11.4770   19.9870  -21.1000 C.cat     1 5RY         0.1928
     12 C12        -8.3950   22.4620  -19.2630 C.2       1 5RY         0.2590
     13 C13        -8.5390   24.4380  -17.2520 C.3       1 5RY         0.0653
     14 N14       -13.5950   28.3850  -19.8310 N.1       1 5RY        -0.3338
     15 N15       -10.9980   21.2140  -21.2270 N.pl3     1 5RY        -0.2262
     16 N16        -9.3000   22.5980  -20.2360 N.2       1 5RY        -0.1891
     17 N17       -11.0380   19.0610  -20.2260 N.am      1 5RY        -0.2440
     18 N18        -8.4640   21.2040  -18.7710 N.pl3     1 5RY        -0.1498
     19 N19       -12.5130   19.6290  -21.8680 N.pl3     1 5RY        -0.3352
     20 O20        -9.6080   18.3540  -18.5960 O.2       1 5RY        -0.3429
     21 F21       -11.3370   23.7460  -17.4170 F         1 5RY        -0.1865
     22 S22        -7.3600   23.6940  -18.6900 S.3       1 5RY         0.0212
     23 H1        -10.2190   28.4969  -18.9493 H         1 5RY         0.0668
     24 H2         -8.4735   27.0991  -18.0332 H         1 5RY         0.0573
     25 H3        -13.0414   25.3804  -18.2994 H         1 5RY         0.0685
     26 H4         -8.9963   23.5861  -16.7274 H         1 5RY         0.0604
     27 H5         -7.8964   24.9958  -16.5550 H         1 5RY         0.0604
     28 H6        -11.3696   21.9107  -21.8884 H         1 5RY         0.2370
     29 H7        -11.5002   18.1755  -20.1784 H         1 5RY         0.1822
     30 H8         -7.8743   20.7996  -18.0297 H         1 5RY         0.2698
     31 H9        -12.8965   20.2916  -22.5570 H         1 5RY         0.1763
     32 H10       -12.9268   18.6909  -21.7700 H         1 5RY         0.1763
@<TRIPOS>BOND
     1    5    1 1  
     2    1   14 3  
     3    3    2 ar 
     4    2    5 ar 
     5    6    3 ar 
     6    4    5 ar 
     7    8    4 ar 
     8    6    8 ar 
     9   13    6 1  
    10    7    9 2  
    11    7   10 1  
    12   18    7 1  
    13    8   21 1  
    14    9   15 1  
    15   16    9 1  
    16   10   17 am 
    17   10   20 2  
    18   15   11 ar 
    19   17   11 ar 
    20   11   19 ar 
    21   12   16 2  
    22   12   18 1  
    23   22   12 1  
    24   13   22 1  
    25    2   23 1  
    26    3   24 1  
    27    4   25 1  
    28   13   26 1  
    29   13   27 1  
    30   15   28 1  
    31   17   29 1  
    32   18   30 1  
    33   19   31 1  
    34   19   32 1  
@<TRIPOS>SUBSTRUCTURE
     1 5RY         1

