### 
### Created by X-TOOL on Mon Sep 10 21:13:25 2018
### 

@<TRIPOS>MOLECULE
5etp_ligand
   33    35     1     0     0
SMALL
GAST_HUCK


@<TRIPOS>ATOM
      1 C1         -9.7430   26.6860  -17.9210 C.ar      1 5RZ        -0.0404
      2 C2        -11.5570   25.2910  -17.2380 C.ar      1 5RZ        -0.0404
      3 C3        -10.6240   27.7490  -18.0610 C.ar      1 5RZ        -0.0465
      4 C4        -12.4030   26.3280  -17.3350 C.ar      1 5RZ        -0.0465
      5 C5        -10.2150   25.4160  -17.5220 C.ar      1 5RZ         0.0364
      6 C6         -9.1070   20.5510  -19.3520 C.2       1 5RZ         0.3016
      7 C7        -11.9670   27.5960  -17.7240 C.ar      1 5RZ         0.0176
      8 C8         -9.6810   21.4230  -20.2600 C.2       1 5RZ         0.2583
      9 C9         -9.6480   19.2690  -19.2340 C.2       1 5RZ         0.3013
     10 C10       -11.2430   19.9780  -20.9090 C.cat     1 5RZ         0.1928
     11 C11        -8.0850   22.4470  -19.1750 C.2       1 5RZ         0.2591
     12 C12        -9.4040   24.0830  -17.1920 C.2       1 5RZ         0.1494
     13 C13        -7.9200   24.1440  -17.0390 C.3       1 5RZ         0.1015
     14 N14       -10.7390   21.2050  -21.0470 N.pl3     1 5RZ        -0.2262
     15 N15        -9.0020   22.6030  -20.1370 N.2       1 5RZ        -0.1891
     16 N16       -10.7360   19.0550  -20.0560 N.am      1 5RZ        -0.2440
     17 N17        -8.0400   21.1810  -18.7150 N.pl3     1 5RZ        -0.1498
     18 N18       -12.2970   19.6190  -21.6400 N.pl3     1 5RZ        -0.3352
     19 O19       -10.0520   23.0620  -16.8990 O.2       1 5RZ        -0.3759
     20 O20        -9.2610   18.3560  -18.4620 O.2       1 5RZ        -0.3429
     21 S21        -7.0350   23.7220  -18.6510 S.3       1 5RZ         0.0262
     22 BR1       -13.2060   28.9810  -17.8290 Br        1 5RZ        -0.0458
     23 H1         -8.6871   26.8311  -18.1189 H         1 5RZ         0.0678
     24 H2        -11.9411   24.3262  -16.9269 H         1 5RZ         0.0678
     25 H3        -10.2659   28.7018  -18.4339 H         1 5RZ         0.0655
     26 H4        -13.4517   26.1774  -17.1055 H         1 5RZ         0.0655
     27 H5         -7.6116   23.4264  -16.2645 H         1 5RZ         0.0653
     28 H6         -7.6347   25.1608  -16.7313 H         1 5RZ         0.0653
     29 H7        -11.1242   21.9099  -21.6917 H         1 5RZ         0.2370
     30 H8        -11.1795   18.1595  -20.0197 H         1 5RZ         0.1822
     31 H9         -7.3709   20.7731  -18.0465 H         1 5RZ         0.2698
     32 H10       -12.7163   20.2874  -22.3020 H         1 5RZ         0.1763
     33 H11       -12.6927   18.6730  -21.5432 H         1 5RZ         0.1763
@<TRIPOS>BOND
     1    1    3 ar 
     2    5    1 ar 
     3    2    4 ar 
     4    5    2 ar 
     5    3    7 ar 
     6    4    7 ar 
     7   12    5 1  
     8    6    8 2  
     9    6    9 1  
    10   17    6 1  
    11    7   22 1  
    12    8   14 1  
    13   15    8 1  
    14    9   16 am 
    15    9   20 2  
    16   14   10 ar 
    17   16   10 ar 
    18   10   18 ar 
    19   11   15 2  
    20   11   17 1  
    21   21   11 1  
    22   13   12 1  
    23   12   19 2  
    24   13   21 1  
    25    1   23 1  
    26    2   24 1  
    27    3   25 1  
    28    4   26 1  
    29   13   27 1  
    30   13   28 1  
    31   14   29 1  
    32   16   30 1  
    33   17   31 1  
    34   18   32 1  
    35   18   33 1  
@<TRIPOS>SUBSTRUCTURE
     1 5RZ         1

