### 
### Created by X-TOOL on Mon Sep 10 21:13:28 2018
### 

@<TRIPOS>MOLECULE
5etq_ligand
   31    33     1     0     0
SMALL
GAST_HUCK


@<TRIPOS>ATOM
      1 C01       -11.6460   -7.0920  -27.7750 C.2       1 YH2         0.2092
      2 N02       -11.0560   -5.9290  -28.0690 N.am      1 YH2        -0.1853
      3 C03       -11.5070   -5.2450  -29.1320 C.2       1 YH2         0.2321
      4 N04       -12.5020   -5.6230  -29.9470 N.2       1 YH2        -0.2804
      5 C05       -13.0700   -6.8020  -29.6430 C.2       1 YH2         0.1046
      6 C06       -12.6740   -7.5560  -28.5660 C.2       1 YH2         0.0802
      7 O07       -11.1690   -7.7500  -26.6960 O.2       1 YH2        -0.4108
      8 N08       -10.8840   -4.0180  -29.4220 N.pl3     1 YH2        -0.2816
      9 N09       -14.0850   -7.4130  -30.3220 N.pl3     1 YH2        -0.2405
     10 C10       -14.3150   -8.5350  -29.6700 C.2       1 YH2         0.1741
     11 N11       -13.4790   -8.6630  -28.5870 N.2       1 YH2        -0.3229
     12 S12       -15.5180   -9.7390  -30.0960 S.3       1 YH2        -0.0353
     13 C13       -17.0610   -8.7950  -30.6720 C.3       1 YH2         0.0510
     14 C14       -17.5680   -7.8010  -29.6450 C.ar      1 YH2        -0.0210
     15 C15       -18.4150   -8.1770  -28.6150 C.ar      1 YH2        -0.0477
     16 C16       -18.8160   -7.2590  -27.6600 C.ar      1 YH2        -0.0334
     17 C17       -18.3770   -5.9520  -27.7250 C.ar      1 YH2         0.0883
     18 C18       -17.5370   -5.5580  -28.7380 C.ar      1 YH2        -0.0334
     19 C19       -17.1570   -6.4850  -29.6880 C.ar      1 YH2        -0.0477
     20 C20       -18.7140   -5.0000  -26.7370 C.1       1 YH2         0.0934
     21 N21       -18.9580   -4.2110  -25.9200 N.1       1 YH2        -0.3338
     22 H1        -10.3015   -5.5793  -27.5137 H         1 YH2         0.2510
     23 H2        -11.1975   -3.4592  -30.2284 H         1 YH2         0.1892
     24 H3        -10.1142   -3.6782  -28.8280 H         1 YH2         0.1892
     25 H4        -14.5681   -7.0700  -31.1645 H         1 YH2         0.2365
     26 H5        -17.8596   -9.5226  -30.8790 H         1 YH2         0.0589
     27 H6        -16.8137   -8.2496  -31.5947 H         1 YH2         0.0589
     28 H7        -18.7672   -9.2005  -28.5565 H         1 YH2         0.0583
     29 H8        -19.4771   -7.5675  -26.8582 H         1 YH2         0.0701
     30 H9        -17.1785   -4.5364  -28.7906 H         1 YH2         0.0701
     31 H10       -16.5112   -6.1666  -30.4983 H         1 YH2         0.0583
@<TRIPOS>BOND
     1    1    2 am 
     2    1    6 1  
     3    1    7 2  
     4    2    3 am 
     5    3    4 2  
     6    3    8 1  
     7    4    5 1  
     8    5    6 2  
     9    5    9 1  
    10    6   11 1  
    11    9   10 1  
    12   10   11 2  
    13   10   12 1  
    14   12   13 1  
    15   13   14 1  
    16   14   15 ar 
    17   14   19 ar 
    18   15   16 ar 
    19   16   17 ar 
    20   17   18 ar 
    21   17   20 1  
    22   18   19 ar 
    23   20   21 3  
    24    2   22 1  
    25    8   23 1  
    26    8   24 1  
    27    9   25 1  
    28   13   26 1  
    29   13   27 1  
    30   15   28 1  
    31   16   29 1  
    32   18   30 1  
    33   19   31 1  
@<TRIPOS>SUBSTRUCTURE
     1 YH2         1

