### 
### Created by X-TOOL on Mon Sep 10 21:13:25 2018
### 

@<TRIPOS>MOLECULE
5etr_ligand
   31    33     1     0     0
SMALL
GAST_HUCK


@<TRIPOS>ATOM
      1 C1         32.9870    2.9390  -22.7630 C.ar      1 5RW        -0.0609
      2 C2         31.9020    4.6980  -21.6440 C.ar      1 5RW        -0.0609
      3 C3         33.3120    3.7520  -23.8380 C.ar      1 5RW        -0.0349
      4 C4         32.1790    5.5210  -22.7160 C.ar      1 5RW        -0.0349
      5 C5         32.3010    3.3670  -21.6600 C.ar      1 5RW        -0.0322
      6 C6         32.8750    5.0490  -23.7730 C.ar      1 5RW         0.1248
      7 C7         27.4860    2.9530  -22.3580 C.2       1 5RW         0.3016
      8 C8         27.7780    3.8070  -21.3440 C.2       1 5RW         0.2583
      9 C9         29.1420    2.0920  -21.3640 C.2       1 5RW         0.2588
     10 C10        26.3620    3.2540  -23.2040 C.2       1 5RW         0.3013
     11 C11        26.1500    5.2470  -21.8180 C.cat     1 5RW         0.1928
     12 C12        31.9230    2.4010  -20.5250 C.3       1 5RW         0.0582
     13 N13        28.3460    1.8760  -22.3900 N.pl3     1 5RW        -0.1498
     14 N14        27.1980    4.9590  -21.0540 N.pl3     1 5RW        -0.2262
     15 N15        28.8550    3.2730  -20.7240 N.2       1 5RW        -0.1891
     16 N16        25.7590    4.4390  -22.8610 N.am      1 5RW        -0.2440
     17 N17        25.4120    6.3440  -21.6360 N.pl3     1 5RW        -0.3352
     18 O18        25.9080    2.5730  -24.1630 O.2       1 5RW        -0.3429
     19 F19        33.1580    5.8570  -24.8180 F         1 5RW        -0.1893
     20 S20        30.4720    1.0520  -20.8950 S.3       1 5RW         0.0194
     21 H1         33.2955    1.9005  -22.7990 H         1 5RW         0.0548
     22 H2         31.3705    5.0915  -20.7851 H         1 5RW         0.0548
     23 H3         33.8806    3.3819  -24.6835 H         1 5RW         0.0587
     24 H4         31.8370    6.5496  -22.7100 H         1 5RW         0.0587
     25 H5         31.5961    3.0100  -19.6693 H         1 5RW         0.0584
     26 H6         32.8304    1.8422  -20.2521 H         1 5RW         0.0584
     27 H7         28.3619    1.0909  -23.0566 H         1 5RW         0.2698
     28 H8         27.5297    5.5791  -20.3014 H         1 5RW         0.2370
     29 H9         24.9779    4.7369  -23.4098 H         1 5RW         0.1822
     30 H10        25.6420    6.9990  -20.8751 H         1 5RW         0.1763
     31 H11        24.6125    6.5356  -22.2564 H         1 5RW         0.1763
@<TRIPOS>BOND
     1    1    3 ar 
     2    5    1 ar 
     3    2    4 ar 
     4    5    2 ar 
     5    3    6 ar 
     6    4    6 ar 
     7   12    5 1  
     8    6   19 1  
     9    8    7 2  
    10    7   10 1  
    11   13    7 1  
    12    8   14 1  
    13   15    8 1  
    14    9   13 1  
    15    9   15 2  
    16   20    9 1  
    17   10   16 am 
    18   10   18 2  
    19   14   11 ar 
    20   11   16 ar 
    21   11   17 ar 
    22   12   20 1  
    23    1   21 1  
    24    2   22 1  
    25    3   23 1  
    26    4   24 1  
    27   12   25 1  
    28   12   26 1  
    29   13   27 1  
    30   14   28 1  
    31   16   29 1  
    32   17   30 1  
    33   17   31 1  
@<TRIPOS>SUBSTRUCTURE
     1 5RW         1

