### 
### Created by X-TOOL on Mon Sep 10 21:13:28 2018
### 

@<TRIPOS>MOLECULE
5ets_ligand
   31    33     1     0     0
SMALL
GAST_HUCK


@<TRIPOS>ATOM
      1 C1         31.9580    5.4310  -21.2920 C.ar      1 5RX        -0.0586
      2 C2         33.1580    3.7010  -22.3640 C.ar      1 5RX        -0.0586
      3 C3         32.3370    6.3250  -22.2790 C.ar      1 5RX        -0.0546
      4 C4         33.5490    4.5910  -23.3520 C.ar      1 5RX        -0.0546
      5 C5         32.3480    4.0990  -21.3130 C.ar      1 5RX        -0.0281
      6 C6         27.5070    3.9220  -22.1220 C.2       1 5RX         0.3016
      7 C7         33.1380    5.9070  -23.3200 C.ar      1 5RX         0.0330
      8 C8         27.8480    4.7650  -21.1080 C.2       1 5RX         0.2583
      9 C9         26.4020    4.2740  -22.9700 C.2       1 5RX         0.3013
     10 C10        26.2980    6.2610  -21.5090 C.cat     1 5RX         0.1928
     11 C11        29.1710    3.0000  -21.1530 C.2       1 5RX         0.2589
     12 C12        31.9140    3.1030  -20.2500 C.3       1 5RX         0.0602
     13 N13        27.3020    5.9380  -20.7510 N.pl3     1 5RX        -0.2262
     14 N14        28.9110    4.1730  -20.4980 N.2       1 5RX        -0.1891
     15 N15        25.8480    5.4790  -22.5760 N.am      1 5RX        -0.2440
     16 N16        28.3250    2.8160  -22.1510 N.pl3     1 5RX        -0.1498
     17 N17        25.5830    7.4160  -21.3300 N.pl3     1 5RX        -0.3352
     18 O18        25.9820    3.5990  -23.9050 O.2       1 5RX        -0.3429
     19 S19        30.4880    1.9490  -20.6490 S.3       1 5RX         0.0201
     20 CL1        33.6280    7.0070  -24.5860 Cl        1 5RX        -0.0771
     21 H1         31.3366    5.7827  -20.4764 H         1 5RX         0.0558
     22 H2         33.4932    2.6714  -22.4148 H         1 5RX         0.0558
     23 H3         32.0033    7.3553  -22.2330 H         1 5RX         0.0606
     24 H4         34.1856    4.2484  -24.1597 H         1 5RX         0.0606
     25 H5         31.6272    3.6806  -19.3589 H         1 5RX         0.0593
     26 H6         32.7862    2.4753  -20.0150 H         1 5RX         0.0593
     27 H7         27.6398    6.5147  -19.9673 H         1 5RX         0.2370
     28 H8         25.0635    5.8170  -23.0959 H         1 5RX         0.1822
     29 H9         28.2864    2.0214  -22.8052 H         1 5RX         0.2698
     30 H10        25.8335    8.0641  -20.5697 H         1 5RX         0.1763
     31 H11        24.7950    7.6361  -21.9558 H         1 5RX         0.1763
@<TRIPOS>BOND
     1    1    3 ar 
     2    5    1 ar 
     3    2    4 ar 
     4    5    2 ar 
     5    3    7 ar 
     6    4    7 ar 
     7   12    5 1  
     8    6    8 2  
     9    6    9 1  
    10   16    6 1  
    11    7   20 1  
    12    8   13 1  
    13   14    8 1  
    14    9   15 am 
    15    9   18 2  
    16   13   10 ar 
    17   15   10 ar 
    18   10   17 ar 
    19   11   14 2  
    20   11   16 1  
    21   19   11 1  
    22   12   19 1  
    23    1   21 1  
    24    2   22 1  
    25    3   23 1  
    26    4   24 1  
    27   12   25 1  
    28   12   26 1  
    29   13   27 1  
    30   15   28 1  
    31   16   29 1  
    32   17   30 1  
    33   17   31 1  
@<TRIPOS>SUBSTRUCTURE
     1 5RX         1

