### 
### Created by X-TOOL on Mon Sep 10 21:13:26 2018
### 

@<TRIPOS>MOLECULE
5ett_ligand
   32    34     1     0     0
SMALL
GAST_HUCK


@<TRIPOS>ATOM
      1 C1         33.1320    7.3010  -24.3760 C.1       1 5RY         0.0923
      2 C2         32.0730    6.8120  -22.2990 C.ar      1 5RY        -0.0373
      3 C3         31.7320    5.9260  -21.2980 C.ar      1 5RY        -0.0490
      4 C4         33.3320    5.1240  -23.3600 C.ar      1 5RY         0.0001
      5 C5         32.8510    6.3950  -23.3490 C.ar      1 5RY         0.0866
      6 C6         32.1760    4.6030  -21.2540 C.ar      1 5RY         0.0150
      7 C7         27.2130    4.5700  -22.3880 C.2       1 5RY         0.3016
      8 C8         33.0050    4.2830  -22.3100 C.ar      1 5RY         0.1454
      9 C9         27.5680    5.3340  -21.3070 C.2       1 5RY         0.2583
     10 C10        26.1350    4.9360  -23.2520 C.2       1 5RY         0.3013
     11 C11        26.0450    6.8710  -21.7230 C.cat     1 5RY         0.1928
     12 C12        28.8040    3.5450  -21.4150 C.2       1 5RY         0.2590
     13 C13        31.6790    3.5370  -20.2330 C.3       1 5RY         0.0653
     14 N14        33.3570    7.9750  -25.2860 N.1       1 5RY        -0.3338
     15 N15        27.0300    6.5010  -20.9630 N.pl3     1 5RY        -0.2262
     16 N16        28.5820    4.6770  -20.6600 N.2       1 5RY        -0.1891
     17 N17        25.5970    6.1370  -22.8420 N.am      1 5RY        -0.2440
     18 N18        27.9830    3.4240  -22.4280 N.pl3     1 5RY        -0.1498
     19 N19        25.3110    7.9790  -21.5440 N.pl3     1 5RY        -0.3352
     20 O20        25.6870    4.3220  -24.2620 O.2       1 5RY        -0.3429
     21 F21        33.5440    3.0400  -22.4470 F         1 5RY        -0.1865
     22 S22        30.0320    2.4160  -20.8330 S.3       1 5RY         0.0212
     23 H1         31.7260    7.8381  -22.2558 H         1 5RY         0.0668
     24 H2         31.0842    6.2760  -20.5025 H         1 5RY         0.0573
     25 H3         33.9583    4.7761  -24.1735 H         1 5RY         0.0685
     26 H4         31.4122    4.0586  -19.3020 H         1 5RY         0.0604
     27 H5         32.5089    2.8417  -20.0388 H         1 5RY         0.0604
     28 H6         27.3648    7.0604  -20.1656 H         1 5RY         0.2370
     29 H7         24.8381    6.5136  -23.3733 H         1 5RY         0.1822
     30 H8         27.9246    2.6483  -23.1031 H         1 5RY         0.2698
     31 H9         25.5223    8.6161  -20.7628 H         1 5RY         0.1763
     32 H10        24.5359    8.1929  -22.1877 H         1 5RY         0.1763
@<TRIPOS>BOND
     1    5    1 1  
     2    1   14 3  
     3    3    2 ar 
     4    2    5 ar 
     5    6    3 ar 
     6    4    5 ar 
     7    8    4 ar 
     8    6    8 ar 
     9   13    6 1  
    10    7    9 2  
    11    7   10 1  
    12   18    7 1  
    13    8   21 1  
    14    9   15 1  
    15   16    9 1  
    16   10   17 am 
    17   10   20 2  
    18   15   11 ar 
    19   17   11 ar 
    20   11   19 ar 
    21   12   16 2  
    22   12   18 1  
    23   22   12 1  
    24   13   22 1  
    25    2   23 1  
    26    3   24 1  
    27    4   25 1  
    28   13   26 1  
    29   13   27 1  
    30   15   28 1  
    31   17   29 1  
    32   18   30 1  
    33   19   31 1  
    34   19   32 1  
@<TRIPOS>SUBSTRUCTURE
     1 5RY         1

