### 
### Created by X-TOOL on Mon Sep 10 21:13:27 2018
### 

@<TRIPOS>MOLECULE
5etv_ligand
   33    35     1     0     0
SMALL
GAST_HUCK


@<TRIPOS>ATOM
      1 C1         -7.5290   40.7020   23.1380 C.ar      1 5RZ        -0.0404
      2 C2         -7.1340   38.9440   21.5770 C.ar      1 5RZ        -0.0404
      3 C3         -6.4190   40.2890   23.8480 C.ar      1 5RZ        -0.0465
      4 C4         -6.0310   38.5280   22.2980 C.ar      1 5RZ        -0.0465
      5 C5         -7.8930   40.0330   21.9880 C.ar      1 5RZ         0.0364
      6 C6        -13.3570   39.5020   20.3350 C.2       1 5RZ         0.3016
      7 C7         -5.6700   39.2160   23.4430 C.ar      1 5RZ         0.0176
      8 C8        -12.8100   38.4220   20.9780 C.2       1 5RZ         0.2583
      9 C9        -14.2580   39.2640   19.2320 C.2       1 5RZ         0.3013
     10 C10       -13.7950   36.9010   19.7290 C.cat     1 5RZ         0.1928
     11 C11       -12.0870   40.2710   21.8520 C.2       1 5RZ         0.2591
     12 C12        -9.0880   40.4460   21.2150 C.2       1 5RZ         0.1494
     13 C13        -9.9340   41.6670   21.5760 C.3       1 5RZ         0.1015
     14 N14       -12.9980   37.1220   20.7340 N.pl3     1 5RZ        -0.2262
     15 N15       -12.0010   38.9210   21.9720 N.2       1 5RZ        -0.1891
     16 N16       -14.3990   37.9160   19.0040 N.am      1 5RZ        -0.2440
     17 N17       -12.8900   40.6690   20.8970 N.pl3     1 5RZ        -0.1498
     18 N18       -14.1240   35.6330   19.3010 N.pl3     1 5RZ        -0.3352
     19 O19        -9.4110   39.7550   20.2650 O.2       1 5RZ        -0.3759
     20 O20       -14.8340   40.1020   18.5670 O.2       1 5RZ        -0.3429
     21 S21       -11.1940   41.3700   22.8780 S.3       1 5RZ         0.0262
     22 BR1        -4.1660   38.7390   24.5080 Br        1 5RZ        -0.0458
     23 H1         -8.1118   41.5484   23.4829 H         1 5RZ         0.0678
     24 H2         -7.4121   38.4114   20.6748 H         1 5RZ         0.0678
     25 H3         -6.1341   40.8257   24.7457 H         1 5RZ         0.0655
     26 H4         -5.4541   37.6710   21.9698 H         1 5RZ         0.0655
     27 H5        -10.4536   42.0046   20.6672 H         1 5RZ         0.0653
     28 H6         -9.2581   42.4602   21.9280 H         1 5RZ         0.0653
     29 H7        -12.5573   36.3715   21.2848 H         1 5RZ         0.2370
     30 H8        -14.9913   37.6427   18.2460 H         1 5RZ         0.1822
     31 H9        -13.1201   41.6361   20.6274 H         1 5RZ         0.2698
     32 H10       -13.7263   34.8099   19.7756 H         1 5RZ         0.1763
     33 H11       -14.7676   35.5084   18.5065 H         1 5RZ         0.1763
@<TRIPOS>BOND
     1    1    3 ar 
     2    5    1 ar 
     3    2    4 ar 
     4    5    2 ar 
     5    3    7 ar 
     6    4    7 ar 
     7   12    5 1  
     8    6    8 2  
     9    6    9 1  
    10   17    6 1  
    11    7   22 1  
    12    8   14 1  
    13   15    8 1  
    14    9   16 am 
    15    9   20 2  
    16   14   10 ar 
    17   16   10 ar 
    18   10   18 ar 
    19   11   15 2  
    20   11   17 1  
    21   21   11 1  
    22   13   12 1  
    23   12   19 2  
    24   13   21 1  
    25    1   23 1  
    26    2   24 1  
    27    3   25 1  
    28    4   26 1  
    29   13   27 1  
    30   13   28 1  
    31   14   29 1  
    32   16   30 1  
    33   17   31 1  
    34   18   32 1  
    35   18   33 1  
@<TRIPOS>SUBSTRUCTURE
     1 5RZ         1

