### 
### Created by X-TOOL on Mon Sep 10 21:13:30 2018
### 

@<TRIPOS>MOLECULE
5ety_ligand
   59    63     1     0     0
SMALL
GAST_HUCK


@<TRIPOS>ATOM
      1 O3        -32.2820   24.3220  -20.7040 O.2       1 K56        -0.3909
      2 C18       -32.7020   25.2130  -21.4500 C.2       1 K56         0.2896
      3 N5        -33.8550   25.7780  -21.0920 N.am      1 K56        -0.2223
      4 C20       -34.4730   26.7960  -21.8060 C.ar      1 K56         0.0710
      5 C22       -35.6920   27.3180  -21.3610 C.ar      1 K56        -0.0478
      6 C24       -36.3110   28.3410  -22.1050 C.ar      1 K56        -0.0827
      7 C23       -35.7270   28.8220  -23.2840 C.ar      1 K56        -0.0841
      8 C21       -34.5260   28.2830  -23.7190 C.ar      1 K56        -0.0717
      9 C19       -33.8710   27.2730  -22.9810 C.ar      1 K56         0.0006
     10 C17       -32.5420   26.6980  -23.4250 C.3       1 K56         0.0646
     11 N4        -32.0520   25.6530  -22.5630 N.am      1 K56        -0.2453
     12 C16       -30.8380   24.9730  -22.9960 C.3       1 K56         0.0396
     13 C14       -31.3140   23.5800  -23.5520 C.3       1 K56        -0.0168
     14 C11       -30.2610   22.6870  -24.1920 C.3       1 K56        -0.0269
     15 C7        -30.7750   21.3110  -24.7050 C.3       1 K56         0.0354
     16 C12       -32.3920   23.6810  -24.6470 C.3       1 K56        -0.0269
     17 C8        -32.9510   22.3410  -25.1630 C.3       1 K56         0.0354
     18 N1        -31.9130   21.4060  -25.6070 N.pl3     1 K56        -0.2819
     19 C2        -32.1300   20.5040  -26.6150 C.ar      1 K56         0.1342
     20 N2        -31.9360   19.2060  -26.3430 N.ar      1 K56        -0.2637
     21 C9        -32.1640   18.3330  -27.3170 C.ar      1 K56         0.0518
     22 N3        -32.5620   18.5710  -28.5540 N.ar      1 K56        -0.3059
     23 C3        -32.7710   19.8540  -28.8670 C.ar      1 K56         0.0259
     24 C1        -32.5660   20.8760  -27.9120 C.ar      1 K56         0.0363
     25 C5        -33.2030   20.1920  -30.1770 C.ar      1 K56        -0.0169
     26 C10       -33.4370   21.5320  -30.5720 C.ar      1 K56         0.1323
     27 O2        -33.7980   22.0510  -31.7950 O.3       1 K56        -0.3161
     28 C15       -34.7250   21.4540  -32.6840 C.3       1 K56         0.0601
     29 C6        -33.2330   22.5480  -29.6300 C.ar      1 K56         0.1319
     30 C4        -32.8160   22.1980  -28.3340 C.ar      1 K56        -0.0173
     31 O1        -33.4610   23.8390  -30.0620 O.3       1 K56        -0.3199
     32 C13       -32.7310   24.9210  -29.4900 C.3       1 K56         0.0583
     33 H1        -34.3014   25.4492  -20.2598 H         1 K56         0.2233
     34 H2        -36.1539   26.9403  -20.4560 H         1 K56         0.0478
     35 H3        -37.2496   28.7608  -21.7616 H         1 K56         0.0520
     36 H4        -36.2101   29.6091  -23.8515 H         1 K56         0.0469
     37 H5        -34.0827   28.6427  -24.6405 H         1 K56         0.0513
     38 H6        -31.8002   27.5100  -23.4443 H         1 K56         0.0653
     39 H7        -32.6616   26.2864  -24.4380 H         1 K56         0.0653
     40 H8        -30.1513   24.8344  -22.1479 H         1 K56         0.0524
     41 H9        -30.3342   25.5504  -23.7852 H         1 K56         0.0524
     42 H10       -31.7368   23.0414  -22.6911 H         1 K56         0.0321
     43 H11       -29.4760   22.4988  -23.4448 H         1 K56         0.0289
     44 H12       -29.8309   23.2288  -25.0472 H         1 K56         0.0289
     45 H13       -31.0717   20.7060  -23.8356 H         1 K56         0.0534
     46 H14       -29.9525   20.8103  -25.2367 H         1 K56         0.0534
     47 H15       -31.9548   24.2162  -25.5028 H         1 K56         0.0289
     48 H16       -33.2323   24.2632  -24.2408 H         1 K56         0.0289
     49 H17       -33.6202   22.5466  -26.0115 H         1 K56         0.0534
     50 H18       -33.5226   21.8667  -24.3516 H         1 K56         0.0534
     51 H19       -32.0029   17.2911  -27.0648 H         1 K56         0.1016
     52 H20       -33.3588   19.3982  -30.8985 H         1 K56         0.0496
     53 H21       -34.8248   22.0789  -33.5837 H         1 K56         0.0579
     54 H22       -35.7032   21.3655  -32.1888 H         1 K56         0.0579
     55 H23       -34.3670   20.4540  -32.9700 H         1 K56         0.0579
     56 H24       -32.6778   22.9954  -27.6129 H         1 K56         0.0549
     57 H25       -33.0476   25.8648  -29.9579 H         1 K56         0.0575
     58 H26       -31.6552   24.7692  -29.6622 H         1 K56         0.0575
     59 H27       -32.9267   24.9642  -28.4084 H         1 K56         0.0575
@<TRIPOS>BOND
     1    1    2 2  
     2    2    3 am 
     3    2   11 am 
     4    3    4 1  
     5    4    5 ar 
     6    4    9 ar 
     7    5    6 ar 
     8    6    7 ar 
     9    7    8 ar 
    10    8    9 ar 
    11    9   10 1  
    12   10   11 1  
    13   11   12 1  
    14   12   13 1  
    15   13   14 1  
    16   13   16 1  
    17   14   15 1  
    18   15   18 1  
    19   16   17 1  
    20   17   18 1  
    21   18   19 1  
    22   19   20 ar 
    23   19   24 ar 
    24   20   21 ar 
    25   21   22 ar 
    26   22   23 ar 
    27   23   24 ar 
    28   23   25 ar 
    29   24   30 ar 
    30   25   26 ar 
    31   26   27 1  
    32   26   29 ar 
    33   27   28 1  
    34   29   30 ar 
    35   29   31 1  
    36   31   32 1  
    37    3   33 1  
    38    5   34 1  
    39    6   35 1  
    40    7   36 1  
    41    8   37 1  
    42   10   38 1  
    43   10   39 1  
    44   12   40 1  
    45   12   41 1  
    46   13   42 1  
    47   14   43 1  
    48   14   44 1  
    49   15   45 1  
    50   15   46 1  
    51   16   47 1  
    52   16   48 1  
    53   17   49 1  
    54   17   50 1  
    55   21   51 1  
    56   25   52 1  
    57   28   53 1  
    58   28   54 1  
    59   28   55 1  
    60   30   56 1  
    61   32   57 1  
    62   32   58 1  
    63   32   59 1  
@<TRIPOS>SUBSTRUCTURE
     1 K56         1

