### 
### Created by X-TOOL on Mon Sep 10 21:13:27 2018
### 

@<TRIPOS>MOLECULE
5eu1_ligand
   50    52     1     0     0
SMALL
GAST_HUCK


@<TRIPOS>ATOM
      1 N3         11.7300   -7.6310    4.4490 N.ar      1 5SW        -0.3065
      2 C4         12.4520   -6.5210    4.5720 C.ar      1 5SW         0.0181
      3 C5         10.4030   -5.2070    4.7670 C.ar      1 5SW        -0.0058
      4 C6         11.8300   -5.2760    4.7420 C.ar      1 5SW         0.0768
      5 C7         12.5990   -4.0280    4.8500 C.2       1 5SW         0.2432
      6 C10         9.7640   -3.8800    4.8910 C.2       1 5SW         0.0047
      7 C13         6.4220   -2.6060    6.1290 C.ar      1 5SW         0.0821
      8 C17         7.7980   -2.8000    5.9630 C.ar      1 5SW        -0.0542
      9 C20         5.9850   -4.2220    4.3810 C.ar      1 5SW         0.0821
     10 C21         5.5200   -3.3070    5.3290 C.ar      1 5SW         0.0519
     11 C24         5.4060   -5.4380    2.3570 C.3       1 5SW         0.0572
     12 C26         6.8370   -0.7620    7.6570 C.3       1 5SW         0.0572
     13 C18         8.2830   -3.7070    5.0120 C.ar      1 5SW        -0.0617
     14 C1          9.7020   -6.4210    4.6600 C.ar      1 5SW        -0.0375
     15 N8         11.9320   -2.8490    4.8750 N.am      1 5SW        -0.2024
     16 C2         10.3980   -7.5940    4.5100 C.ar      1 5SW         0.0010
     17 C16         3.9380   -1.3020    3.8640 C.3       1 5SW        -0.0424
     18 C25         2.0680   -1.7300    5.3210 C.3       1 5SW        -0.0424
     19 C9         10.5700   -2.7800    4.9110 C.2       1 5SW         0.0746
     20 C12        12.6950   -1.5980    4.9900 C.3       1 5SW         0.0595
     21 C19         7.3660   -4.4260    4.2210 C.ar      1 5SW        -0.0542
     22 C14         4.0210   -3.1340    5.5200 C.3       1 5SW        -0.0048
     23 O23         5.0670   -4.9400    3.6580 O.3       1 5SW        -0.3294
     24 O22         5.9500   -1.7210    7.0540 O.3       1 5SW        -0.3294
     25 N15         3.5370   -1.7770    5.1980 N.4       1 5SW         0.2391
     26 O11        13.8280   -4.0670    4.8780 O.2       1 5SW        -0.3847
     27 H1         13.5340   -6.5794    4.5405 H         1 5SW         0.0844
     28 H2          8.4960   -2.2424    6.5769 H         1 5SW         0.0366
     29 H3          4.5478   -5.9840    1.9384 H         1 5SW         0.0574
     30 H4          6.2683   -6.1162    2.4372 H         1 5SW         0.0574
     31 H5          5.6619   -4.5959    1.6972 H         1 5SW         0.0574
     32 H6          6.2756   -0.1417    8.3712 H         1 5SW         0.0574
     33 H7          7.2696   -0.1204    6.8752 H         1 5SW         0.0574
     34 H8          7.6439   -1.2906    8.1857 H         1 5SW         0.0574
     35 H9          8.6186   -6.4303    4.6958 H         1 5SW         0.0641
     36 H10         9.8456   -8.5239    4.4385 H         1 5SW         0.0805
     37 H11         3.5408   -0.2893    3.7007 H         1 5SW         0.0777
     38 H12         3.5371   -1.9811    3.0971 H         1 5SW         0.0777
     39 H13         5.0357   -1.2805    3.7971 H         1 5SW         0.0777
     40 H14         1.7721   -2.0856    6.3190 H         1 5SW         0.0777
     41 H15         1.6149   -2.3741    4.5530 H         1 5SW         0.0777
     42 H16         1.7214   -0.6952    5.1828 H         1 5SW         0.0777
     43 H17        10.1030   -1.7974    4.9581 H         1 5SW         0.1257
     44 H18        13.7715   -1.8196    4.9440 H         1 5SW         0.0604
     45 H19        12.4612   -1.1127    5.9491 H         1 5SW         0.0604
     46 H20        12.4235   -0.9255    4.1629 H         1 5SW         0.0604
     47 H21         7.7263   -5.1381    3.4874 H         1 5SW         0.0366
     48 H22         3.7770   -3.3500    6.5706 H         1 5SW         0.0919
     49 H23         3.5021   -3.8521    4.8680 H         1 5SW         0.0919
     50 H24         3.9325   -1.1452    5.8765 H         1 5SW         0.2037
@<TRIPOS>BOND
     1    2    1 ar 
     2   16    1 ar 
     3    4    2 ar 
     4    3    4 ar 
     5    6    3 1  
     6    3   14 ar 
     7    4    5 1  
     8   15    5 am 
     9    5   26 2  
    10   13    6 1  
    11    6   19 2  
    12    7    8 ar 
    13   10    7 ar 
    14    7   24 1  
    15    8   13 ar 
    16   10    9 ar 
    17    9   21 ar 
    18    9   23 1  
    19   22   10 1  
    20   23   11 1  
    21   24   12 1  
    22   21   13 ar 
    23   14   16 ar 
    24   19   15 1  
    25   15   20 1  
    26   25   17 1  
    27   25   18 1  
    28   22   25 1  
    29    2   27 1  
    30    8   28 1  
    31   11   29 1  
    32   11   30 1  
    33   11   31 1  
    34   12   32 1  
    35   12   33 1  
    36   12   34 1  
    37   14   35 1  
    38   16   36 1  
    39   17   37 1  
    40   17   38 1  
    41   17   39 1  
    42   18   40 1  
    43   18   41 1  
    44   18   42 1  
    45   19   43 1  
    46   20   44 1  
    47   20   45 1  
    48   20   46 1  
    49   21   47 1  
    50   22   48 1  
    51   22   49 1  
    52   25   50 1  
@<TRIPOS>SUBSTRUCTURE
     1 5SW         1

