### 
### Created by X-TOOL on Mon Sep 10 21:13:26 2018
### 

@<TRIPOS>MOLECULE
5eud_ligand
   63    65     1     0     0
SMALL
GAST_HUCK


@<TRIPOS>ATOM
      1 C8          1.5420   -7.2840   10.0950 C.1       1 5S6        -0.0697
      2 C9          0.4970   -7.6480    9.6400 C.1       1 5S6        -0.0727
      3 C23         3.0380   -6.6320   11.9040 C.ar      1 5S6        -0.0525
      4 C24         3.7250   -6.4970    9.6080 C.ar      1 5S6        -0.0525
      5 C21         4.2660   -6.1290   12.2940 C.ar      1 5S6        -0.0562
      6 C20         4.9440   -6.0100   10.0140 C.ar      1 5S6        -0.0562
      7 C13        10.4380   -4.5680   15.5350 C.ar      1 5S6        -0.0685
      8 C11        10.3570   -1.8540   15.0560 C.ar      1 5S6        -0.0444
      9 C4          7.8010   -2.1570    8.1030 C.2       1 5S6        -0.0165
     10 C19         2.7830   -6.8040   10.5590 C.ar      1 5S6         0.0184
     11 C18         5.2240   -5.8170   11.3510 C.ar      1 5S6        -0.0121
     12 C12         9.9540   -4.0890   14.3330 C.ar      1 5S6        -0.0142
     13 C14        10.8940   -3.7010   16.5060 C.ar      1 5S6        -0.0297
     14 C15         9.9180   -2.7250   14.0840 C.ar      1 5S6        -0.0542
     15 C10        10.8480   -2.3340   16.2590 C.ar      1 5S6         0.0788
     16 C1          8.0470   -3.0670    9.1600 C.2       1 5S6         0.1131
     17 C7          8.9050   -2.2650    7.2930 C.2       1 5S6         0.1392
     18 C3          7.2060   -3.3640   10.2820 C.2       1 5S6         0.2113
     19 C32        11.4100   -4.2820   17.7820 C.3       1 5S6        -0.0377
     20 C30         9.4160   -2.1280   12.8160 C.3       1 5S6        -0.0390
     21 C31         9.3120   -1.6290    6.0290 C.3       1 5S6         0.0097
     22 C33        12.4970   -0.8870   16.7060 C.3       1 5S6         0.0561
     23 C27        -0.7460   -8.0670    9.0310 C.3       1 5S6         0.1039
     24 C26         9.4870   -5.0900   13.3400 C.3       1 5S6        -0.0083
     25 C28         7.4380   -6.2020   12.5370 C.3       1 5S6         0.0009
     26 C16         6.5560   -5.2480   11.7510 C.3       1 5S6         0.1151
     27 N2          9.2180   -3.6900    9.0030 N.2       1 5S6        -0.1328
     28 N5          7.2950   -4.6860   10.6420 N.am      1 5S6        -0.2665
     29 N22         8.0610   -5.3750   13.5920 N.4       1 5S6         0.2397
     30 O17         6.5070   -2.5130   10.8100 O.2       1 5S6        -0.3853
     31 O6          9.7560   -3.1770    7.8310 O.3       1 5S6        -0.1606
     32 O29        -0.9390   -7.2510    7.8970 O.3       1 5S6        -0.3828
     33 O25        11.2730   -1.4070   17.2100 O.3       1 5S6        -0.3310
     34 H1          2.2876   -6.8871   12.6435 H         1 5S6         0.0614
     35 H2          3.5104   -6.6365    8.5546 H         1 5S6         0.0614
     36 H3          4.4771   -5.9790   13.3466 H         1 5S6         0.0560
     37 H4          5.6979   -5.7736    9.2718 H         1 5S6         0.0560
     38 H5         10.4596   -5.6364   15.7170 H         1 5S6         0.0452
     39 H6         10.3181   -0.7853   14.8785 H         1 5S6         0.0445
     40 H7          6.9319   -1.5158    7.9638 H         1 5S6         0.0312
     41 H8         11.3443   -5.3792   17.7383 H         1 5S6         0.0354
     42 H9         10.8065   -3.9119   18.6239 H         1 5S6         0.0354
     43 H10        12.4591   -3.9829   17.9233 H         1 5S6         0.0354
     44 H11         9.4939   -1.0321   12.8707 H         1 5S6         0.0362
     45 H12         8.3642   -2.4138   12.6673 H         1 5S6         0.0362
     46 H13        10.0189   -2.4968   11.9731 H         1 5S6         0.0362
     47 H14        10.2952   -2.0164    5.7236 H         1 5S6         0.0449
     48 H15         9.3747   -0.5399    6.1701 H         1 5S6         0.0449
     49 H16         8.5702   -1.8556    5.2490 H         1 5S6         0.0449
     50 H17        12.8962   -0.1418   17.4098 H         1 5S6         0.0572
     51 H18        12.3192   -0.4113   15.7302 H         1 5S6         0.0572
     52 H19        13.2223   -1.7055   16.5882 H         1 5S6         0.0572
     53 H20        -1.5778   -7.9351    9.7385 H         1 5S6         0.0691
     54 H21        -0.6837   -9.1235    8.7312 H         1 5S6         0.0691
     55 H22        10.0733   -6.0150   13.4427 H         1 5S6         0.0941
     56 H23         9.6104   -4.6886   12.3233 H         1 5S6         0.0941
     57 H24         8.2083   -6.6403   11.8855 H         1 5S6         0.0861
     58 H25         6.8344   -7.0060   12.9834 H         1 5S6         0.0861
     59 H26         6.3285   -4.4119   12.4286 H         1 5S6         0.0776
     60 H27         7.8966   -5.2861   10.1148 H         1 5S6         0.1878
     61 H28         7.5643   -4.4997   13.6482 H         1 5S6         0.2027
     62 H29         7.9820   -5.8632   14.4703 H         1 5S6         0.2027
     63 H30        -0.9847   -6.3413    8.1669 H         1 5S6         0.2107
@<TRIPOS>BOND
     1    1    2 3  
     2   10    1 1  
     3    2   23 1  
     4    5    3 ar 
     5    3   10 ar 
     6    6    4 ar 
     7    4   10 ar 
     8   11    5 ar 
     9   11    6 ar 
    10   12    7 ar 
    11    7   13 ar 
    12   14    8 ar 
    13    8   15 ar 
    14   16    9 1  
    15    9   17 2  
    16   26   11 1  
    17   12   14 ar 
    18   24   12 1  
    19   13   15 ar 
    20   13   19 1  
    21   14   20 1  
    22   15   33 1  
    23   18   16 1  
    24   16   27 2  
    25   17   21 1  
    26   17   31 1  
    27   28   18 am 
    28   18   30 2  
    29   33   22 1  
    30   23   32 1  
    31   29   24 1  
    32   26   25 1  
    33   25   29 1  
    34   26   28 1  
    35   27   31 1  
    36    3   34 1  
    37    4   35 1  
    38    5   36 1  
    39    6   37 1  
    40    7   38 1  
    41    8   39 1  
    42    9   40 1  
    43   19   41 1  
    44   19   42 1  
    45   19   43 1  
    46   20   44 1  
    47   20   45 1  
    48   20   46 1  
    49   21   47 1  
    50   21   48 1  
    51   21   49 1  
    52   22   50 1  
    53   22   51 1  
    54   22   52 1  
    55   23   53 1  
    56   23   54 1  
    57   24   55 1  
    58   24   56 1  
    59   25   57 1  
    60   25   58 1  
    61   26   59 1  
    62   28   60 1  
    63   29   61 1  
    64   29   62 1  
    65   32   63 1  
@<TRIPOS>SUBSTRUCTURE
     1 5S6         1

