### 
### Created by X-TOOL on Mon Sep 10 21:13:27 2018
### 

@<TRIPOS>MOLECULE
5eue_ligand
   57    59     1     0     0
SMALL
GAST_HUCK


@<TRIPOS>ATOM
      1 C4         10.4190  -17.4850   -6.9560 C.ar      1 5S5        -0.0685
      2 C5          9.9060  -17.6680   -8.2260 C.ar      1 5S5        -0.0580
      3 C6         10.4560  -16.9900   -9.3030 C.ar      1 5S5        -0.0129
      4 C7          9.9210  -17.1480  -10.6890 C.3       1 5S5         0.1147
      5 C8         10.1730  -18.5150  -11.2920 C.3       1 5S5         0.0007
      6 C10         8.2270  -15.5370  -11.4580 C.2       1 5S5         0.2113
      7 C15         4.7670  -14.4720  -11.4380 C.2       1 5S5         0.1392
      8 C17         3.4900  -13.7600  -11.2600 C.3       1 5S5         0.0097
      9 C20        10.1330  -18.5510  -15.1030 C.ar      1 5S5        -0.0142
     10 C21         9.7170  -17.4040  -15.7700 C.ar      1 5S5        -0.0542
     11 C22        10.0750  -17.2120  -17.0910 C.ar      1 5S5        -0.0444
     12 C24        11.2750  -19.2990  -17.0920 C.ar      1 5S5        -0.0297
     13 C26         8.8890  -16.3510  -15.1200 C.3       1 5S5        -0.0390
     14 C3         11.4690  -16.6090   -6.7620 C.ar      1 5S5        -0.0687
     15 C2         12.0180  -15.9240   -7.8260 C.ar      1 5S5        -0.0685
     16 C1         11.5110  -16.1200   -9.0950 C.ar      1 5S5        -0.0580
     17 C25        10.8970  -19.4880  -15.7760 C.ar      1 5S5        -0.0685
     18 C16         6.0640  -14.2180  -11.0500 C.2       1 5S5        -0.0165
     19 C23        10.8670  -18.1420  -17.7490 C.ar      1 5S5         0.0788
     20 C11         6.8110  -15.3130  -11.5520 C.2       1 5S5         0.1131
     21 C27        12.0910  -20.3680  -17.7400 C.3       1 5S5        -0.0377
     22 C29        12.0910  -16.8310  -19.2100 C.3       1 5S5         0.0561
     23 C19         9.7580  -18.8500  -13.6870 C.3       1 5S5        -0.0083
     24 N13         6.0190  -16.1750  -12.2000 N.2       1 5S5        -0.1328
     25 N9          8.5450  -16.7190  -10.8150 N.am      1 5S5        -0.2667
     26 N18        10.7000  -18.3250  -12.6710 N.4       1 5S5         0.2397
     27 O12         9.0180  -14.7310  -11.9340 O.2       1 5S5        -0.3853
     28 O14         4.7290  -15.6450  -12.1240 O.3       1 5S5        -0.1606
     29 O28        11.1920  -17.9320  -19.0930 O.3       1 5S5        -0.3310
     30 H1          9.9993  -18.0265   -6.1159 H         1 5S5         0.0599
     31 H2          9.0720  -18.3430   -8.3805 H         1 5S5         0.0557
     32 H3         10.5035  -16.4478  -11.3058 H         1 5S5         0.0773
     33 H4          9.2330  -19.0852  -11.3279 H         1 5S5         0.0861
     34 H5         10.9097  -19.0603  -10.6837 H         1 5S5         0.0861
     35 H6          3.6627  -12.8338  -10.6922 H         1 5S5         0.0449
     36 H7          2.7861  -14.4016  -10.7097 H         1 5S5         0.0449
     37 H8          3.0676  -13.5128  -12.2451 H         1 5S5         0.0449
     38 H9          9.7343  -16.3277  -17.6173 H         1 5S5         0.0445
     39 H10         8.6833  -16.6375  -14.0781 H         1 5S5         0.0362
     40 H11         7.9395  -16.2429  -15.6647 H         1 5S5         0.0362
     41 H12         9.4324  -15.3948  -15.1369 H         1 5S5         0.0362
     42 H13        11.8653  -16.4584   -5.7644 H         1 5S5         0.0559
     43 H14        12.8413  -15.2370   -7.6669 H         1 5S5         0.0599
     44 H15        11.9430  -15.5880   -9.9349 H         1 5S5         0.0557
     45 H16        11.2058  -20.3899  -15.2599 H         1 5S5         0.0452
     46 H17         6.4336  -13.3648  -10.4831 H         1 5S5         0.0312
     47 H18        12.2817  -21.1735  -17.0156 H         1 5S5         0.0354
     48 H19        13.0484  -19.9445  -18.0778 H         1 5S5         0.0354
     49 H20        11.5443  -20.7737  -18.6040 H         1 5S5         0.0354
     50 H21        12.3412  -16.6729  -20.2694 H         1 5S5         0.0572
     51 H22        13.0097  -17.0460  -18.6445 H         1 5S5         0.0572
     52 H23        11.6156  -15.9249  -18.8064 H         1 5S5         0.0572
     53 H24         9.7033  -19.9425  -13.5708 H         1 5S5         0.0941
     54 H25         8.7679  -18.4108  -13.4951 H         1 5S5         0.0941
     55 H26         7.8146  -17.2846  -10.4321 H         1 5S5         0.1877
     56 H27        11.5787  -18.8115  -12.7562 H         1 5S5         0.2027
     57 H28        10.8435  -17.3408  -12.8345 H         1 5S5         0.2027
@<TRIPOS>BOND
     1    2    1 ar 
     2    1   14 ar 
     3    3    2 ar 
     4    4    3 1  
     5    3   16 ar 
     6    5    4 1  
     7    4   25 1  
     8   26    5 1  
     9    6   20 1  
    10   25    6 am 
    11    6   27 2  
    12    7    8 1  
    13   18    7 2  
    14    7   28 1  
    15    9   10 ar 
    16    9   17 ar 
    17   23    9 1  
    18   10   11 ar 
    19   10   13 1  
    20   11   19 ar 
    21   17   12 ar 
    22   12   19 ar 
    23   12   21 1  
    24   15   14 ar 
    25   16   15 ar 
    26   20   18 1  
    27   19   29 1  
    28   20   24 2  
    29   29   22 1  
    30   23   26 1  
    31   24   28 1  
    32    1   30 1  
    33    2   31 1  
    34    4   32 1  
    35    5   33 1  
    36    5   34 1  
    37    8   35 1  
    38    8   36 1  
    39    8   37 1  
    40   11   38 1  
    41   13   39 1  
    42   13   40 1  
    43   13   41 1  
    44   14   42 1  
    45   15   43 1  
    46   16   44 1  
    47   17   45 1  
    48   18   46 1  
    49   21   47 1  
    50   21   48 1  
    51   21   49 1  
    52   22   50 1  
    53   22   51 1  
    54   22   52 1  
    55   23   53 1  
    56   23   54 1  
    57   25   55 1  
    58   26   56 1  
    59   26   57 1  
@<TRIPOS>SUBSTRUCTURE
     1 5S5         1

