### 
### Created by X-TOOL on Mon Sep 10 21:13:27 2018
### 

@<TRIPOS>MOLECULE
5ev8_ligand
   24    25     1     0     0
SMALL
GAST_HUCK


@<TRIPOS>ATOM
      1 O          -3.8850   -2.2050   40.0670 O.co2     1 3R9        -0.5642
      2 N          -4.6310   -5.5910   40.4020 N.4       1 3R9         0.2697
      3 C          -4.6430   -3.1900   40.0770 C.2       1 3R9         0.0854
      4 OXT        -5.6950   -3.3970   39.4410 O.co2     1 3R9        -0.5642
      5 CA         -4.1870   -4.3150   41.0050 C.3       1 3R9         0.0435
      6 CB         -4.8580   -4.1130   42.3800 C.3       1 3R9         0.0540
      7 SAH        -5.7720   -5.6320   42.7850 S.3       1 3R9        -0.1001
      8 CAM        -5.0460   -6.5800   41.3520 C.3       1 3R9         0.0388
      9 CAF        -3.7830   -7.2960   41.7710 C.3       1 3R9         0.0518
     10 SAG        -2.6880   -7.2800   40.3090 S.3       1 3R9        -0.1011
     11 CAJ        -3.8350   -6.1540   39.3520 C.3       1 3R9         0.0383
     12 CAD        -4.6280   -7.0450   38.3560 C.3       1 3R9         0.0437
     13 SAC        -5.8430   -6.0260   37.5420 S.3       1 3R9        -0.1717
     14 H1         -5.4840   -5.3315   39.9317 H         1 3R9         0.2075
     15 H2         -3.0926   -4.3066   41.1150 H         1 3R9         0.1035
     16 H3         -5.5514   -3.2603   42.3357 H         1 3R9         0.0453
     17 H4         -4.0914   -3.9229   43.1456 H         1 3R9         0.0453
     18 H5         -5.7791   -7.2820   40.9281 H         1 3R9         0.0984
     19 H6         -4.0103   -8.3307   42.0671 H         1 3R9         0.0443
     20 H7         -3.3063   -6.7703   42.6115 H         1 3R9         0.0443
     21 H8         -3.2936   -5.3690   38.8037 H         1 3R9         0.0984
     22 H9         -5.1293   -7.8580   38.9016 H         1 3R9         0.0438
     23 H10        -3.9411   -7.4725   37.6107 H         1 3R9         0.0438
     24 H11        -6.3686   -6.5875   36.8905 H         1 3R9         0.1019
@<TRIPOS>BOND
     1    3    1 ar 
     2    5    2 1  
     3    2    8 1  
     4    2   11 1  
     5    3    4 ar 
     6    3    5 1  
     7    5    6 1  
     8    6    7 1  
     9    7    8 1  
    10    8    9 1  
    11    9   10 1  
    12   10   11 1  
    13   11   12 1  
    14   12   13 1  
    15    2   14 1  
    16    5   15 1  
    17    6   16 1  
    18    6   17 1  
    19    8   18 1  
    20    9   19 1  
    21    9   20 1  
    22   11   21 1  
    23   12   22 1  
    24   12   23 1  
    25   13   24 1  
@<TRIPOS>SUBSTRUCTURE
     1 3R9         1

