### 
### Created by X-TOOL on Mon Sep 10 21:13:27 2018
### 

@<TRIPOS>MOLECULE
5eva_ligand
   26    27     1     0     0
SMALL
GAST_HUCK


@<TRIPOS>ATOM
      1 FAD         8.7980  -11.2810    8.3030 F         1 5S9        -0.1945
      2 CAN         8.1400  -10.1150    8.1500 C.ar      1 5S9         0.1503
      3 CAI         7.8740   -9.3440    9.2770 C.ar      1 5S9        -0.0079
      4 CAM         7.2000   -8.1360    9.1550 C.ar      1 5S9         0.1142
      5 FAC         6.9460   -7.3790   10.2790 F         1 5S9        -0.1972
      6 CAG         6.7890   -7.6970    7.9010 C.ar      1 5S9        -0.0457
      7 CAH         7.0580   -8.4660    6.7720 C.ar      1 5S9        -0.0440
      8 CAO         7.7230   -9.6880    6.8890 C.ar      1 5S9         0.0962
      9 NAK         8.0330  -10.4970    5.8430 N.am      1 5S9        -0.2328
     10 CAL         7.1700  -10.6760    4.8090 C.2       1 5S9         0.2578
     11 OAB         6.0660  -10.1300    4.7490 O.2       1 5S9        -0.3720
     12 CAP         7.6050  -11.4860    3.8140 C.2       1 5S9         0.1640
     13 CAF         8.8540  -11.9150    3.6730 C.2       1 5S9        -0.0256
     14 CAE         8.8570  -12.6680    2.5780 C.2       1 5S9         0.0043
     15 NAJ         7.6170  -12.6760    2.0830 N.2       1 5S9        -0.2080
     16 NAQ         6.8910  -11.9830    2.7980 N.pl3     1 5S9        -0.1925
     17 CAA         5.4600  -11.8380    2.4610 C.3       1 5S9         0.0614
     18 H1          8.1941   -9.6875   10.2541 H         1 5S9         0.0551
     19 H2          6.2593   -6.7563    7.8026 H         1 5S9         0.0532
     20 H3          6.7488   -8.1133    5.7947 H         1 5S9         0.0482
     21 H4          8.9139  -10.9703    5.8337 H         1 5S9         0.2229
     22 H5          9.7011  -11.6950    4.3211 H         1 5S9         0.0432
     23 H6          9.7180  -13.1865    2.1588 H         1 5S9         0.0679
     24 H7          5.2414  -12.3993    1.5406 H         1 5S9         0.0605
     25 H8          5.2257  -10.7745    2.3062 H         1 5S9         0.0605
     26 H9          4.8474  -12.2323    3.2852 H         1 5S9         0.0605
@<TRIPOS>BOND
     1    1    2 1  
     2    2    3 ar 
     3    2    8 ar 
     4    3    4 ar 
     5    4    5 1  
     6    4    6 ar 
     7    6    7 ar 
     8    7    8 ar 
     9    8    9 1  
    10    9   10 am 
    11   10   11 2  
    12   10   12 1  
    13   12   13 2  
    14   12   16 1  
    15   13   14 1  
    16   14   15 2  
    17   15   16 1  
    18   16   17 1  
    19    3   18 1  
    20    6   19 1  
    21    7   20 1  
    22    9   21 1  
    23   13   22 1  
    24   14   23 1  
    25   17   24 1  
    26   17   25 1  
    27   17   26 1  
@<TRIPOS>SUBSTRUCTURE
     1 5S9         1

