### 
### Created by X-TOOL on Mon Sep 10 21:13:26 2018
### 

@<TRIPOS>MOLECULE
5evb_ligand
   24    25     1     0     0
SMALL
GAST_HUCK


@<TRIPOS>ATOM
      1 O         -15.2580   24.1950   -0.0030 O.co2     1 3R9        -0.5642
      2 N         -17.4160   26.0340   -2.0790 N.4       1 3R9         0.2697
      3 C         -16.2330   24.4040   -0.7410 C.2       1 3R9         0.0854
      4 OXT       -17.2090   23.6950   -1.0540 O.co2     1 3R9        -0.5642
      5 CA        -16.1670   25.7820   -1.3950 C.3       1 3R9         0.0435
      6 CB        -15.0080   25.8260   -2.3830 C.3       1 3R9         0.0540
      7 SAH       -15.5570   26.8200   -3.7840 S.3       1 3R9        -0.1001
      8 CAM       -17.3140   26.8270   -3.2750 C.3       1 3R9         0.0388
      9 CAF       -17.7900   28.2340   -2.9040 C.3       1 3R9         0.0518
     10 SAG       -18.3380   28.1710   -1.1970 S.3       1 3R9        -0.1011
     11 CAJ       -18.5590   26.3960   -1.2970 C.3       1 3R9         0.0383
     12 CAD       -19.8490   26.1550   -2.0610 C.3       1 3R9         0.0437
     13 SAC       -21.2640   26.7350   -1.1130 S.3       1 3R9        -0.1717
     14 H1        -17.6596   25.1185   -2.4235 H         1 3R9         0.2075
     15 H2        -16.0129   26.5487   -0.6214 H         1 3R9         0.1035
     16 H3        -14.7553   24.8086   -2.7162 H         1 3R9         0.0453
     17 H4        -14.1269   26.2875   -1.9132 H         1 3R9         0.0453
     18 H5        -17.9408   26.4137   -4.0789 H         1 3R9         0.0984
     19 H6        -18.6225   28.5353   -3.5568 H         1 3R9         0.0443
     20 H7        -16.9634   28.9521   -3.0088 H         1 3R9         0.0443
     21 H8        -18.5752   25.8987   -0.3160 H         1 3R9         0.0984
     22 H9        -19.9596   25.0776   -2.2530 H         1 3R9         0.0438
     23 H10       -19.8088   26.6958   -3.0180 H         1 3R9         0.0438
     24 H11       -21.3055   26.2394   -0.2362 H         1 3R9         0.1019
@<TRIPOS>BOND
     1    3    1 ar 
     2    5    2 1  
     3    2    8 1  
     4    2   11 1  
     5    3    4 ar 
     6    3    5 1  
     7    5    6 1  
     8    6    7 1  
     9    7    8 1  
    10    8    9 1  
    11    9   10 1  
    12   10   11 1  
    13   11   12 1  
    14   12   13 1  
    15    2   14 1  
    16    5   15 1  
    17    6   16 1  
    18    6   17 1  
    19    8   18 1  
    20    9   19 1  
    21    9   20 1  
    22   11   21 1  
    23   12   22 1  
    24   12   23 1  
    25   13   24 1  
@<TRIPOS>SUBSTRUCTURE
     1 3R9         1

