### 
### Created by X-TOOL on Mon Sep 10 21:13:26 2018
### 

@<TRIPOS>MOLECULE
5evd_ligand
   30    31     1     0     0
SMALL
GAST_HUCK


@<TRIPOS>ATOM
      1 O         -17.3000   23.7570   -0.8950 O.co2     1 VC2        -0.5642
      2 C         -16.2590   24.4430   -0.6990 C.2       1 VC2         0.0860
      3 OXT       -15.2670   24.2310   -0.0150 O.co2     1 VC2        -0.5642
      4 CA        -16.2040   25.8010   -1.3800 C.3       1 VC2         0.0487
      5 N         -17.4000   26.0640   -2.1280 N.4       1 VC2         0.2701
      6 CB        -15.0340   25.7700   -2.3910 C.3       1 VC2         0.0707
      7 CG2       -13.6930   26.0350   -1.7950 C.3       1 VC2        -0.0437
      8 CG1       -14.9600   24.5650   -3.2390 C.3       1 VC2        -0.0437
      9 SAI       -15.4070   27.1540   -3.5400 S.3       1 VC2        -0.0939
     10 CAO       -17.1890   27.0310   -3.1500 C.3       1 VC2         0.0393
     11 CAG       -17.6190   28.3950   -2.7200 C.3       1 VC2         0.0518
     12 SAH       -18.2800   28.2380   -1.0890 S.3       1 VC2        -0.1011
     13 CAK       -18.5000   26.4500   -1.2620 C.3       1 VC2         0.0383
     14 CAF       -19.8330   26.2550   -1.9790 C.3       1 VC2         0.0437
     15 SAE       -21.2560   26.7900   -1.0070 S.3       1 VC2        -0.1717
     16 H1        -16.0496   26.5897   -0.6290 H         1 VC2         0.1040
     17 H2        -17.6626   25.2027   -2.5810 H         1 VC2         0.2075
     18 H3        -12.9268   25.9931   -2.5831 H         1 VC2         0.0246
     19 H4        -13.4747   25.2747   -1.0306 H         1 VC2         0.0246
     20 H5        -13.6883   27.0327   -1.3317 H         1 VC2         0.0246
     21 H6        -15.9477   24.3662   -3.6806 H         1 VC2         0.0246
     22 H7        -14.6520   23.7043   -2.6271 H         1 VC2         0.0246
     23 H8        -14.2252   24.7260   -4.0416 H         1 VC2         0.0246
     24 H9        -17.7510   26.7310   -4.0467 H         1 VC2         0.0984
     25 H10       -18.3889   28.7816   -3.4040 H         1 VC2         0.0443
     26 H11       -16.7571   29.0785   -2.7141 H         1 VC2         0.0443
     27 H12       -18.4768   25.9180   -0.2995 H         1 VC2         0.0984
     28 H13       -19.9511   25.1861   -2.2104 H         1 VC2         0.0438
     29 H14       -19.8132   26.8328   -2.9148 H         1 VC2         0.0438
     30 H15       -21.2933   26.2618   -0.1493 H         1 VC2         0.1019
@<TRIPOS>BOND
     1    1    2 ar 
     2    2    3 ar 
     3    2    4 1  
     4    4    5 1  
     5    4    6 1  
     6    5   10 1  
     7    5   13 1  
     8    6    7 1  
     9    6    8 1  
    10    6    9 1  
    11    9   10 1  
    12   10   11 1  
    13   11   12 1  
    14   12   13 1  
    15   13   14 1  
    16   14   15 1  
    17    4   16 1  
    18    5   17 1  
    19    7   18 1  
    20    7   19 1  
    21    7   20 1  
    22    8   21 1  
    23    8   22 1  
    24    8   23 1  
    25   10   24 1  
    26   11   25 1  
    27   11   26 1  
    28   13   27 1  
    29   14   28 1  
    30   14   29 1  
    31   15   30 1  
@<TRIPOS>SUBSTRUCTURE
     1 VC2         1

