### 
### Created by X-TOOL on Mon Sep 10 21:13:26 2018
### 

@<TRIPOS>MOLECULE
5evk_ligand
   24    25     1     0     0
SMALL
GAST_HUCK


@<TRIPOS>ATOM
      1 C12        81.5530   95.8080   16.8180 C.3       1 3C7         0.0540
      2 O11        82.4310   94.5620   19.0550 O.co2     1 3C7        -0.5642
      3 C09        83.3170   95.0840   18.3660 C.2       1 3C7         0.0854
      4 O10        84.4120   95.3810   18.7840 O.co2     1 3C7        -0.5642
      5 C08        83.0150   95.4950   16.9220 C.3       1 3C7         0.0435
      6 N07        83.4090   94.4260   15.9660 N.4       1 3C7         0.2697
      7 C03        83.9840   94.8720   14.6720 C.3       1 3C7         0.0383
      8 C02        85.4660   94.5860   14.6260 C.3       1 3C7         0.0437
      9 S01        86.2910   95.8520   15.5660 S.3       1 3C7        -0.1717
     10 S13        80.9700   94.6140   15.6610 S.3       1 3C7        -0.1001
     11 C06        82.3060   93.4810   15.7570 C.3       1 3C7         0.0388
     12 C05        82.7170   92.6290   14.5500 C.3       1 3C7         0.0518
     13 S04        83.2550   93.8730   13.4380 S.3       1 3C7        -0.1011
     14 H1         81.3936   96.8303   16.4445 H         1 3C7         0.0453
     15 H2         81.0539   95.6912   17.7913 H         1 3C7         0.0453
     16 H3         83.5903   96.4014   16.6822 H         1 3C7         0.1035
     17 H4         84.1452   93.9122   16.4243 H         1 3C7         0.2075
     18 H5         83.7848   95.9403   14.5018 H         1 3C7         0.0984
     19 H6         85.8187   94.6032   13.5842 H         1 3C7         0.0438
     20 H7         85.6709   93.5990   15.0663 H         1 3C7         0.0438
     21 H8         87.2850   95.6852   15.5521 H         1 3C7         0.1019
     22 H9         82.1532   92.8100   16.6151 H         1 3C7         0.0984
     23 H10        81.8648   92.0642   14.1441 H         1 3C7         0.0443
     24 H11        83.5305   91.9334   14.8036 H         1 3C7         0.0443
@<TRIPOS>BOND
     1    5    1 1  
     2    1   10 1  
     3    3    2 ar 
     4    3    4 ar 
     5    3    5 1  
     6    5    6 1  
     7    6    7 1  
     8    6   11 1  
     9    7    8 1  
    10    7   13 1  
    11    8    9 1  
    12   10   11 1  
    13   11   12 1  
    14   12   13 1  
    15    1   14 1  
    16    1   15 1  
    17    5   16 1  
    18    6   17 1  
    19    7   18 1  
    20    8   19 1  
    21    8   20 1  
    22    9   21 1  
    23   11   22 1  
    24   12   23 1  
    25   12   24 1  
@<TRIPOS>SUBSTRUCTURE
     1 3C7         1

