### 
### Created by X-TOOL on Mon Sep 10 21:13:25 2018
### 

@<TRIPOS>MOLECULE
5ew3_ligand
   43    45     1     0     0
SMALL
GAST_HUCK


@<TRIPOS>ATOM
      1 C1         17.1990   12.2780   12.8290 C.ar      1 5T2        -0.0693
      2 C2         16.0610   11.7210   13.4340 C.ar      1 5T2        -0.0691
      3 C3         16.0600   10.3730   13.8160 C.ar      1 5T2        -0.0380
      4 C11        22.0620    9.3980   12.2390 C.ar      1 5T2         0.0945
      5 C12        22.2670    8.2810   11.4040 C.ar      1 5T2        -0.0124
      6 C13        23.5680    7.7720   11.2180 C.ar      1 5T2         0.0335
      7 C14        24.6620    8.3700   11.8720 C.ar      1 5T2        -0.0451
      8 C15        24.4720    9.4860   12.6930 C.ar      1 5T2        -0.0433
      9 C16        23.1710    9.9770   12.8750 C.ar      1 5T2        -0.0112
     10 C17        16.0040    7.5220   14.5690 C.3       1 5T2         0.0662
     11 C18        14.8740    7.1600   13.5790 C.ar      1 5T2        -0.0015
     12 C19        15.0320    7.2820   12.1760 C.ar      1 5T2        -0.0305
     13 C20        13.9760    6.9350   11.3200 C.ar      1 5T2         0.0031
     14 C22        12.6150    6.3280   13.1940 C.ar      1 5T2         0.0031
     15 C23        13.6470    6.6710   14.0890 C.ar      1 5T2        -0.0305
     16 C24        23.7460    6.5270   10.3600 C.3       1 5T2         0.3727
     17 C4         17.1910    9.5420   13.6080 C.ar      1 5T2         0.0619
     18 C5         18.3390   10.1040   12.9620 C.ar      1 5T2         0.0731
     19 C6         18.3210   11.4690   12.5990 C.ar      1 5T2        -0.0529
     20 C7         19.6220    9.3210   12.6930 C.2       1 5T2         0.2244
     21 N8         17.1540    8.2210   13.9790 N.pl3     1 5T2        -0.3052
     22 N9         20.7900    9.9840   12.4730 N.am      1 5T2        -0.2297
     23 O10        19.5570    8.1040   12.6540 O.2       1 5T2        -0.3806
     24 N21        12.8070    6.4710   11.8500 N.ar      1 5T2        -0.3066
     25 F25        24.9960    6.3780    9.8700 F         1 5T2        -0.2209
     26 F26        23.5080    5.4500   11.1320 F         1 5T2        -0.2209
     27 F27        22.8600    6.5390    9.3480 F         1 5T2        -0.2209
     28 H1         17.2101   13.3234   12.5425 H         1 5T2         0.0519
     29 H2         15.1834   12.3337   13.6055 H         1 5T2         0.0619
     30 H3         15.1745    9.9553   14.2813 H         1 5T2         0.0528
     31 H4         21.4251    7.8141   10.9056 H         1 5T2         0.0711
     32 H5         25.6577    7.9629   11.7383 H         1 5T2         0.0741
     33 H6         25.3150    9.9629   13.1799 H         1 5T2         0.0664
     34 H7         23.0173   10.8295   13.5266 H         1 5T2         0.0759
     35 H8         16.3696    6.5894   15.0236 H         1 5T2         0.0706
     36 H9         15.5776    8.1683   15.3503 H         1 5T2         0.0706
     37 H10        15.9677    7.6430   11.7647 H         1 5T2         0.0652
     38 H11        14.0876    7.0346   10.2464 H         1 5T2         0.0803
     39 H12        11.6710    5.9516   13.5713 H         1 5T2         0.0803
     40 H13        13.5033    6.5617   15.1579 H         1 5T2         0.0652
     41 H14        19.1972   11.9023   12.1305 H         1 5T2         0.0634
     42 H15        18.0109    7.6691   13.8302 H         1 5T2         0.1811
     43 H16        20.7482   10.9831   12.4765 H         1 5T2         0.2250
@<TRIPOS>BOND
     1    1    2 ar 
     2   19    1 ar 
     3    3    2 ar 
     4   17    3 ar 
     5    4    5 ar 
     6    4    9 ar 
     7   22    4 1  
     8    5    6 ar 
     9    6    7 ar 
    10    6   16 1  
    11    8    7 ar 
    12    9    8 ar 
    13   10   11 1  
    14   21   10 1  
    15   11   12 ar 
    16   11   15 ar 
    17   12   13 ar 
    18   13   24 ar 
    19   15   14 ar 
    20   14   24 ar 
    21   16   25 1  
    22   16   26 1  
    23   16   27 1  
    24   18   17 ar 
    25   17   21 1  
    26   18   19 ar 
    27   20   18 1  
    28   20   22 am 
    29   20   23 2  
    30    1   28 1  
    31    2   29 1  
    32    3   30 1  
    33    5   31 1  
    34    7   32 1  
    35    8   33 1  
    36    9   34 1  
    37   10   35 1  
    38   10   36 1  
    39   12   37 1  
    40   13   38 1  
    41   14   39 1  
    42   15   40 1  
    43   19   41 1  
    44   21   42 1  
    45   22   43 1  
@<TRIPOS>SUBSTRUCTURE
     1 5T2         1

