### 
### Created by X-TOOL on Mon Sep 10 21:13:28 2018
### 

@<TRIPOS>MOLECULE
5ew9_ligand
   51    54     1     0     0
SMALL
GAST_HUCK


@<TRIPOS>ATOM
      1 C13       -15.7450   11.5850   17.7900 C.ar      1 5VC         0.1318
      2 C14       -16.8250   10.8860   18.3440 C.ar      1 5VC        -0.0175
      3 C15       -16.5920   10.0120   19.3850 C.ar      1 5VC        -0.0593
      4 C16       -15.2820    9.8800   19.8360 C.ar      1 5VC        -0.0455
      5 C11       -14.2580   10.6090   19.2380 C.ar      1 5VC         0.0150
      6 C21       -14.2820   14.7400   14.6160 C.2       1 5VC        -0.0394
      7 C27        -8.9970   11.4400   12.8780 C.ar      1 5VC        -0.0608
      8 O23        -9.3120   11.1010   17.0190 O.3       1 5VC        -0.3146
      9 C24        -9.2100   11.1500   15.6540 C.ar      1 5VC         0.1255
     10 C25        -9.4280   12.3640   15.0440 C.ar      1 5VC         0.1735
     11 C26        -9.3290   12.5280   13.6840 C.ar      1 5VC         0.0650
     12 C18       -15.0860   13.2820   16.0470 C.2       1 5VC         0.2019
     13 N22       -15.4040   14.0940   15.0740 N.2       1 5VC        -0.3151
     14 S19       -13.4140   13.2260   16.4990 S.3       1 5VC         0.0153
     15 C20       -13.1130   14.4030   15.2490 C.2       1 5VC        -0.0029
     16 N17       -16.0630   12.4680   16.7080 N.pl3     1 5VC        -0.2239
     17 C10       -12.8510   10.4320   19.7460 C.3       1 5VC         0.0034
     18 C1        -12.2430    9.1060   19.2420 C.3       1 5VC         0.0277
     19 C7        -12.9620    7.9070   19.7810 C.2       1 5VC         0.0531
     20 O8        -12.7250    7.5740   20.9840 O.co2     1 5VC        -0.5473
     21 O9        -13.7660    7.2860   19.0060 O.co2     1 5VC        -0.5473
     22 C2        -10.7850    8.9810   19.6920 C.3       1 5VC        -0.0381
     23 C3         -9.9430   10.0900   19.0710 C.3       1 5VC        -0.0222
     24 C4        -10.0150    9.9900   17.5390 C.3       1 5VC         0.0803
     25 F30        -9.7570   13.4340   15.7810 F         1 5VC        -0.1894
     26 CL3        -9.6490   14.1170   13.0620 Cl        1 5VC        -0.0752
     27 C28        -8.7810   10.2050   13.5060 C.ar      1 5VC        -0.0741
     28 C29        -8.8770   10.0310   14.8910 C.ar      1 5VC        -0.0345
     29 C5        -11.4760   10.1560   17.1070 C.3       1 5VC        -0.0222
     30 C6        -12.3260    9.0450   17.7160 C.3       1 5VC        -0.0381
     31 N12       -14.4910   11.4500   18.2250 N.ar      1 5VC        -0.2808
     32 H1        -17.8286   11.0298   17.9604 H         1 5VC         0.0570
     33 H2        -17.4004    9.4479   19.8359 H         1 5VC         0.0683
     34 H3        -15.0583    9.2071   20.6559 H         1 5VC         0.0547
     35 H4        -14.3180   15.4684   13.8073 H         1 5VC         0.0512
     36 H5         -8.9089   11.5451   11.8027 H         1 5VC         0.0519
     37 H6        -12.1341   14.8131   15.0050 H         1 5VC         0.0610
     38 H7        -17.0411   12.5205   16.3896 H         1 5VC         0.2250
     39 H8        -12.8638   10.4266   20.8459 H         1 5VC         0.0450
     40 H9        -12.2324   11.2692   19.3906 H         1 5VC         0.0450
     41 H10       -10.3898    8.0046   19.3751 H         1 5VC         0.0265
     42 H11       -10.7356    9.0584   20.7881 H         1 5VC         0.0265
     43 H12        -8.8978    9.9832   19.3968 H         1 5VC         0.0293
     44 H13       -10.3294   11.0682   19.3933 H         1 5VC         0.0293
     45 H14        -9.5959    9.0384   17.1801 H         1 5VC         0.0648
     46 H15        -8.5287    9.3481   12.8919 H         1 5VC         0.0555
     47 H16        -8.6998    9.0661   15.3521 H         1 5VC         0.0532
     48 H17       -11.5403   10.1049   16.0101 H         1 5VC         0.0293
     49 H18       -11.8497   11.1316   17.4512 H         1 5VC         0.0293
     50 H19       -13.3725    9.1721   17.4019 H         1 5VC         0.0265
     51 H20       -11.9549    8.0694   17.3688 H         1 5VC         0.0265
@<TRIPOS>BOND
     1    1    2 ar 
     2    1   16 1  
     3   31    1 ar 
     4    3    2 ar 
     5    4    3 ar 
     6    5    4 ar 
     7   17    5 1  
     8    5   31 ar 
     9   13    6 1  
    10   15    6 2  
    11   11    7 ar 
    12    7   27 ar 
    13    8    9 1  
    14   24    8 1  
    15    9   10 ar 
    16    9   28 ar 
    17   10   11 ar 
    18   10   25 1  
    19   11   26 1  
    20   12   13 2  
    21   12   14 1  
    22   16   12 1  
    23   14   15 1  
    24   18   17 1  
    25   18   19 1  
    26   22   18 1  
    27   18   30 1  
    28   19   20 ar 
    29   19   21 ar 
    30   23   22 1  
    31   23   24 1  
    32   24   29 1  
    33   27   28 ar 
    34   29   30 1  
    35    2   32 1  
    36    3   33 1  
    37    4   34 1  
    38    6   35 1  
    39    7   36 1  
    40   15   37 1  
    41   16   38 1  
    42   17   39 1  
    43   17   40 1  
    44   22   41 1  
    45   22   42 1  
    46   23   43 1  
    47   23   44 1  
    48   24   45 1  
    49   27   46 1  
    50   28   47 1  
    51   29   48 1  
    52   29   49 1  
    53   30   50 1  
    54   30   51 1  
@<TRIPOS>SUBSTRUCTURE
     1 5VC         1

