### 
### Created by X-TOOL on Mon Sep 10 21:13:28 2018
### 

@<TRIPOS>MOLECULE
5ewa_ligand
   30    31     1     0     0
SMALL
GAST_HUCK


@<TRIPOS>ATOM
      1 O11         6.4840   -3.3280  -43.1810 O.co2     1 9BZ        -0.5642
      2 C09         5.6140   -3.7090  -42.3710 C.2       1 9BZ         0.0860
      3 O10         5.2290   -2.9920  -41.4200 O.co2     1 9BZ        -0.5642
      4 C08         5.0380   -5.0830  -42.5960 C.3       1 9BZ         0.0487
      5 N07         4.6930   -5.8740  -41.4020 N.4       1 9BZ         0.2701
      6 C03         5.6880   -6.2420  -40.4600 C.3       1 9BZ         0.0383
      7 C02         5.4360   -5.1720  -39.3840 C.3       1 9BZ         0.0437
      8 S01         5.7580   -5.8390  -37.7600 S.3       1 9BZ        -0.1717
      9 S04         5.2030   -7.8880  -40.0860 S.3       1 9BZ        -0.1011
     10 C05         3.5970   -7.8740  -40.7830 C.3       1 9BZ         0.0518
     11 C06         3.3640   -6.4090  -41.1790 C.3       1 9BZ         0.0393
     12 S13         2.6270   -6.1640  -42.7510 S.3       1 9BZ        -0.0939
     13 C12         3.7970   -5.0440  -43.4860 C.3       1 9BZ         0.0707
     14 C15         3.1910   -3.6280  -43.5200 C.3       1 9BZ        -0.0437
     15 C14         4.2640   -5.4800  -44.8840 C.3       1 9BZ        -0.0437
     16 H1          5.8154   -5.6470  -43.1323 H         1 9BZ         0.1040
     17 H2          4.4716   -5.0331  -40.8922 H         1 9BZ         0.2075
     18 H3          6.7217   -6.2043  -40.8341 H         1 9BZ         0.0984
     19 H4          4.3883   -4.8414  -39.4393 H         1 9BZ         0.0438
     20 H5          6.1011   -4.3142  -39.5624 H         1 9BZ         0.0438
     21 H6          6.7183   -6.1408  -37.7063 H         1 9BZ         0.1019
     22 H7          2.8497   -8.2010  -40.0450 H         1 9BZ         0.0443
     23 H8          3.5505   -8.5278  -41.6664 H         1 9BZ         0.0443
     24 H9          2.8057   -5.8808  -40.3920 H         1 9BZ         0.0984
     25 H10         2.3006   -3.6257  -44.1659 H         1 9BZ         0.0246
     26 H11         3.9339   -2.9206  -43.9172 H         1 9BZ         0.0246
     27 H12         2.9057   -3.3267  -42.5013 H         1 9BZ         0.0246
     28 H13         3.4085   -5.4720  -45.5754 H         1 9BZ         0.0246
     29 H14         4.6827   -6.4958  -44.8305 H         1 9BZ         0.0246
     30 H15         5.0349   -4.7842  -45.2466 H         1 9BZ         0.0246
@<TRIPOS>BOND
     1    1    2 ar 
     2    2    3 ar 
     3    2    4 1  
     4    4    5 1  
     5    4   13 1  
     6    5    6 1  
     7    5   11 1  
     8    6    7 1  
     9    6    9 1  
    10    7    8 1  
    11    9   10 1  
    12   10   11 1  
    13   11   12 1  
    14   12   13 1  
    15   13   14 1  
    16   13   15 1  
    17    4   16 1  
    18    5   17 1  
    19    6   18 1  
    20    7   19 1  
    21    7   20 1  
    22    8   21 1  
    23   10   22 1  
    24   10   23 1  
    25   11   24 1  
    26   14   25 1  
    27   14   26 1  
    28   14   27 1  
    29   15   28 1  
    30   15   29 1  
    31   15   30 1  
@<TRIPOS>SUBSTRUCTURE
     1 9BZ         1

