### 
### Created by X-TOOL on Mon Sep 10 21:13:28 2018
### 

@<TRIPOS>MOLECULE
5ewd_ligand
   21    22     1     0     0
SMALL
GAST_HUCK


@<TRIPOS>ATOM
      1 CAF         8.8630  -10.1590    6.4510 C.ar      1 5SH        -0.0511
      2 CAB         8.9170   -9.3250    7.5640 C.ar      1 5SH        -0.0594
      3 CAA         8.0520   -8.2400    7.6610 C.ar      1 5SH        -0.0601
      4 CAC         7.1320   -7.9900    6.6490 C.ar      1 5SH        -0.0594
      5 CAG         7.0770   -8.8270    5.5390 C.ar      1 5SH        -0.0511
      6 CAK         7.9410   -9.9140    5.4380 C.ar      1 5SH        -0.0089
      7 CAL         7.8860  -10.7480    4.3220 C.ar      1 5SH         0.0009
      8 CAH         9.0530  -11.3280    3.8350 C.ar      1 5SH        -0.0272
      9 CAD         9.0130  -12.1500    2.7200 C.ar      1 5SH         0.0102
     10 NAJ         7.7920  -12.4100    2.0800 N.ar      1 5SH        -0.2988
     11 CAE         6.6190  -11.8240    2.5700 C.ar      1 5SH         0.0102
     12 CAI         6.6720  -10.9940    3.6860 C.ar      1 5SH        -0.0272
     13 H1          9.5408  -11.0014    6.3731 H         1 5SH         0.0639
     14 H2          9.6325   -9.5208    8.3545 H         1 5SH         0.0622
     15 H3          8.0952   -7.5887    8.5265 H         1 5SH         0.0631
     16 H4          6.4584   -7.1440    6.7247 H         1 5SH         0.0622
     17 H5          6.3592   -8.6322    4.7504 H         1 5SH         0.0639
     18 H6          9.9981  -11.1360    4.3300 H         1 5SH         0.0712
     19 H7          9.9271  -12.5930    2.3416 H         1 5SH         0.0820
     20 H8          5.6708  -12.0163    2.0810 H         1 5SH         0.0820
     21 H9          5.7638  -10.5369    4.0619 H         1 5SH         0.0712
@<TRIPOS>BOND
     1    1    2 ar 
     2    1    6 ar 
     3    2    3 ar 
     4    3    4 ar 
     5    4    5 ar 
     6    5    6 ar 
     7    6    7 1  
     8    7    8 ar 
     9    7   12 ar 
    10    8    9 ar 
    11    9   10 ar 
    12   10   11 ar 
    13   11   12 ar 
    14    1   13 1  
    15    2   14 1  
    16    3   15 1  
    17    4   16 1  
    18    5   17 1  
    19    8   18 1  
    20    9   19 1  
    21   11   20 1  
    22   12   21 1  
@<TRIPOS>SUBSTRUCTURE
     1 5SH         1

