### 
### Created by X-TOOL on Mon Sep 10 21:13:28 2018
### 

@<TRIPOS>MOLECULE
5ewh_ligand
   18    19     1     0     0
SMALL
GAST_HUCK


@<TRIPOS>ATOM
      1 CAD         8.9440  -10.9260    6.3410 C.ar      1 5SG        -0.0285
      2 CAB         9.9030  -11.8280    5.8870 C.ar      1 5SG        -0.0686
      3 CAE         9.7330  -12.4660    4.6600 C.ar      1 5SG        -0.0598
      4 CAJ         8.6090  -12.2000    3.8890 C.ar      1 5SG         0.0009
      5 CAG         8.4470  -12.8380    2.6690 C.ar      1 5SG         0.0152
      6 NAH         7.3180  -12.5830    1.8910 N.ar      1 5SG        -0.3006
      7 CAC         6.3550  -11.6730    2.3490 C.ar      1 5SG         0.0054
      8 CAF         6.5230  -11.0340    3.5700 C.ar      1 5SG        -0.0303
      9 CAK         7.6480  -11.3000    4.3380 C.ar      1 5SG         0.0331
     10 CAI         7.8220  -10.6690    5.5610 C.ar      1 5SG         0.1085
     11 OAA         6.8450   -9.7990    5.9430 O.3       1 5SG        -0.3260
     12 H1          9.0713  -10.4280    7.2954 H         1 5SG         0.0535
     13 H2         10.7814  -12.0337    6.4880 H         1 5SG         0.0607
     14 H3         10.4781  -13.1699    4.3073 H         1 5SG         0.0527
     15 H4          9.1989  -13.5361    2.3192 H         1 5SG         0.0845
     16 H5          5.4765  -11.4677    1.7480 H         1 5SG         0.0749
     17 H6          5.7781  -10.3297    3.9223 H         1 5SG         0.0722
     18 H7          7.0660   -9.4280    6.7892 H         1 5SG         0.2521
@<TRIPOS>BOND
     1    1    2 ar 
     2    1   10 ar 
     3    2    3 ar 
     4    3    4 ar 
     5    4    5 ar 
     6    4    9 ar 
     7    5    6 ar 
     8    6    7 ar 
     9    7    8 ar 
    10    8    9 ar 
    11    9   10 ar 
    12   10   11 1  
    13    1   12 1  
    14    2   13 1  
    15    3   14 1  
    16    5   15 1  
    17    7   16 1  
    18    8   17 1  
    19   11   18 1  
@<TRIPOS>SUBSTRUCTURE
     1 5SG         1

