### 
### Created by X-TOOL on Mon Sep 10 21:13:27 2018
### 

@<TRIPOS>MOLECULE
5ewj_ligand
   52    54     1     0     0
SMALL
GAST_HUCK


@<TRIPOS>ATOM
      1 C1         80.2790    1.0070  -32.3670 C.ar      1 QEL        -0.0687
      2 N1         85.8880    6.5160  -32.0490 N.4       1 QEL         0.2403
      3 O1         85.6360    9.4850  -32.8330 O.3       1 QEL        -0.3754
      4 C2         90.0250   10.2150  -30.8360 C.ar      1 QEL        -0.0397
      5 O2         91.5580   11.7410  -31.8950 O.3       1 QEL        -0.3376
      6 C3         89.4340   11.3410  -32.8730 C.ar      1 QEL        -0.0397
      7 C4         82.2790    2.6020  -31.2350 C.ar      1 QEL        -0.0428
      8 C5         81.0890    3.1620  -31.7040 C.ar      1 QEL        -0.0603
      9 C6         80.0950    2.3690  -32.2590 C.ar      1 QEL        -0.0686
     10 C7         83.2600    3.4320  -30.4400 C.3       1 QEL        -0.0160
     11 C8         84.3830    4.0830  -31.2590 C.3       1 QEL        -0.0217
     12 C9         83.8480    5.0830  -32.2930 C.3       1 QEL        -0.0077
     13 C01        81.4770    0.4380  -31.9420 C.ar      1 QEL        -0.0686
     14 C02        82.4670    1.2310  -31.3800 C.ar      1 QEL        -0.0603
     15 C10        84.9720    5.8510  -33.0080 C.3       1 QEL        -0.0310
     16 C11        86.4670    5.5340  -31.1210 C.3       1 QEL        -0.0310
     17 C12        85.3890    4.7810  -30.3470 C.3       1 QEL        -0.0077
     18 C13        86.9360    7.4540  -32.5010 C.3       1 QEL         0.0111
     19 C14        86.6480    8.8880  -32.0110 C.3       1 QEL         0.1264
     20 C15        87.9130    9.7260  -31.9090 C.ar      1 QEL        -0.0201
     21 C16        88.8210    9.5290  -30.8720 C.ar      1 QEL        -0.0661
     22 C18        90.3420   11.1150  -31.8490 C.ar      1 QEL         0.0805
     23 C19        88.2360   10.6520  -32.8970 C.ar      1 QEL        -0.0661
     24 C24        87.1940    7.4020  -33.9990 C.3       1 QEL        -0.0174
     25 H1         79.4955    0.3823  -32.7805 H         1 QEL         0.0559
     26 H2         85.2737    7.0920  -31.4951 H         1 QEL         0.2038
     27 H3         85.9372    9.5137  -33.7335 H         1 QEL         0.2129
     28 H4         90.7189   10.0506  -30.0196 H         1 QEL         0.0525
     29 H5         91.6795   12.2530  -31.1040 H         1 QEL         0.2458
     30 H6         89.6637   12.0572  -33.6536 H         1 QEL         0.0525
     31 H7         80.9394    4.2333  -31.6334 H         1 QEL         0.0557
     32 H8         79.1733    2.8205  -32.6078 H         1 QEL         0.0599
     33 H9         83.7240    2.7797  -29.6855 H         1 QEL         0.0429
     34 H10        82.6983    4.2328  -29.9369 H         1 QEL         0.0429
     35 H11        84.9077    3.2827  -31.8014 H         1 QEL         0.0326
     36 H12        83.1978    5.8068  -31.7798 H         1 QEL         0.0321
     37 H13        83.2630    4.5334  -33.0451 H         1 QEL         0.0321
     38 H14        81.6366   -0.6287  -32.0507 H         1 QEL         0.0599
     39 H15        83.3954    0.7784  -31.0509 H         1 QEL         0.0557
     40 H16        85.5511    5.1442  -33.6204 H         1 QEL         0.0815
     41 H17        84.5218    6.6159  -33.6578 H         1 QEL         0.0815
     42 H18        87.1168    6.0599  -30.4060 H         1 QEL         0.0815
     43 H19        87.0639    4.8103  -31.6954 H         1 QEL         0.0815
     44 H20        85.8750    4.0232  -29.7150 H         1 QEL         0.0321
     45 H21        84.8484    5.4972  -29.7107 H         1 QEL         0.0321
     46 H22        87.8703    7.1348  -32.0161 H         1 QEL         0.0896
     47 H23        86.2370    8.8117  -30.9936 H         1 QEL         0.0793
     48 H24        88.5826    8.8280  -30.0802 H         1 QEL         0.0531
     49 H25        87.5335   10.8365  -33.7017 H         1 QEL         0.0531
     50 H26        87.9821    8.1234  -34.2606 H         1 QEL         0.0287
     51 H27        86.2702    7.6564  -34.5392 H         1 QEL         0.0287
     52 H28        87.5163    6.3887  -34.2806 H         1 QEL         0.0287
@<TRIPOS>BOND
     1    9    1 ar 
     2   13    1 ar 
     3    2   15 1  
     4    2   16 1  
     5   18    2 1  
     6   19    3 1  
     7   21    4 ar 
     8    4   22 ar 
     9   22    5 1  
    10   22    6 ar 
    11    6   23 ar 
    12    7    8 ar 
    13   10    7 1  
    14    7   14 ar 
    15    8    9 ar 
    16   11   10 1  
    17   12   11 1  
    18   17   11 1  
    19   15   12 1  
    20   14   13 ar 
    21   16   17 1  
    22   19   18 1  
    23   18   24 1  
    24   20   19 1  
    25   20   21 ar 
    26   20   23 ar 
    27    1   25 1  
    28    2   26 1  
    29    3   27 1  
    30    4   28 1  
    31    5   29 1  
    32    6   30 1  
    33    8   31 1  
    34    9   32 1  
    35   10   33 1  
    36   10   34 1  
    37   11   35 1  
    38   12   36 1  
    39   12   37 1  
    40   13   38 1  
    41   14   39 1  
    42   15   40 1  
    43   15   41 1  
    44   16   42 1  
    45   16   43 1  
    46   17   44 1  
    47   17   45 1  
    48   18   46 1  
    49   19   47 1  
    50   21   48 1  
    51   23   49 1  
    52   24   50 1  
    53   24   51 1  
    54   24   52 1  
@<TRIPOS>SUBSTRUCTURE
     1 QEL         1

