### 
### Created by X-TOOL on Mon Sep 10 21:13:26 2018
### 

@<TRIPOS>MOLECULE
5ewk_ligand
   40    42     1     0     0
SMALL
GAST_HUCK


@<TRIPOS>ATOM
      1 CAA        19.4990   30.8870   17.5580 C.3       1 P34        -0.0415
      2 N          19.0900   30.9140   18.9580 N.4       1 P34         0.2481
      3 CAB        19.1690   29.5760   19.4750 C.3       1 P34        -0.0415
      4 CA         19.9820   31.7590   19.7190 C.3       1 P34         0.0626
      5 C          19.4940   32.5650   20.9440 C.2       1 P34         0.2455
      6 O          18.2850   32.7560   21.1270 O.2       1 P34        -0.3808
      7 NAM        20.4580   33.0950   21.7690 N.am      1 P34        -0.2372
      8 CAP        21.8460   32.8700   21.5760 C.ar      1 P34         0.0545
      9 CAK        22.7340   33.9310   21.3760 C.ar      1 P34        -0.0434
     10 CAU        24.1050   33.6250   21.1660 C.ar      1 P34        -0.0020
     11 CAT        25.1520   34.6360   20.9560 C.ar      1 P34        -0.0079
     12 CAI        24.8690   36.0000   20.9190 C.ar      1 P34        -0.0530
     13 CAF        25.8840   36.9120   20.7220 C.ar      1 P34        -0.0599
     14 CAE        27.2030   36.4960   20.4980 C.ar      1 P34        -0.0588
     15 CAH        27.4930   35.1280   20.5210 C.ar      1 P34        -0.0442
     16 CAS        26.4770   34.2120   20.7360 C.ar      1 P34         0.0572
     17 CAQ        26.8550   32.7970   20.7950 C.2       1 P34         0.2237
     18 OAD        28.0080   32.3900   20.6190 O.2       1 P34        -0.3870
     19 NAN        25.8590   31.9060   20.9930 N.am      1 P34        -0.2368
     20 CAR        24.5030   32.2920   21.1920 C.ar      1 P34         0.0685
     21 CAJ        23.5940   31.2490   21.3890 C.ar      1 P34        -0.0471
     22 CAG        22.2880   31.5670   21.6050 C.ar      1 P34        -0.0498
     23 H1         18.8141   30.2417   16.9883 H         1 P34         0.0778
     24 H2         20.5228   30.4919   17.4826 H         1 P34         0.0778
     25 H3         19.4684   31.9070   17.1473 H         1 P34         0.0778
     26 H4         18.1462   31.2599   19.0327 H         1 P34         0.2047
     27 H5         18.8643   29.5728   20.5319 H         1 P34         0.0778
     28 H6         20.2031   29.2107   19.3905 H         1 P34         0.0778
     29 H7         18.5001   28.9201   18.8986 H         1 P34         0.0778
     30 H8         20.3918   32.4932   19.0098 H         1 P34         0.1067
     31 H9         20.7910   31.1073   20.0806 H         1 P34         0.1067
     32 H10        20.1684   33.6639   22.5387 H         1 P34         0.2212
     33 H11        22.3862   34.9577   21.3810 H         1 P34         0.0468
     34 H12        23.8490   36.3446   21.0453 H         1 P34         0.0613
     35 H13        25.6571   37.9718   20.7408 H         1 P34         0.0643
     36 H14        27.9855   37.2222   20.3100 H         1 P34         0.0608
     37 H15        28.5105   34.7856   20.3709 H         1 P34         0.0661
     38 H16        26.0842   30.9317   21.0001 H         1 P34         0.2277
     39 H17        23.9198   30.2153   21.3703 H         1 P34         0.0486
     40 H18        21.5776   30.7730   21.8051 H         1 P34         0.0494
@<TRIPOS>BOND
     1    1    2 1  
     2    2    3 1  
     3    2    4 1  
     4    4    5 1  
     5    5    6 2  
     6    5    7 am 
     7    7    8 1  
     8    8    9 ar 
     9    8   22 ar 
    10    9   10 ar 
    11   10   11 1  
    12   10   20 ar 
    13   11   12 ar 
    14   11   16 ar 
    15   12   13 ar 
    16   13   14 ar 
    17   14   15 ar 
    18   15   16 ar 
    19   16   17 1  
    20   17   18 2  
    21   17   19 am 
    22   19   20 1  
    23   20   21 ar 
    24   21   22 ar 
    25    1   23 1  
    26    1   24 1  
    27    1   25 1  
    28    2   26 1  
    29    3   27 1  
    30    3   28 1  
    31    3   29 1  
    32    4   30 1  
    33    4   31 1  
    34    7   32 1  
    35    9   33 1  
    36   12   34 1  
    37   13   35 1  
    38   14   36 1  
    39   15   37 1  
    40   19   38 1  
    41   21   39 1  
    42   22   40 1  
@<TRIPOS>SUBSTRUCTURE
     1 P34         1

