### 
### Created by X-TOOL on Mon Sep 10 21:13:27 2018
### 

@<TRIPOS>MOLECULE
5ewm_ligand
   36    38     1     0     0
SMALL
GAST_HUCK


@<TRIPOS>ATOM
      1 N3         78.8000    6.8880  -32.8320 N.ar      1 5SM        -0.2447
      2 C4         80.2790   10.8180  -34.2510 C.2       1 5SM         0.0309
      3 N2         81.2600   10.1780  -33.5190 N.pl3     1 5SM        -0.2337
      4 C7         81.5010    6.5210  -32.9140 C.ar      1 5SM         0.0022
      5 C6         80.9110    7.7160  -33.2800 C.ar      1 5SM         0.0728
      6 C9         79.3310    5.7090  -32.4940 C.ar      1 5SM         0.0464
      7 C13        82.4260    1.7770  -31.2910 C.ar      1 5SM         0.1438
      8 C8         80.7020    5.4540  -32.5290 C.ar      1 5SM         0.0325
      9 C16        80.3470    0.4800  -32.0010 C.3       1 5SM         0.2761
     10 C1         82.6840   10.7370  -31.5250 C.3       1 5SM         0.0119
     11 C2         81.6100   11.0310  -32.4960 C.2       1 5SM         0.1134
     12 N1         80.9020   12.1470  -32.5370 N.2       1 5SM        -0.3390
     13 C3         80.0740   12.0090  -33.6430 C.2       1 5SM        -0.0363
     14 C5         81.7730    8.8350  -33.8180 C.3       1 5SM         0.1141
     15 N4         79.5980    7.8900  -33.2330 N.ar      1 5SM        -0.2546
     16 C10        81.2930    4.1800  -32.0440 C.ar      1 5SM        -0.0085
     17 C11        82.5970    4.1230  -31.5570 C.ar      1 5SM        -0.0558
     18 C12        83.1570    2.9270  -31.1470 C.ar      1 5SM        -0.0290
     19 C14        81.1460    1.7500  -31.8200 C.ar      1 5SM         0.0607
     20 C15        80.5910    2.9800  -32.1730 C.ar      1 5SM        -0.0426
     21 F1         79.7020    0.2480  -30.8310 F         1 5SM        -0.1943
     22 F2         79.3410    0.6440  -32.9010 F         1 5SM        -0.1943
     23 F3         82.9760    0.6130  -30.8670 F         1 5SM        -0.1844
     24 H1         79.7729   10.4402  -35.1382 H         1 5SM         0.0798
     25 H2         82.5800    6.4181  -32.9276 H         1 5SM         0.0794
     26 H3         78.6654    4.9140  -32.1780 H         1 5SM         0.1067
     27 H4         81.0046   -0.3544  -32.2861 H         1 5SM         0.1180
     28 H5         82.7699   11.5688  -30.8104 H         1 5SM         0.0462
     29 H6         83.6374   10.6127  -32.0593 H         1 5SM         0.0462
     30 H7         82.4443    9.8107  -30.9823 H         1 5SM         0.0462
     31 H8         79.3569   12.7579  -33.9759 H         1 5SM         0.0408
     32 H9         82.7765    8.7415  -33.3773 H         1 5SM         0.0859
     33 H10        81.8406    8.7254  -34.9104 H         1 5SM         0.0859
     34 H11        83.1834    5.0328  -31.4984 H         1 5SM         0.0592
     35 H12        84.1533    2.8998  -30.7207 H         1 5SM         0.0600
     36 H13        79.5792    3.0051  -32.5611 H         1 5SM         0.0582
@<TRIPOS>BOND
     1    6    1 ar 
     2    1   15 ar 
     3    3    2 1  
     4    2   13 2  
     5    3   11 1  
     6   14    3 1  
     7    4    5 ar 
     8    8    4 ar 
     9    5   14 1  
    10    5   15 ar 
    11    8    6 ar 
    12   18    7 ar 
    13    7   19 ar 
    14    7   23 1  
    15   16    8 1  
    16   19    9 1  
    17    9   21 1  
    18    9   22 1  
    19   11   10 1  
    20   11   12 2  
    21   12   13 1  
    22   17   16 ar 
    23   16   20 ar 
    24   17   18 ar 
    25   19   20 ar 
    26    2   24 1  
    27    4   25 1  
    28    6   26 1  
    29    9   27 1  
    30   10   28 1  
    31   10   29 1  
    32   10   30 1  
    33   13   31 1  
    34   14   32 1  
    35   14   33 1  
    36   17   34 1  
    37   18   35 1  
    38   20   36 1  
@<TRIPOS>SUBSTRUCTURE
     1 5SM         1

