### 
### Created by X-TOOL on Mon Sep 10 21:13:28 2018
### 

@<TRIPOS>MOLECULE
5exl_ligand
   67    71     1     0     0
SMALL
GAST_HUCK


@<TRIPOS>ATOM
      1 C13        44.3590  -21.1760   30.1780 C.ar      1 5SS        -0.0204
      2 C18        48.0070  -21.0460   31.2830 C.2       1 5SS         0.1628
      3 C17        41.2160  -20.5930   28.2780 C.ar      1 5SS         0.0519
      4 C16        46.1790  -22.0420   32.0920 C.ar      1 5SS         0.0861
      5 C15        39.8760  -23.2110   28.4400 C.ar      1 5SS        -0.0386
      6 C19        38.8540  -18.3630   28.7860 C.2       1 5SS         0.1815
      7 C20        36.9790  -16.8130   29.3060 C.3       1 5SS        -0.0328
      8 C21        38.7060  -16.1340   27.5340 C.3       1 5SS        -0.0328
      9 C22        36.0560  -15.6870   28.8370 C.3       1 5SS        -0.0431
     10 C23        37.7440  -15.0240   27.0770 C.3       1 5SS        -0.0431
     11 C24        37.9510  -17.2920   28.2170 C.3       1 5SS         0.0488
     12 C11        43.0110  -20.3320   26.8140 C.ar      1 5SS        -0.0001
     13 C12        46.6260  -21.2270   31.0380 C.ar      1 5SS         0.0479
     14 C27        35.9540  -13.3570   27.8640 C.3       1 5SS        -0.0325
     15 C1         41.3420  -25.2990   29.5890 C.ar      1 5SS        -0.0687
     16 C2         41.5360  -24.9550   28.2430 C.ar      1 5SS        -0.0686
     17 C3         40.4240  -24.5930   30.3660 C.ar      1 5SS        -0.0686
     18 C4         43.9390  -22.0280   31.2220 C.ar      1 5SS        -0.0599
     19 C5         40.8100  -23.9060   27.6650 C.ar      1 5SS        -0.0601
     20 C6         39.7050  -23.5430   29.7900 C.ar      1 5SS        -0.0601
     21 C7         44.8400  -22.4760   32.2040 C.ar      1 5SS        -0.0341
     22 C8         43.9280  -20.5830   27.8280 C.ar      1 5SS        -0.0373
     23 C9         45.7070  -20.7820   30.0640 C.ar      1 5SS        -0.0490
     24 C10        42.0550  -20.8950   29.3400 C.ar      1 5SS        -0.0267
     25 C14        43.4330  -20.8320   29.1170 C.ar      1 5SS        -0.0130
     26 C25        36.8700  -14.5220   28.2470 C.3       1 5SS        -0.0006
     27 C26        39.1510  -22.0050   27.8640 C.3       1 5SS         0.0160
     28 C28        39.7100  -20.6920   28.4830 C.3       1 5SS         0.0994
     29 N29        41.6660  -20.3490   27.0160 N.ar      1 5SS        -0.2998
     30 N30        48.4130  -21.7110   32.3740 N.2       1 5SS        -0.1978
     31 N31        47.2980  -22.3000   32.8490 N.pl3     1 5SS        -0.2275
     32 N32        36.7300  -12.3020   27.2980 N.4       1 5SS         0.2187
     33 N33        38.9370  -19.5360   28.0480 N.am      1 5SS        -0.2684
     34 O34        39.4180  -18.1760   29.8570 O.2       1 5SS        -0.3966
     35 O35        48.8870  -20.2890   30.5930 O.3       1 5SS        -0.3256
     36 H1         36.3588  -17.6653   29.6205 H         1 5SS         0.0292
     37 H2         37.5655  -16.4503   30.1630 H         1 5SS         0.0292
     38 H3         39.4287  -15.7095   28.2464 H         1 5SS         0.0292
     39 H4         39.2423  -16.5254   26.6570 H         1 5SS         0.0292
     40 H5         35.4707  -15.3205   29.6932 H         1 5SS         0.0271
     41 H6         35.3743  -16.0769   28.0667 H         1 5SS         0.0271
     42 H7         37.0904  -15.4197   26.2857 H         1 5SS         0.0271
     43 H8         38.3307  -14.1819   26.6811 H         1 5SS         0.0271
     44 H9         37.3463  -17.7688   27.4316 H         1 5SS         0.0538
     45 H10        43.3837  -20.1134   25.8198 H         1 5SS         0.0792
     46 H11        35.4357  -12.9888   28.7617 H         1 5SS         0.0816
     47 H12        35.2127  -13.7013   27.1278 H         1 5SS         0.0816
     48 H13        41.9065  -26.1148   30.0259 H         1 5SS         0.0559
     49 H14        42.2536  -25.5055   27.6454 H         1 5SS         0.0599
     50 H15        40.2700  -24.8563   31.4062 H         1 5SS         0.0599
     51 H16        42.9027  -22.3427   31.2675 H         1 5SS         0.0600
     52 H17        40.9704  -23.6355   26.6276 H         1 5SS         0.0557
     53 H18        39.0057  -22.9779   30.3955 H         1 5SS         0.0557
     54 H19        44.5210  -23.1256   33.0111 H         1 5SS         0.0560
     55 H20        44.9936  -20.5863   27.6289 H         1 5SS         0.0640
     56 H21        46.0314  -20.1502   29.2451 H         1 5SS         0.0634
     57 H22        41.6557  -21.1704   30.3094 H         1 5SS         0.0634
     58 H23        37.5503  -14.1562   29.0302 H         1 5SS         0.0352
     59 H24        38.0776  -22.0846   28.0907 H         1 5SS         0.0474
     60 H25        39.2948  -21.9819   26.7737 H         1 5SS         0.0474
     61 H26        39.5580  -20.7633   29.5701 H         1 5SS         0.0771
     62 H27        47.2850  -22.8860   33.6960 H         1 5SS         0.2363
     63 H28        36.1240  -11.5366   27.0469 H         1 5SS         0.1994
     64 H29        37.2049  -12.6384   26.4750 H         1 5SS         0.1994
     65 H30        37.4093  -11.9855   27.9722 H         1 5SS         0.1994
     66 H31        38.4444  -19.5899   27.1794 H         1 5SS         0.1885
     67 H32        48.4460  -19.8874   29.8536 H         1 5SS         0.2469
@<TRIPOS>BOND
     1    1   18 ar 
     2    1   23 ar 
     3   25    1 1  
     4   13    2 1  
     5    2   30 2  
     6    2   35 1  
     7    3   24 ar 
     8   28    3 1  
     9    3   29 ar 
    10   13    4 ar 
    11   21    4 ar 
    12    4   31 1  
    13    5   19 ar 
    14    5   20 ar 
    15   27    5 1  
    16    6   11 1  
    17   33    6 am 
    18    6   34 2  
    19    7    9 1  
    20   11    7 1  
    21    8   10 1  
    22   11    8 1  
    23    9   26 1  
    24   10   26 1  
    25   12   22 ar 
    26   29   12 ar 
    27   23   13 ar 
    28   26   14 1  
    29   14   32 1  
    30   16   15 ar 
    31   17   15 ar 
    32   19   16 ar 
    33   20   17 ar 
    34   18   21 ar 
    35   25   22 ar 
    36   24   25 ar 
    37   28   27 1  
    38   28   33 1  
    39   30   31 1  
    40    7   36 1  
    41    7   37 1  
    42    8   38 1  
    43    8   39 1  
    44    9   40 1  
    45    9   41 1  
    46   10   42 1  
    47   10   43 1  
    48   11   44 1  
    49   12   45 1  
    50   14   46 1  
    51   14   47 1  
    52   15   48 1  
    53   16   49 1  
    54   17   50 1  
    55   18   51 1  
    56   19   52 1  
    57   20   53 1  
    58   21   54 1  
    59   22   55 1  
    60   23   56 1  
    61   24   57 1  
    62   26   58 1  
    63   27   59 1  
    64   27   60 1  
    65   28   61 1  
    66   31   62 1  
    67   32   63 1  
    68   32   64 1  
    69   32   65 1  
    70   33   66 1  
    71   35   67 1  
@<TRIPOS>SUBSTRUCTURE
     1 5SS         1

