### 
### Created by X-TOOL on Mon Sep 10 21:13:28 2018
### 

@<TRIPOS>MOLECULE
5exm_ligand
   71    74     1     0     0
SMALL
GAST_HUCK


@<TRIPOS>ATOM
      1 C13        44.6380  -21.1640   30.2690 C.ar      1 5ST        -0.0252
      2 C18        39.0510  -18.4600   29.0700 C.2       1 5ST         0.1814
      3 C17        41.4110  -20.6050   28.4990 C.ar      1 5ST         0.0508
      4 C16        46.5230  -21.9040   32.2480 C.ar      1 5ST         0.0725
      5 C15        40.1180  -23.2930   28.6710 C.ar      1 5ST        -0.0386
      6 C19        48.8450  -22.0190   33.2580 C.2       1 5ST         0.3518
      7 C20        37.1410  -16.9290   29.5200 C.3       1 5ST        -0.0328
      8 C21        38.9260  -16.2570   27.7940 C.3       1 5ST        -0.0328
      9 C22        36.2450  -15.7760   29.0330 C.3       1 5ST        -0.0431
     10 C23        37.9740  -15.1560   27.2820 C.3       1 5ST        -0.0431
     11 C24        38.1480  -17.4130   28.4630 C.3       1 5ST         0.0488
     12 C11        42.3100  -20.9100   29.5070 C.ar      1 5ST        -0.0282
     13 C12        43.1220  -20.3040   26.9590 C.ar      1 5ST        -0.0012
     14 C27        39.3450  -22.0740   28.1950 C.3       1 5ST         0.0159
     15 C1         41.6480  -25.4550   29.6010 C.ar      1 5ST        -0.0687
     16 C2         40.7410  -24.8160   30.4550 C.ar      1 5ST        -0.0686
     17 C3         41.8050  -24.9990   28.2800 C.ar      1 5ST        -0.0686
     18 C4         44.2650  -22.0180   31.3240 C.ar      1 5ST        -0.0635
     19 C5         45.9550  -20.6780   30.2060 C.ar      1 5ST        -0.0635
     20 C6         39.9930  -23.7260   29.9940 C.ar      1 5ST        -0.0601
     21 C7         41.0440  -23.9120   27.8170 C.ar      1 5ST        -0.0601
     22 C8         45.1940  -22.3710   32.3210 C.ar      1 5ST        -0.0371
     23 C9         46.9010  -21.0710   31.1720 C.ar      1 5ST        -0.0371
     24 C10        44.0960  -20.5660   27.9230 C.ar      1 5ST        -0.0386
     25 C14        43.6730  -20.8330   29.2320 C.ar      1 5ST        -0.0161
     26 C25        37.0800  -14.6260   28.4240 C.3       1 5ST        -0.0006
     27 C26        50.8240  -22.2880   34.6180 C.3       1 5ST         0.0668
     28 C28        36.1710  -13.4680   27.9760 C.3       1 5ST        -0.0325
     29 C29        39.9210  -20.7600   28.7960 C.3       1 5ST         0.0991
     30 N30        41.7890  -20.3210   27.2200 N.ar      1 5ST        -0.3010
     31 N31        36.9500  -12.3770   27.4660 N.4       1 5ST         0.2187
     32 N32        47.4670  -22.3120   33.2070 N.am      1 5ST        -0.2063
     33 N33        39.1250  -19.6340   28.3560 N.am      1 5ST        -0.2685
     34 O34        39.6300  -18.2730   30.1390 O.2       1 5ST        -0.3966
     35 O35        49.4620  -21.3230   32.4600 O.2       1 5ST        -0.3660
     36 O36        49.4380  -22.5810   34.3690 O.3       1 5ST        -0.2620
     37 H1         36.4971  -17.7756   29.8005 H         1 5ST         0.0292
     38 H2         37.7008  -16.5859   30.4025 H         1 5ST         0.0292
     39 H3         39.6168  -15.8186   28.5293 H         1 5ST         0.0292
     40 H4         39.4996  -16.6567   26.9448 H         1 5ST         0.0292
     41 H5         35.6691  -15.3866   29.8855 H         1 5ST         0.0271
     42 H6         35.5538  -16.1594   28.2680 H         1 5ST         0.0271
     43 H7         37.3358  -15.5720   26.4885 H         1 5ST         0.0271
     44 H8         38.5696  -14.3252   26.8757 H         1 5ST         0.0271
     45 H9         37.5713  -17.9040   27.6653 H         1 5ST         0.0538
     46 H10        41.9599  -21.2028   30.4903 H         1 5ST         0.0626
     47 H11        43.4456  -20.0751   25.9500 H         1 5ST         0.0789
     48 H12        38.2936  -22.1759   28.5017 H         1 5ST         0.0474
     49 H13        39.4034  -22.0203   27.0979 H         1 5ST         0.0474
     50 H14        42.2276  -26.2990   29.9571 H         1 5ST         0.0559
     51 H15        40.6178  -25.1654   31.4737 H         1 5ST         0.0599
     52 H16        42.5129  -25.4859   27.6190 H         1 5ST         0.0599
     53 H17        43.2542  -22.4070   31.3691 H         1 5ST         0.0605
     54 H18        46.2433  -19.9989   29.4118 H         1 5ST         0.0605
     55 H19        39.3134  -23.2153   30.6666 H         1 5ST         0.0557
     56 H20        41.1719  -23.5524   26.8024 H         1 5ST         0.0557
     57 H21        44.8874  -23.0030   33.1466 H         1 5ST         0.0514
     58 H22        47.9272  -20.7316   31.0892 H         1 5ST         0.0514
     59 H23        45.1493  -20.5631   27.6668 H         1 5ST         0.0633
     60 H24        37.7438  -14.2379   29.2106 H         1 5ST         0.0352
     61 H25        51.1495  -22.8051   35.5327 H         1 5ST         0.0575
     62 H26        50.9524  -21.2029   34.7449 H         1 5ST         0.0575
     63 H27        51.4301  -22.6320   33.7670 H         1 5ST         0.0575
     64 H28        35.5813  -13.1188   28.8364 H         1 5ST         0.0816
     65 H29        35.4927  -13.8262   27.1876 H         1 5ST         0.0816
     66 H30        39.8197  -20.8230   29.8895 H         1 5ST         0.0770
     67 H31        36.3359  -11.6310   27.1789 H         1 5ST         0.1994
     68 H32        37.4901  -12.6907   26.6749 H         1 5ST         0.1994
     69 H33        37.5714  -12.0425   28.1857 H         1 5ST         0.1994
     70 H34        47.1155  -22.8837   33.9484 H         1 5ST         0.2299
     71 H35        38.6102  -19.7121   27.5022 H         1 5ST         0.1885
@<TRIPOS>BOND
     1    1   18 ar 
     2    1   19 ar 
     3   25    1 1  
     4    2   11 1  
     5   33    2 am 
     6    2   34 2  
     7    3   12 ar 
     8   29    3 1  
     9    3   30 ar 
    10   22    4 ar 
    11   23    4 ar 
    12    4   32 1  
    13   14    5 1  
    14    5   20 ar 
    15    5   21 ar 
    16   32    6 am 
    17    6   35 2  
    18    6   36 1  
    19    7    9 1  
    20   11    7 1  
    21    8   10 1  
    22   11    8 1  
    23    9   26 1  
    24   10   26 1  
    25   12   25 ar 
    26   13   24 ar 
    27   30   13 ar 
    28   29   14 1  
    29   16   15 ar 
    30   17   15 ar 
    31   20   16 ar 
    32   21   17 ar 
    33   18   22 ar 
    34   19   23 ar 
    35   25   24 ar 
    36   26   28 1  
    37   36   27 1  
    38   28   31 1  
    39   29   33 1  
    40    7   37 1  
    41    7   38 1  
    42    8   39 1  
    43    8   40 1  
    44    9   41 1  
    45    9   42 1  
    46   10   43 1  
    47   10   44 1  
    48   11   45 1  
    49   12   46 1  
    50   13   47 1  
    51   14   48 1  
    52   14   49 1  
    53   15   50 1  
    54   16   51 1  
    55   17   52 1  
    56   18   53 1  
    57   19   54 1  
    58   20   55 1  
    59   21   56 1  
    60   22   57 1  
    61   23   58 1  
    62   24   59 1  
    63   26   60 1  
    64   27   61 1  
    65   27   62 1  
    66   27   63 1  
    67   28   64 1  
    68   28   65 1  
    69   29   66 1  
    70   31   67 1  
    71   31   68 1  
    72   31   69 1  
    73   32   70 1  
    74   33   71 1  
@<TRIPOS>SUBSTRUCTURE
     1 5ST         1

