### 
### Created by X-TOOL on Mon Sep 10 21:13:27 2018
### 

@<TRIPOS>MOLECULE
5exn_ligand
   68    72     1     0     0
SMALL
GAST_HUCK


@<TRIPOS>ATOM
      1 C18        -3.0100   10.0650  -18.2730 C.2       1 5SU         0.1909
      2 C16        -0.0830    6.2040  -17.5340 C.ar      1 5SU        -0.0386
      3 C15        -0.6790    7.2120  -18.5010 C.3       1 5SU         0.0158
      4 C20         0.9860    5.3810  -17.9520 C.ar      1 5SU        -0.0601
      5 C21         1.5470    4.4360  -17.0800 C.ar      1 5SU        -0.0686
      6 C22         1.0580    4.3190  -15.7670 C.ar      1 5SU        -0.0687
      7 C23         0.0200    5.1320  -15.3460 C.ar      1 5SU        -0.0686
      8 C24        -0.5620    6.0500  -16.2220 C.ar      1 5SU        -0.0601
      9 C11         1.8000   10.8320  -11.2620 C.ar      1 5SU         0.0725
     10 C12         2.3790   11.7090  -12.1910 C.ar      1 5SU        -0.0371
     11 C34        -6.4000   13.1190  -22.9240 C.ar      1 5SU        -0.0476
     12 C33        -5.0730   13.5220  -22.9290 C.ar      1 5SU        -0.0176
     13 C1          0.0140    9.3170  -17.3410 C.ar      1 5SU         0.0507
     14 N2          0.9040    9.7570  -18.2450 N.ar      1 5SU        -0.3010
     15 C3          1.9670   10.4310  -17.7770 C.ar      1 5SU        -0.0012
     16 C4          2.1980   10.6620  -16.4340 C.ar      1 5SU        -0.0386
     17 C5          1.2630   10.2040  -15.4980 C.ar      1 5SU        -0.0161
     18 C6          0.1490    9.5260  -15.9970 C.ar      1 5SU        -0.0282
     19 C7          1.4170   10.4500  -14.0360 C.ar      1 5SU        -0.0252
     20 C8          2.1690   11.5280  -13.5500 C.ar      1 5SU        -0.0635
     21 C9          1.0110    9.7790  -11.7320 C.ar      1 5SU        -0.0371
     22 C10         0.8450    9.5840  -13.0940 C.ar      1 5SU        -0.0635
     23 N13         1.9630   10.8970   -9.8570 N.am      1 5SU        -0.2063
     24 C14        -1.1410    8.5320  -17.8730 C.3       1 5SU         0.0981
     25 N17        -1.9810    9.2900  -18.7990 N.am      1 5SU        -0.2711
     26 O19        -3.1470   10.2530  -17.0520 O.2       1 5SU        -0.3927
     27 C25         2.7300   11.7840   -9.1700 C.2       1 5SU         0.3518
     28 O26         3.3260   12.7350   -9.6470 O.2       1 5SU        -0.3660
     29 O27         2.7090   11.4660   -7.8700 O.3       1 5SU        -0.2620
     30 C28         3.3760   12.4250   -6.9630 C.3       1 5SU         0.0668
     31 C29        -3.8570   10.7860  -19.2180 C.2       1 5SU         0.0071
     32 C30        -3.6080   11.0260  -20.4780 C.2       1 5SU        -0.0388
     33 C31        -4.5180   11.7580  -21.3550 C.ar      1 5SU         0.0262
     34 C32        -4.1220   12.8430  -22.1570 C.ar      1 5SU         0.1410
     35 C35        -6.7730   12.0460  -22.1480 C.ar      1 5SU         0.0380
     36 C36        -5.8660   11.3690  -21.3640 C.ar      1 5SU        -0.0382
     37 N37        -2.7420   13.2260  -22.2520 N.pl3     1 5SU        -0.0913
     38 C38        -1.9220   13.3610  -23.2980 C.2       1 5SU         0.1690
     39 N39        -0.7340   13.7120  -22.8870 N.2       1 5SU        -0.2058
     40 N40        -0.8270   13.7960  -21.5380 N.2       1 5SU        -0.1365
     41 N41        -2.0300   13.5160  -21.1330 N.2       1 5SU        -0.0466
     42 CL4        -8.4290   11.5180  -22.1790 Cl        1 5SU        -0.0754
     43 H1         -1.5486    6.7442  -18.9857 H         1 5SU         0.0473
     44 H2          0.0823    7.4454  -19.2599 H         1 5SU         0.0473
     45 H3          1.3774    5.4807  -18.9580 H         1 5SU         0.0557
     46 H4          2.3554    3.7976  -17.4177 H         1 5SU         0.0599
     47 H5          1.4922    3.5949  -15.0871 H         1 5SU         0.0559
     48 H6         -0.3440    5.0553  -14.3278 H         1 5SU         0.0599
     49 H7         -1.3968    6.6537  -15.8847 H         1 5SU         0.0557
     50 H8          2.9936   12.5322  -11.8451 H         1 5SU         0.0514
     51 H9         -7.1346   13.6433  -23.5244 H         1 5SU         0.0635
     52 H10        -4.7698   14.3684  -23.5346 H         1 5SU         0.0602
     53 H11         2.6844   10.8156  -18.4929 H         1 5SU         0.0789
     54 H12         3.0884   11.1891  -16.1108 H         1 5SU         0.0633
     55 H13        -0.6122    9.1638  -15.3155 H         1 5SU         0.0626
     56 H14         2.5958   12.2358  -14.2514 H         1 5SU         0.0605
     57 H15         0.5266    9.1117  -11.0283 H         1 5SU         0.0514
     58 H16         0.2581    8.7406  -13.4394 H         1 5SU         0.0605
     59 H17         1.4629   10.2215   -9.3151 H         1 5SU         0.2299
     60 H18        -1.7728    8.2761  -17.0097 H         1 5SU         0.0769
     61 H19        -1.8201    9.2524  -19.7853 H         1 5SU         0.1869
     62 H20         3.2976   12.0647   -5.9266 H         1 5SU         0.0575
     63 H21         2.8899   13.4082   -7.0471 H         1 5SU         0.0575
     64 H22         4.4366   12.5153   -7.2405 H         1 5SU         0.0575
     65 H23        -4.8009   11.1660  -18.8300 H         1 5SU         0.0628
     66 H24        -2.6715   10.6605  -20.8968 H         1 5SU         0.0739
     67 H25        -6.1935   10.5352  -20.7535 H         1 5SU         0.0642
     68 H26        -2.2028   13.2020  -24.3381 H         1 5SU         0.1430
@<TRIPOS>BOND
     1    1   25 am 
     2    1   26 2  
     3   31    1 1  
     4    3    2 1  
     5    2    4 ar 
     6    2    8 ar 
     7   24    3 1  
     8    4    5 ar 
     9    5    6 ar 
    10    7    6 ar 
    11    8    7 ar 
    12   10    9 ar 
    13   21    9 ar 
    14    9   23 1  
    15   20   10 ar 
    16   12   11 ar 
    17   11   35 ar 
    18   34   12 ar 
    19   13   14 ar 
    20   13   18 ar 
    21   24   13 1  
    22   14   15 ar 
    23   15   16 ar 
    24   17   16 ar 
    25   18   17 ar 
    26   17   19 1  
    27   19   20 ar 
    28   19   22 ar 
    29   22   21 ar 
    30   23   27 am 
    31   25   24 1  
    32   27   28 2  
    33   27   29 1  
    34   29   30 1  
    35   32   31 2  
    36   33   32 1  
    37   33   34 ar 
    38   33   36 ar 
    39   34   37 1  
    40   35   36 ar 
    41   35   42 1  
    42   37   38 1  
    43   37   41 1  
    44   38   39 2  
    45   39   40 1  
    46   40   41 2  
    47    3   43 1  
    48    3   44 1  
    49    4   45 1  
    50    5   46 1  
    51    6   47 1  
    52    7   48 1  
    53    8   49 1  
    54   10   50 1  
    55   11   51 1  
    56   12   52 1  
    57   15   53 1  
    58   16   54 1  
    59   18   55 1  
    60   20   56 1  
    61   21   57 1  
    62   22   58 1  
    63   23   59 1  
    64   24   60 1  
    65   25   61 1  
    66   30   62 1  
    67   30   63 1  
    68   30   64 1  
    69   31   65 1  
    70   32   66 1  
    71   36   67 1  
    72   38   68 1  
@<TRIPOS>SUBSTRUCTURE
     1 5SU         1

