### 
### Created by X-TOOL on Mon Sep 10 21:13:28 2018
### 

@<TRIPOS>MOLECULE
5eyc_ligand
   44    48     1     0     0
SMALL
GAST_HUCK


@<TRIPOS>ATOM
      1 C20        28.2890   32.0280   60.6820 C.3       1 5SZ        -0.0268
      2 C18        27.0500   31.8740   59.8010 C.2       1 5SZ         0.0198
      3 C19        26.2840   30.7790   59.7330 C.2       1 5SZ        -0.0271
      4 N6         26.6090   32.8290   58.9830 N.2       1 5SZ        -0.1627
      5 O2         25.4590   32.3110   58.3520 O.3       1 5SZ        -0.1808
      6 C7         25.2880   31.0410   58.8720 C.2       1 5SZ         0.1496
      7 C1         24.2670   30.2010   58.4310 C.2       1 5SZ         0.0569
      8 C2         24.1390   28.8870   58.9030 C.2       1 5SZ        -0.0146
      9 C3         23.1440   28.0350   58.4240 C.2       1 5SZ         0.1803
     10 F1         22.9960   26.7640   58.8740 F         1 5SZ        -0.1836
     11 C4         23.3920   30.6540   57.4390 C.2       1 5SZ         0.0996
     12 N1         22.4040   29.7850   56.9760 N.pl3     1 5SZ        -0.1636
     13 C5         22.2740   28.4890   57.4420 C.2       1 5SZ         0.1871
     14 N2         21.2480   27.9310   56.7940 N.2       1 5SZ        -0.2890
     15 N3         20.7370   28.7380   55.9830 N.2       1 5SZ        -0.2736
     16 C6         21.4030   29.8910   56.0410 C.2       1 5SZ         0.1886
     17 C8         21.1370   31.1540   55.2430 C.3       1 5SZ         0.1549
     18 C9         20.2550   30.7730   54.0290 C.3       1 5SZ        -0.0171
     19 N4         20.4330   32.0850   56.1520 N.am      1 5SZ        -0.1852
     20 C10        19.1170   31.7690   56.5610 C.2       1 5SZ         0.0629
     21 C11        18.4130   32.6050   57.4160 C.2       1 5SZ        -0.0299
     22 C14        19.0020   33.7680   57.8790 C.ar      1 5SZ         0.0312
     23 N5         18.3090   34.5600   58.7080 N.ar      1 5SZ        -0.3089
     24 C15        18.8390   35.6840   59.1750 C.ar      1 5SZ        -0.0003
     25 C16        20.1290   36.0660   58.8250 C.ar      1 5SZ        -0.0398
     26 C17        20.8790   35.2600   57.9720 C.ar      1 5SZ        -0.0342
     27 C13        20.3120   34.0930   57.4920 C.ar      1 5SZ         0.0733
     28 C12        21.0320   33.2550   56.6320 C.2       1 5SZ         0.2408
     29 O1         22.1830   33.5450   56.3070 O.2       1 5SZ        -0.3885
     30 H1         28.4434   31.1061   61.2619 H         1 5SZ         0.0375
     31 H2         28.1468   32.8744   61.3700 H         1 5SZ         0.0375
     32 H3         29.1687   32.2142   60.0484 H         1 5SZ         0.0375
     33 H4         26.4397   29.8478   60.2756 H         1 5SZ         0.0349
     34 H5         24.8319   28.5235   59.6605 H         1 5SZ         0.0616
     35 H6         23.4798   31.6623   57.0370 H         1 5SZ         0.1230
     36 H7         22.0787   31.6036   54.8949 H         1 5SZ         0.0898
     37 H8         20.8084   30.0818   53.3763 H         1 5SZ         0.0287
     38 H9         19.9953   31.6810   53.4651 H         1 5SZ         0.0287
     39 H10        19.3347   30.2854   54.3830 H         1 5SZ         0.0287
     40 H11        18.6484   30.8550   56.1993 H         1 5SZ         0.1204
     41 H12        17.4002   32.3464   57.7215 H         1 5SZ         0.0314
     42 H13        18.2573   36.3132   59.8390 H         1 5SZ         0.0830
     43 H14        20.5490   36.9865   59.2140 H         1 5SZ         0.0627
     44 H15        21.8871   35.5415   57.6898 H         1 5SZ         0.0757
@<TRIPOS>BOND
     1    1    2 1  
     2    2    3 1  
     3    2    4 2  
     4    3    6 2  
     5    4    5 1  
     6    5    6 1  
     7    6    7 1  
     8    7    8 1  
     9    7   11 2  
    10    8    9 2  
    11    9   10 1  
    12    9   13 1  
    13   11   12 1  
    14   12   13 1  
    15   12   16 1  
    16   13   14 2  
    17   14   15 1  
    18   15   16 2  
    19   16   17 1  
    20   17   18 1  
    21   17   19 1  
    22   19   20 1  
    23   19   28 am 
    24   20   21 2  
    25   21   22 1  
    26   22   23 ar 
    27   22   27 ar 
    28   23   24 ar 
    29   24   25 ar 
    30   25   26 ar 
    31   26   27 ar 
    32   27   28 1  
    33   28   29 2  
    34    1   30 1  
    35    1   31 1  
    36    1   32 1  
    37    3   33 1  
    38    8   34 1  
    39   11   35 1  
    40   17   36 1  
    41   18   37 1  
    42   18   38 1  
    43   18   39 1  
    44   20   40 1  
    45   21   41 1  
    46   24   42 1  
    47   25   43 1  
    48   26   44 1  
@<TRIPOS>SUBSTRUCTURE
     1 5SZ         1

