### 
### Created by X-TOOL on Mon Sep 10 21:13:28 2018
### 

@<TRIPOS>MOLECULE
5eyd_ligand
   56    60     1     0     0
SMALL
GAST_HUCK


@<TRIPOS>ATOM
      1 C23        22.5030   37.7130   63.4530 C.3       1 5T1         0.0366
      2 O3         21.7020   37.0820   62.4280 O.3       1 5T1        -0.3803
      3 C22        20.9750   38.0810   61.6760 C.3       1 5T1         0.0749
      4 C21        19.8620   37.4000   60.9030 C.3       1 5T1         0.0936
      5 O2         20.3840   37.0420   59.6140 O.3       1 5T1        -0.3130
      6 C19        19.8510   35.9110   59.0860 C.ar      1 5T1         0.1144
      7 C20        20.6180   35.1430   58.2120 C.ar      1 5T1        -0.0038
      8 C15        20.0720   33.9880   57.6720 C.ar      1 5T1         0.0666
      9 C16        20.8170   33.1880   56.7910 C.2       1 5T1         0.2371
     10 O1         21.9740   33.4850   56.4880 O.2       1 5T1        -0.3892
     11 C18        18.5530   35.5180   59.3880 C.ar      1 5T1         0.0306
     12 N7         18.0430   34.4100   58.8590 N.ar      1 5T1        -0.3157
     13 C14        18.7590   33.6430   58.0180 C.ar      1 5T1         0.0225
     14 C13        18.1830   32.4970   57.4960 C.2       1 5T1        -0.0371
     15 C12        18.9150   31.6930   56.6290 C.2       1 5T1         0.0572
     16 N6         20.2440   32.0380   56.2740 N.am      1 5T1        -0.1892
     17 C11        20.9800   31.1530   55.3480 C.3       1 5T1         0.1527
     18 C17        20.1150   30.8170   54.1190 C.3       1 5T1        -0.0176
     19 C10        21.2650   29.8850   56.1410 C.2       1 5T1         0.1852
     20 N1         22.2470   29.7910   57.0970 N.pl3     1 5T1        -0.1722
     21 C5         23.2140   30.6670   57.5740 C.2       1 5T1         0.0831
     22 N5         20.6220   28.7260   56.0790 N.2       1 5T1        -0.2757
     23 N4         21.1310   27.9270   56.8920 N.2       1 5T1        -0.2915
     24 C4         22.1360   28.5000   57.5540 C.2       1 5T1         0.1836
     25 C3         23.0080   28.0630   58.5460 C.2       1 5T1         0.1786
     26 F1         22.8780   26.8050   58.9950 F         1 5T1        -0.1837
     27 C2         23.9780   28.9240   59.0530 C.2       1 5T1        -0.0236
     28 C1         24.0930   30.2360   58.5700 C.2       1 5T1        -0.0006
     29 C6         25.0690   31.1220   59.0260 C.2       1 5T1        -0.0047
     30 C8         26.1330   30.8410   59.7740 C.2       1 5T1         0.0580
     31 C7         25.1470   32.4280   58.7280 C.2       1 5T1         0.0028
     32 N2         26.2310   32.9260   59.3220 N.2       1 5T1        -0.2159
     33 N3         26.7870   31.9970   59.9220 N.pl3     1 5T1        -0.2092
     34 C9         28.0320   32.1650   60.7060 C.3       1 5T1         0.0604
     35 H1         23.0500   36.9429   64.0167 H         1 5T1         0.0524
     36 H2         21.8484   38.2726   64.1373 H         1 5T1         0.0524
     37 H3         23.2201   38.4034   62.9849 H         1 5T1         0.0524
     38 H4         21.6570   38.5844   60.9750 H         1 5T1         0.0586
     39 H5         20.5454   38.8224   62.3658 H         1 5T1         0.0586
     40 H6         19.0118   38.0879   60.7853 H         1 5T1         0.0636
     41 H7         19.5319   36.4972   61.4378 H         1 5T1         0.0636
     42 H8         21.6278   35.4442   57.9576 H         1 5T1         0.0683
     43 H9         17.9515   36.1194   60.0601 H         1 5T1         0.0767
     44 H10        17.1624   32.2268   57.7630 H         1 5T1         0.0296
     45 H11        18.4638   30.7906   56.2191 H         1 5T1         0.1155
     46 H12        21.9175   31.6277   55.0229 H         1 5T1         0.0892
     47 H13        20.6793   30.1583   53.4425 H         1 5T1         0.0286
     48 H14        19.8514   31.7454   53.5913 H         1 5T1         0.0286
     49 H15        19.1965   30.3072   54.4453 H         1 5T1         0.0286
     50 H16        23.2858   31.6781   57.1759 H         1 5T1         0.1118
     51 H17        24.6541   28.5753   59.8323 H         1 5T1         0.0599
     52 H18        26.4128   29.8705   60.1811 H         1 5T1         0.0991
     53 H19        24.4458   32.9846   58.1080 H         1 5T1         0.0662
     54 H20        28.3549   33.2155   60.6606 H         1 5T1         0.0605
     55 H21        28.8191   31.5210   60.2867 H         1 5T1         0.0605
     56 H22        27.8468   31.8833   61.7531 H         1 5T1         0.0605
@<TRIPOS>BOND
     1    1    2 1  
     2    2    3 1  
     3    3    4 1  
     4    4    5 1  
     5    5    6 1  
     6    6    7 ar 
     7    6   11 ar 
     8    7    8 ar 
     9    8    9 1  
    10    8   13 ar 
    11    9   10 2  
    12    9   16 am 
    13   11   12 ar 
    14   12   13 ar 
    15   13   14 1  
    16   14   15 2  
    17   15   16 1  
    18   16   17 1  
    19   17   18 1  
    20   17   19 1  
    21   19   20 1  
    22   19   22 2  
    23   20   21 1  
    24   20   24 1  
    25   21   28 2  
    26   22   23 1  
    27   23   24 2  
    28   24   25 1  
    29   25   26 1  
    30   25   27 2  
    31   27   28 1  
    32   28   29 1  
    33   29   30 2  
    34   29   31 1  
    35   30   33 1  
    36   31   32 2  
    37   32   33 1  
    38   33   34 1  
    39    1   35 1  
    40    1   36 1  
    41    1   37 1  
    42    3   38 1  
    43    3   39 1  
    44    4   40 1  
    45    4   41 1  
    46    7   42 1  
    47   11   43 1  
    48   14   44 1  
    49   15   45 1  
    50   17   46 1  
    51   18   47 1  
    52   18   48 1  
    53   18   49 1  
    54   21   50 1  
    55   27   51 1  
    56   30   52 1  
    57   31   53 1  
    58   34   54 1  
    59   34   55 1  
    60   34   56 1  
@<TRIPOS>SUBSTRUCTURE
     1 5T1         1

