### 
### Created by X-TOOL on Mon Sep 10 21:13:28 2018
### 

@<TRIPOS>MOLECULE
5eyk_ligand
   64    67     1     0     0
SMALL
GAST_HUCK


@<TRIPOS>ATOM
      1 C4          7.7600    2.5630    5.0420 C.ar      1 5U5        -0.0749
      2 C5          9.1380    2.7820    5.3110 C.ar      1 5U5        -0.0083
      3 C6          9.5400    3.9010    6.0720 C.ar      1 5U5         0.0655
      4 C8         11.3770    2.7170    5.7610 C.2       1 5U5         0.2032
      5 N12        11.7650    0.2720    4.4280 N.pl3     1 5U5        -0.2634
      6 C13         9.3550    0.1710    3.6850 C.ar      1 5U5         0.0228
      7 C15         7.6590   -1.5180    3.2220 C.ar      1 5U5        -0.0566
      8 C17         7.7970    0.4420    1.7880 C.ar      1 5U5        -0.0566
      9 C20        13.6390   -1.0830    4.1730 C.ar      1 5U5        -0.0430
     10 C21        14.3470   -2.1100    3.5970 C.ar      1 5U5        -0.0637
     11 C22        13.7880   -2.7810    2.5000 C.ar      1 5U5        -0.0090
     12 C24        11.7830   -1.4550    2.6250 C.ar      1 5U5        -0.0430
     13 C26         5.3670    6.3480    6.8130 C.1       1 5U5         0.0109
     14 O28         3.3730    7.2900    6.1710 O.2       1 5U5        -0.3762
     15 C27         4.2740    7.2670    7.0070 C.2       1 5U5         0.2475
     16 N29         4.1840    8.0940    8.0480 N.am      1 5U5        -0.2802
     17 C35         3.0030    8.9930    8.1430 C.3       1 5U5         0.0281
     18 C34         2.8410    9.5210    9.5500 C.3       1 5U5        -0.0449
     19 C25         6.2060    5.5790    6.5230 C.1       1 5U5        -0.0513
     20 C2          7.2190    4.6500    6.1690 C.ar      1 5U5         0.0122
     21 C3          8.5810    4.8550    6.4670 C.ar      1 5U5        -0.0310
     22 N7         10.9040    3.8410    6.2860 N.am      1 5U5        -0.2434
     23 O10        12.5490    2.4240    5.7540 O.2       1 5U5        -0.3963
     24 C9         10.3490    1.9890    5.0910 C.2       1 5U5         0.0659
     25 C1          6.8280    3.5070    5.4080 C.ar      1 5U5        -0.0661
     26 C11        10.4970    0.7890    4.3820 C.2       1 5U5         0.0941
     27 C18         8.8650    0.8980    2.5300 C.ar      1 5U5        -0.0450
     28 C16         7.1730   -0.7770    2.1350 C.ar      1 5U5        -0.0578
     29 C14         8.7410   -1.0910    4.0170 C.ar      1 5U5        -0.0450
     30 C19        12.3560   -0.7830    3.7370 C.ar      1 5U5         0.0603
     31 C23        12.5090   -2.4660    2.0250 C.ar      1 5U5        -0.0637
     32 C30        14.5910   -3.8710    1.8200 C.3       1 5U5        -0.0033
     33 N31        14.5000   -5.1650    2.4980 N.4       1 5U5         0.2415
     34 C33        14.7850   -6.2310    1.5090 C.3       1 5U5        -0.0421
     35 C32        15.4450   -5.2370    3.6450 C.3       1 5U5        -0.0421
     36 H1          7.4427    1.6517    4.5481 H         1 5U5         0.0517
     37 H2         12.3927    0.7481    5.0915 H         1 5U5         0.2187
     38 H3          7.1810   -2.4611    3.4611 H         1 5U5         0.0628
     39 H4          7.4373    1.0161    0.9418 H         1 5U5         0.0628
     40 H5         14.0853   -0.5034    4.9730 H         1 5U5         0.0526
     41 H6         15.3187   -2.3959    3.9831 H         1 5U5         0.0533
     42 H7         10.8010   -1.1818    2.2562 H         1 5U5         0.0526
     43 H8          4.8955    8.1098    8.7505 H         1 5U5         0.1850
     44 H9          2.0994    8.4320    7.8623 H         1 5U5         0.0517
     45 H10         3.1380    9.8395    7.4537 H         1 5U5         0.0517
     46 H11         1.9628   10.1819    9.5947 H         1 5U5         0.0249
     47 H12         3.7404   10.0864    9.8353 H         1 5U5         0.0249
     48 H13         2.7018    8.6789   10.2439 H         1 5U5         0.0249
     49 H14         8.8910    5.7465    7.0001 H         1 5U5         0.0501
     50 H15        11.4477    4.5334    6.7604 H         1 5U5         0.2232
     51 H16         5.7913    3.3821    5.1169 H         1 5U5         0.0502
     52 H17         9.3510    1.8235    2.2430 H         1 5U5         0.0665
     53 H18         6.3243   -1.1372    1.5649 H         1 5U5         0.0650
     54 H19         9.0987   -1.6889    4.8474 H         1 5U5         0.0665
     55 H20        12.0896   -3.0138    1.1889 H         1 5U5         0.0533
     56 H21        15.6468   -3.5632    1.7952 H         1 5U5         0.0959
     57 H22        14.2191   -3.9888    0.7915 H         1 5U5         0.0959
     58 H23        13.5628   -5.2854    2.8491 H         1 5U5         0.2040
     59 H24        14.7214   -7.2132    2.0001 H         1 5U5         0.0778
     60 H25        15.7963   -6.0906    1.0996 H         1 5U5         0.0778
     61 H26        14.0489   -6.1806    0.6932 H         1 5U5         0.0778
     62 H27        15.2121   -4.4366    4.3627 H         1 5U5         0.0778
     63 H28        16.4752   -5.1135    3.2797 H         1 5U5         0.0778
     64 H29        15.3463   -6.2140    4.1406 H         1 5U5         0.0778
@<TRIPOS>BOND
     1    2    1 ar 
     2    1   25 ar 
     3    2    3 ar 
     4   24    2 1  
     5    3   21 ar 
     6   22    3 1  
     7    4   22 am 
     8    4   23 2  
     9   24    4 1  
    10   26    5 1  
    11    5   30 1  
    12   26    6 1  
    13    6   27 ar 
    14    6   29 ar 
    15    7   28 ar 
    16   29    7 ar 
    17   27    8 ar 
    18    8   28 ar 
    19    9   10 ar 
    20   30    9 ar 
    21   10   11 ar 
    22   31   11 ar 
    23   11   32 1  
    24   30   12 ar 
    25   12   31 ar 
    26   13   15 1  
    27   19   13 3  
    28   15   14 2  
    29   15   16 am 
    30   16   17 1  
    31   17   18 1  
    32   20   19 1  
    33   21   20 ar 
    34   25   20 ar 
    35   24   26 2  
    36   32   33 1  
    37   33   34 1  
    38   33   35 1  
    39    1   36 1  
    40    5   37 1  
    41    7   38 1  
    42    8   39 1  
    43    9   40 1  
    44   10   41 1  
    45   12   42 1  
    46   16   43 1  
    47   17   44 1  
    48   17   45 1  
    49   18   46 1  
    50   18   47 1  
    51   18   48 1  
    52   21   49 1  
    53   22   50 1  
    54   25   51 1  
    55   27   52 1  
    56   28   53 1  
    57   29   54 1  
    58   31   55 1  
    59   32   56 1  
    60   32   57 1  
    61   33   58 1  
    62   34   59 1  
    63   34   60 1  
    64   34   61 1  
    65   35   62 1  
    66   35   63 1  
    67   35   64 1  
@<TRIPOS>SUBSTRUCTURE
     1 5U5         1

