### 
### Created by X-TOOL on Mon Sep 10 21:13:30 2018
### 

@<TRIPOS>MOLECULE
5eym_ligand
   64    67     1     0     0
SMALL
GAST_HUCK


@<TRIPOS>ATOM
      1 C4        -62.9330  -30.5450   76.9070 C.ar      1 5U5        -0.0638
      2 C5        -63.5400  -31.7920   76.9400 C.ar      1 5U5         0.0214
      3 C6        -62.7800  -32.9450   76.9020 C.ar      1 5U5         0.0785
      4 C8        -64.8980  -33.6360   77.0070 C.2       1 5U5         0.2311
      5 N12       -67.2600  -32.1930   77.1480 N.2       1 5U5        -0.3022
      6 C13       -66.0600  -29.9720   77.0780 C.ar      1 5U5         0.0200
      7 C15       -66.0980  -27.8910   78.2810 C.ar      1 5U5        -0.0545
      8 C17       -66.0220  -27.8890   75.8870 C.ar      1 5U5        -0.0545
      9 C20       -69.5450  -32.9510   77.2470 C.ar      1 5U5        -0.0550
     10 C21       -70.9100  -32.7390   77.2810 C.ar      1 5U5        -0.0570
     11 C22       -71.4070  -31.4540   77.2520 C.ar      1 5U5        -0.0010
     12 C24       -69.1490  -30.5940   77.1540 C.ar      1 5U5        -0.0550
     13 C26       -58.1580  -31.2930   76.6490 C.1       1 5U5         0.0125
     14 O28       -56.3740  -29.9310   76.2320 O.2       1 5U5        -0.3756
     15 C27       -56.7520  -31.0320   76.5810 C.2       1 5U5         0.2484
     16 N29       -55.8230  -31.9950   76.9180 N.am      1 5U5        -0.2800
     17 C35       -54.3660  -31.8030   76.8750 C.3       1 5U5         0.0282
     18 C34       -53.8620  -31.6750   75.4560 C.3       1 5U5        -0.0449
     19 C25       -59.3540  -31.4830   76.7150 C.1       1 5U5        -0.0493
     20 C2        -60.7740  -31.6630   76.7840 C.ar      1 5U5         0.0141
     21 C3        -61.3930  -32.9130   76.8260 C.ar      1 5U5        -0.0280
     22 N7        -63.5930  -34.0970   76.9430 N.am      1 5U5        -0.2318
     23 O10       -65.8770  -34.3480   77.0600 O.2       1 5U5        -0.3831
     24 C9        -64.9400  -32.1770   77.0140 C.3       1 5U5         0.1422
     25 C1        -61.5460  -30.4960   76.8310 C.ar      1 5U5        -0.0637
     26 C11       -66.0810  -31.4490   77.0750 C.2       1 5U5         0.0711
     27 C18       -66.0250  -29.2750   75.8850 C.ar      1 5U5        -0.0428
     28 C16       -66.0580  -27.1970   77.0860 C.ar      1 5U5        -0.0559
     29 C14       -66.0980  -29.2770   78.2760 C.ar      1 5U5        -0.0428
     30 C19       -68.6460  -31.8900   77.1970 C.ar      1 5U5         0.0122
     31 C23       -70.5210  -30.3810   77.1890 C.ar      1 5U5        -0.0570
     32 C30       -72.9070  -31.2850   77.2980 C.3       1 5U5         0.0003
     33 N31       -73.3080  -29.8770   77.4320 N.4       1 5U5         0.2427
     34 C33       -74.5770  -29.8000   78.1730 C.3       1 5U5        -0.0420
     35 C32       -73.4320  -29.1990   76.1240 C.3       1 5U5        -0.0420
     36 H1        -63.5227  -29.6360   76.9395 H         1 5U5         0.0535
     37 H2        -66.1293  -27.3518   79.2209 H         1 5U5         0.0634
     38 H3        -65.9914  -27.3462   74.9492 H         1 5U5         0.0634
     39 H4        -69.1660  -33.9665   77.2596 H         1 5U5         0.0580
     40 H5        -71.5891  -33.5825   77.3304 H         1 5U5         0.0554
     41 H6        -68.4706  -29.7507   77.0932 H         1 5U5         0.0580
     42 H7        -56.1652  -32.8873   77.2125 H         1 5U5         0.1851
     43 H8        -53.8782  -32.6668   77.3502 H         1 5U5         0.0517
     44 H9        -54.1104  -30.8873   77.4283 H         1 5U5         0.0517
     45 H10       -52.7712  -31.5331   75.4657 H         1 5U5         0.0249
     46 H11       -54.3400  -30.8096   74.9737 H         1 5U5         0.0249
     47 H12       -54.1078  -32.5891   74.8957 H         1 5U5         0.0249
     48 H13       -60.8117  -33.8276   76.8002 H         1 5U5         0.0508
     49 H14       -63.2900  -35.0499   76.9288 H         1 5U5         0.2256
     50 H15       -64.9158  -32.1282   78.1126 H         1 5U5         0.0925
     51 H16       -61.0507  -29.5321   76.8076 H         1 5U5         0.0505
     52 H17       -65.9998  -29.8140   74.9448 H         1 5U5         0.0683
     53 H18       -66.0548  -26.1130   77.0875 H         1 5U5         0.0667
     54 H19       -66.1279  -29.8198   79.2138 H         1 5U5         0.0683
     55 H20       -70.9067  -29.3682   77.1670 H         1 5U5         0.0554
     56 H21       -73.2998  -31.8476   78.1578 H         1 5U5         0.0977
     57 H22       -73.3366  -31.6878   76.3690 H         1 5U5         0.0977
     58 H23       -72.5977  -29.3980   77.9631 H         1 5U5         0.2042
     59 H24       -74.8790  -28.7471   78.2745 H         1 5U5         0.0778
     60 H25       -74.4458  -30.2417   79.1718 H         1 5U5         0.0778
     61 H26       -75.3549  -30.3535   77.6266 H         1 5U5         0.0778
     62 H27       -72.4759  -29.2660   75.5842 H         1 5U5         0.0778
     63 H28       -73.6904  -28.1416   76.2821 H         1 5U5         0.0778
     64 H29       -74.2218  -29.6850   75.5325 H         1 5U5         0.0778
@<TRIPOS>BOND
     1    2    1 ar 
     2    1   25 ar 
     3    2    3 ar 
     4   24    2 1  
     5    3   21 ar 
     6   22    3 1  
     7    4   22 am 
     8    4   23 2  
     9   24    4 1  
    10   26    5 2  
    11    5   30 1  
    12   26    6 1  
    13    6   27 ar 
    14    6   29 ar 
    15    7   28 ar 
    16   29    7 ar 
    17   27    8 ar 
    18    8   28 ar 
    19    9   10 ar 
    20   30    9 ar 
    21   10   11 ar 
    22   31   11 ar 
    23   11   32 1  
    24   30   12 ar 
    25   12   31 ar 
    26   13   15 1  
    27   19   13 3  
    28   15   14 2  
    29   15   16 am 
    30   16   17 1  
    31   17   18 1  
    32   20   19 1  
    33   21   20 ar 
    34   25   20 ar 
    35   24   26 1  
    36   32   33 1  
    37   33   34 1  
    38   33   35 1  
    39    1   36 1  
    40    7   37 1  
    41    8   38 1  
    42    9   39 1  
    43   10   40 1  
    44   12   41 1  
    45   16   42 1  
    46   17   43 1  
    47   17   44 1  
    48   18   45 1  
    49   18   46 1  
    50   18   47 1  
    51   21   48 1  
    52   22   49 1  
    53   24   50 1  
    54   25   51 1  
    55   27   52 1  
    56   28   53 1  
    57   29   54 1  
    58   31   55 1  
    59   32   56 1  
    60   32   57 1  
    61   33   58 1  
    62   34   59 1  
    63   34   60 1  
    64   34   61 1  
    65   35   62 1  
    66   35   63 1  
    67   35   64 1  
@<TRIPOS>SUBSTRUCTURE
     1 5U5         1

