### 
### Created by X-TOOL on Mon Sep 10 21:13:28 2018
### 

@<TRIPOS>MOLECULE
5eyr_ligand
   52    54     1     0     0
SMALL
GAST_HUCK


@<TRIPOS>ATOM
      1 C14         3.9110   28.5340    4.2460 C.ar      1 5T0        -0.0666
      2 C13         5.2790   28.3820    4.0000 C.ar      1 5T0        -0.0504
      3 C15         3.1130   27.4010    4.4340 C.ar      1 5T0        -0.0115
      4 C17         5.0610   25.9880    4.1430 C.ar      1 5T0        -0.0504
      5 C16         3.6900   26.1250    4.3870 C.ar      1 5T0        -0.0666
      6 C8          9.1080   26.0480    2.3280 C.3       1 5T0        -0.0305
      7 C10         8.2120   27.8210    4.5090 C.3       1 5T0         0.0257
      8 C9          7.7260   25.8270    2.9420 C.3       1 5T0         0.0257
      9 N1          7.2700   26.9650    3.7620 N.pl3     1 5T0        -0.3124
     10 C12         5.8740   27.1180    3.9450 C.ar      1 5T0         0.0334
     11 C11         9.4360   28.1420    3.6500 C.3       1 5T0        -0.0305
     12 C1         16.3590   29.7450    2.8150 C.2       1 5T0        -0.0900
     13 C2         16.6080   29.9070    1.3240 C.2       1 5T0        -0.0900
     14 C3         15.5370   29.1020    0.6170 C.2       1 5T0         0.0409
     15 C4         13.4600   28.0160    1.3940 C.2       1 5T0         0.2535
     16 C5         12.4680   27.8050    2.5270 C.3       1 5T0         0.0567
     17 C6         11.1600   27.1760    2.0540 C.3       1 5T0        -0.0312
     18 C7         10.1160   26.8670    3.1240 C.3       1 5T0        -0.0353
     19 O          13.2050   27.6270    0.2430 O.2       1 5T0        -0.3531
     20 N          14.6020   28.6790    1.6680 N.am      1 5T0        -0.1967
     21 C          15.0140   29.0710    3.0190 C.2       1 5T0         0.0409
     22 C18         1.6270   27.5600    4.6650 C.3       1 5T0        -0.0059
     23 N2          1.3170   27.4860    6.0780 N.4       1 5T0         0.2352
     24 C19         0.9220   26.2200    6.6750 C.3       1 5T0        -0.0437
     25 H1          3.4717   29.5240    4.2907 H         1 5T0         0.0526
     26 H2          5.8916   29.2634    3.8486 H         1 5T0         0.0499
     27 H3          5.5018   24.9984    4.1062 H         1 5T0         0.0499
     28 H4          3.0752   25.2453    4.5394 H         1 5T0         0.0526
     29 H5          8.9611   26.5560    1.3635 H         1 5T0         0.0287
     30 H6          9.5531   25.0568    2.1563 H         1 5T0         0.0287
     31 H7          8.5358   27.2953    5.4194 H         1 5T0         0.0511
     32 H8          7.7080   28.7585    4.7866 H         1 5T0         0.0511
     33 H9          7.7644   24.9302    3.5778 H         1 5T0         0.0511
     34 H10         7.0024   25.6691    2.1287 H         1 5T0         0.0511
     35 H11        10.1590   28.7062    4.2574 H         1 5T0         0.0287
     36 H12         9.1189   28.7553    2.7937 H         1 5T0         0.0287
     37 H13        17.0354   30.0610    3.6078 H         1 5T0         0.0232
     38 H14        17.4011   30.4881    0.8558 H         1 5T0         0.0232
     39 H15        15.4735   28.8827   -0.4478 H         1 5T0         0.0802
     40 H16        12.2444   28.7796    2.9853 H         1 5T0         0.0524
     41 H17        12.9257   27.1434    3.2771 H         1 5T0         0.0524
     42 H18        11.4090   26.2306    1.5498 H         1 5T0         0.0293
     43 H19        10.7010   27.8670    1.3316 H         1 5T0         0.0293
     44 H20        10.5477   26.2970    3.9599 H         1 5T0         0.0303
     45 H21        14.4784   28.9147    3.9542 H         1 5T0         0.0802
     46 H22         1.0916   26.7581    4.1356 H         1 5T0         0.0953
     47 H23         1.3035   28.5364    4.2752 H         1 5T0         0.0953
     48 H24         0.5619   28.1329    6.2436 H         1 5T0         0.2023
     49 H25         2.1393   27.7956    6.5720 H         1 5T0         0.2023
     50 H26         0.7296   26.3650    7.7483 H         1 5T0         0.0777
     51 H27         1.7295   25.4847    6.5434 H         1 5T0         0.0777
     52 H28         0.0082   25.8528    6.1850 H         1 5T0         0.0777
@<TRIPOS>BOND
     1    2    1 ar 
     2    1    3 ar 
     3   10    2 ar 
     4    5    3 ar 
     5    3   22 1  
     6    4    5 ar 
     7   10    4 ar 
     8    6    8 1  
     9   18    6 1  
    10    7    9 1  
    11   11    7 1  
    12    8    9 1  
    13    9   10 1  
    14   18   11 1  
    15   13   12 1  
    16   12   21 2  
    17   14   13 2  
    18   20   14 1  
    19   16   15 1  
    20   15   19 2  
    21   15   20 am 
    22   17   16 1  
    23   17   18 1  
    24   20   21 1  
    25   22   23 1  
    26   23   24 1  
    27    1   25 1  
    28    2   26 1  
    29    4   27 1  
    30    5   28 1  
    31    6   29 1  
    32    6   30 1  
    33    7   31 1  
    34    7   32 1  
    35    8   33 1  
    36    8   34 1  
    37   11   35 1  
    38   11   36 1  
    39   12   37 1  
    40   13   38 1  
    41   14   39 1  
    42   16   40 1  
    43   16   41 1  
    44   17   42 1  
    45   17   43 1  
    46   18   44 1  
    47   21   45 1  
    48   22   46 1  
    49   22   47 1  
    50   23   48 1  
    51   23   49 1  
    52   24   50 1  
    53   24   51 1  
    54   24   52 1  
@<TRIPOS>SUBSTRUCTURE
     1 5T0         1

