### 
### Created by X-TOOL on Mon Sep 10 21:13:28 2018
### 

@<TRIPOS>MOLECULE
5ezg_ligand
   44    46     1     0     0
SMALL
GAST_HUCK


@<TRIPOS>ATOM
      1 C1         29.9800    4.7120   -4.5790 C.ar      1 5T4        -0.0228
      2 C2         28.7370    4.8030   -3.9540 C.ar      1 5T4         0.0145
      3 C3         28.6610    7.0370   -4.6740 C.ar      1 5T4         0.1956
      4 C4         26.5090    8.2320   -4.1440 C.3       1 5T4         0.0341
      5 C5         26.4730    9.2310   -2.9710 C.3       1 5T4        -0.0275
      6 C6         27.1970   10.5740   -3.3440 C.3       1 5T4        -0.0173
      7 C8         28.5580    9.4750   -5.1910 C.3       1 5T4         0.0341
      8 C9         27.1450   11.4460   -2.0960 C.3       1 5T4         0.0342
      9 C10        27.9170   13.6090   -1.2300 C.2       1 5T4         0.2599
     10 C13        30.0100   16.6460   -1.1710 C.3       1 5T4        -0.0309
     11 C14        29.0600   15.7150   -0.4640 C.3       1 5T4         0.0343
     12 O          27.6710   13.1930   -0.0670 O.2       1 5T4        -0.4007
     13 N4         28.5530   14.7800   -1.4810 N.am      1 5T4        -0.2595
     14 C12        29.5270   16.6170   -2.6200 C.3       1 5T4        -0.0309
     15 C11        28.9650   15.2150   -2.7790 C.3       1 5T4         0.0343
     16 N3         27.6670   12.8020   -2.2710 N.am      1 5T4        -0.2728
     17 C7         28.6410   10.3700   -3.9350 C.3       1 5T4        -0.0275
     18 N2         27.8780    8.2770   -4.6980 N.pl3     1 5T4        -0.2748
     19 N1         29.8520    6.9760   -5.3390 N.ar      1 5T4        -0.2527
     20 C          30.5620    5.7910   -5.2940 C.ar      1 5T4         0.0145
     21 N          28.1030    5.9990   -4.0220 N.ar      1 5T4        -0.2527
     22 H1         30.5252    3.7772   -4.5161 H         1 5T4         0.0665
     23 H2         28.2982    3.9568   -3.4378 H         1 5T4         0.0900
     24 H3         25.7790    8.5240   -4.9133 H         1 5T4         0.0526
     25 H4         26.2782    7.2180   -3.7856 H         1 5T4         0.0526
     26 H5         26.9762    8.7819   -2.1020 H         1 5T4         0.0288
     27 H6         25.4250    9.4475   -2.7165 H         1 5T4         0.0288
     28 H7         26.6076   11.0718   -4.1281 H         1 5T4         0.0321
     29 H8         29.5616    9.2320   -5.5702 H         1 5T4         0.0526
     30 H9         27.9738    9.9622   -5.9856 H         1 5T4         0.0526
     31 H10        27.7336   10.9520   -1.3089 H         1 5T4         0.0520
     32 H11        26.0955   11.5224   -1.7757 H         1 5T4         0.0520
     33 H12        31.0456   16.2832   -1.0946 H         1 5T4         0.0285
     34 H13        29.9460   17.6626   -0.7557 H         1 5T4         0.0285
     35 H14        28.2282   16.2842   -0.0235 H         1 5T4         0.0519
     36 H15        29.5877   15.1642    0.3285 H         1 5T4         0.0519
     37 H16        30.3616   16.7872   -3.3160 H         1 5T4         0.0285
     38 H17        28.7476   17.3744   -2.7898 H         1 5T4         0.0285
     39 H18        28.1042   15.2286   -3.4637 H         1 5T4         0.0519
     40 H19        29.7384   14.5408   -3.1755 H         1 5T4         0.0519
     41 H20        27.8428   13.1373   -3.1966 H         1 5T4         0.1845
     42 H21        29.2813    9.8874   -3.1819 H         1 5T4         0.0288
     43 H22        29.0676   11.3466   -4.2075 H         1 5T4         0.0288
     44 H23        31.5234    5.6900   -5.7844 H         1 5T4         0.0900
@<TRIPOS>BOND
     1    2    1 ar 
     2    1   20 ar 
     3   21    2 ar 
     4   18    3 1  
     5    3   19 ar 
     6    3   21 ar 
     7    5    4 1  
     8    4   18 1  
     9    6    5 1  
    10    8    6 1  
    11    6   17 1  
    12   17    7 1  
    13    7   18 1  
    14   16    8 1  
    15    9   12 2  
    16   13    9 am 
    17    9   16 am 
    18   11   10 1  
    19   10   14 1  
    20   11   13 1  
    21   13   15 1  
    22   14   15 1  
    23   19   20 ar 
    24    1   22 1  
    25    2   23 1  
    26    4   24 1  
    27    4   25 1  
    28    5   26 1  
    29    5   27 1  
    30    6   28 1  
    31    7   29 1  
    32    7   30 1  
    33    8   31 1  
    34    8   32 1  
    35   10   33 1  
    36   10   34 1  
    37   11   35 1  
    38   11   36 1  
    39   14   37 1  
    40   14   38 1  
    41   15   39 1  
    42   15   40 1  
    43   16   41 1  
    44   17   42 1  
    45   17   43 1  
    46   20   44 1  
@<TRIPOS>SUBSTRUCTURE
     1 5T4         1

