### 
### Created by X-TOOL on Mon Sep 10 21:13:28 2018
### 

@<TRIPOS>MOLECULE
5ezh_ligand
   45    47     1     0     0
SMALL
GAST_HUCK


@<TRIPOS>ATOM
      1 O          21.8180   31.5440   -1.5030 O.2       1 841        -0.4007
      2 C11        20.7300   31.8170   -0.9430 C.2       1 841         0.2599
      3 N3         19.6200   31.7760   -1.6470 N.am      1 841        -0.2595
      4 C15        19.6720   31.3630   -3.0960 C.3       1 841         0.0343
      5 C14        18.2910   31.9010   -3.4600 C.3       1 841        -0.0309
      6 C13        17.3880   31.8410   -2.2460 C.3       1 841        -0.0309
      7 C12        18.3230   32.1830   -1.1140 C.3       1 841         0.0343
      8 N2         20.6910   32.1290    0.3830 N.am      1 841        -0.2728
      9 C10        21.9220   32.4020    1.1840 C.3       1 841         0.0342
     10 C7         22.6270   33.7390    0.7830 C.3       1 841        -0.0174
     11 C6         23.3300   34.2440    2.0460 C.3       1 841        -0.0281
     12 C5         23.9840   35.5950    1.7490 C.3       1 841         0.0300
     13 C8         21.6380   34.7980    0.2840 C.3       1 841        -0.0281
     14 C9         22.3840   36.1460    0.0110 C.3       1 841         0.0300
     15 N1         22.8660   36.4280    1.3700 N.pl3     1 841        -0.2941
     16 C3         22.0680   37.1450    2.2960 C.ar      1 841         0.1135
     17 C4         22.4430   37.3070    3.6470 C.ar      1 841        -0.0160
     18 C          21.5930   37.9920    4.5580 C.ar      1 841        -0.0542
     19 N          20.8640   37.6100    1.8540 N.ar      1 841        -0.2853
     20 C2         19.9920   38.2480    2.6920 C.ar      1 841        -0.0042
     21 C1         20.3360   38.4800    4.0810 C.ar      1 841        -0.0480
     22 H1         19.7521   30.2736   -3.2255 H         1 841         0.0519
     23 H2         20.4819   31.8588   -3.6512 H         1 841         0.0519
     24 H3         17.8608   31.2899   -4.2671 H         1 841         0.0285
     25 H4         18.3815   32.9438   -3.7981 H         1 841         0.0285
     26 H5         16.9632   30.8345   -2.1180 H         1 841         0.0285
     27 H6         16.5732   32.5760   -2.3221 H         1 841         0.0285
     28 H7         18.3035   33.2604   -0.8931 H         1 841         0.0519
     29 H8         18.0709   31.6176   -0.2047 H         1 841         0.0519
     30 H9         19.8020   32.1772    0.8384 H         1 841         0.1845
     31 H10        22.6296   31.5735    1.0329 H         1 841         0.0520
     32 H11        21.6437   32.4574    2.2468 H         1 841         0.0520
     33 H12        23.3656   33.5424   -0.0081 H         1 841         0.0321
     34 H13        24.1005   33.5213    2.3526 H         1 841         0.0288
     35 H14        22.5942   34.3610    2.8553 H         1 841         0.0288
     36 H15        24.7089   35.5097    0.9260 H         1 841         0.0519
     37 H16        24.4880   35.9938    2.6417 H         1 841         0.0519
     38 H17        20.8626   34.9597    1.0473 H         1 841         0.0288
     39 H18        21.1687   34.4472   -0.6469 H         1 841         0.0288
     40 H19        21.7013   36.9275   -0.3539 H         1 841         0.0519
     41 H20        23.2125   36.0208   -0.7017 H         1 841         0.0519
     42 H21        23.3883   36.9052    3.9935 H         1 841         0.0610
     43 H22        21.8906   38.1409    5.5897 H         1 841         0.0699
     44 H23        19.0333   38.5839    2.3137 H         1 841         0.0781
     45 H24        19.6583   39.0095    4.7409 H         1 841         0.0597
@<TRIPOS>BOND
     1    1    2 2  
     2    2    3 am 
     3    2    8 am 
     4    3    4 1  
     5    3    7 1  
     6    4    5 1  
     7    5    6 1  
     8    6    7 1  
     9    8    9 1  
    10    9   10 1  
    11   10   11 1  
    12   10   13 1  
    13   11   12 1  
    14   12   15 1  
    15   13   14 1  
    16   14   15 1  
    17   15   16 1  
    18   16   17 ar 
    19   16   19 ar 
    20   17   18 ar 
    21   18   21 ar 
    22   19   20 ar 
    23   20   21 ar 
    24    4   22 1  
    25    4   23 1  
    26    5   24 1  
    27    5   25 1  
    28    6   26 1  
    29    6   27 1  
    30    7   28 1  
    31    7   29 1  
    32    8   30 1  
    33    9   31 1  
    34    9   32 1  
    35   10   33 1  
    36   11   34 1  
    37   11   35 1  
    38   12   36 1  
    39   12   37 1  
    40   13   38 1  
    41   13   39 1  
    42   14   40 1  
    43   14   41 1  
    44   17   42 1  
    45   18   43 1  
    46   20   44 1  
    47   21   45 1  
@<TRIPOS>SUBSTRUCTURE
     1 841         1

