### 
### Created by X-TOOL on Mon Sep 10 21:13:29 2018
### 

@<TRIPOS>MOLECULE
5ezx_ligand
   45    48     1     0     0
SMALL
GAST_HUCK


@<TRIPOS>ATOM
      1 C4        -19.5370   38.2570   92.2060 C.3       1 5T5        -0.0346
      2 C6        -20.8900   40.3330   91.7370 C.2       1 5T5         0.1433
      3 C7        -15.9470   40.2690   91.7750 C.cat     1 5T5         0.3437
      4 C8        -21.2640   41.3120   90.6800 C.ar      1 5T5         0.0612
      5 C20       -22.3720   42.1140   90.8760 C.ar      1 5T5         0.0302
      6 C21       -16.2020   36.7640   96.2470 C.ar      1 5T5         0.1355
      7 C22       -20.9460   42.3410   88.5500 C.ar      1 5T5         0.0742
      8 C26       -17.5370   37.1340   96.1990 C.ar      1 5T5         0.0017
      9 C28       -22.0510   43.1450   88.7930 C.ar      1 5T5         0.0298
     10 CL        -20.0500   42.5350   87.0200 Cl        1 5T5        -0.0595
     11 N13       -22.7250   42.9950   89.9450 N.ar      1 5T5        -0.2896
     12 C14       -20.5380   41.4250   89.4900 C.ar      1 5T5        -0.0096
     13 O15       -21.6820   40.0940   92.6340 O.2       1 5T5        -0.3748
     14 C2        -19.5550   39.6730   91.6610 C.3       1 5T5         0.0335
     15 C1        -19.0560   39.4200   93.0710 C.3       1 5T5        -0.0013
     16 C3        -17.5360   39.5290   93.2230 C.3       1 5T5         0.1191
     17 C9        -17.1380   40.9400   93.6790 C.3       1 5T5         0.0672
     18 O10       -16.1830   41.3520   92.6920 O.3       1 5T5        -0.3279
     19 N17       -14.9910   40.3020   90.8300 N.pl3     1 5T5        -0.2513
     20 N5        -16.7450   39.3120   92.0010 N.pl3     1 5T5        -0.2707
     21 C11       -17.0850   38.5530   94.2830 C.ar      1 5T5        -0.0146
     22 C19       -17.9710   38.0250   95.2260 C.ar      1 5T5        -0.0418
     23 C25       -15.3040   37.2960   95.3150 C.ar      1 5T5         0.0017
     24 C18       -15.7470   38.1820   94.3410 C.ar      1 5T5        -0.0418
     25 O16       -15.7770   35.8760   97.2090 O.3       1 5T5        -0.2297
     26 C12       -14.4870   35.9490   97.8490 C.3       1 5T5         0.3740
     27 F23       -13.6490   34.9910   97.3300 F         1 5T5        -0.1721
     28 F24       -13.9110   37.1920   97.7380 F         1 5T5        -0.1721
     29 H1        -18.8142   37.5257   91.8152 H         1 5T5         0.0288
     30 H2        -20.4818   37.7469   92.4451 H         1 5T5         0.0288
     31 H3        -22.9524   42.0250   91.7872 H         1 5T5         0.0881
     32 H4        -18.2398   36.7294   96.9183 H         1 5T5         0.0651
     33 H5        -22.3653   43.8830   88.0639 H         1 5T5         0.0865
     34 H6        -19.6693   40.8015   89.3122 H         1 5T5         0.0797
     35 H7        -18.9275   40.0036   90.8202 H         1 5T5         0.0517
     36 H8        -19.5992   39.7563   93.9665 H         1 5T5         0.0261
     37 H9        -16.6835   40.9163   94.6804 H         1 5T5         0.0485
     38 H10       -18.0094   41.6112   93.6876 H         1 5T5         0.0485
     39 H11       -14.8636   39.4987   90.1980 H         1 5T5         0.3201
     40 H12       -14.3861   41.1306   90.7381 H         1 5T5         0.3201
     41 H13       -16.8304   38.4797   91.4003 H         1 5T5         0.3105
     42 H14       -19.0149   38.3159   95.1975 H         1 5T5         0.0824
     43 H15       -14.2576   37.0154   95.3532 H         1 5T5         0.0651
     44 H16       -15.0444   38.5866   93.6215 H         1 5T5         0.0824
     45 H17       -14.6302   35.7395   98.9193 H         1 5T5         0.1440
@<TRIPOS>BOND
     1   14    1 1  
     2   15    1 1  
     3    2    4 1  
     4    2   13 2  
     5   14    2 1  
     6    3   18 1  
     7    3   19 ar 
     8   20    3 ar 
     9    4    5 ar 
    10    4   12 ar 
    11    5   11 ar 
    12    8    6 ar 
    13    6   23 ar 
    14    6   25 1  
    15    7    9 ar 
    16    7   10 1  
    17   12    7 ar 
    18   22    8 ar 
    19   11    9 ar 
    20   15   14 1  
    21   16   15 1  
    22   16   17 1  
    23   16   20 1  
    24   21   16 1  
    25   17   18 1  
    26   21   22 ar 
    27   21   24 ar 
    28   23   24 ar 
    29   25   26 1  
    30   26   27 1  
    31   26   28 1  
    32    1   29 1  
    33    1   30 1  
    34    5   31 1  
    35    8   32 1  
    36    9   33 1  
    37   12   34 1  
    38   14   35 1  
    39   15   36 1  
    40   17   37 1  
    41   17   38 1  
    42   19   39 1  
    43   19   40 1  
    44   20   41 1  
    45   22   42 1  
    46   23   43 1  
    47   24   44 1  
    48   26   45 1  
@<TRIPOS>SUBSTRUCTURE
     1 5T5         1

