### 
### Created by X-TOOL on Mon Sep 10 21:13:29 2018
### 

@<TRIPOS>MOLECULE
5ezz_ligand
   49    52     1     0     0
SMALL
GAST_HUCK


@<TRIPOS>ATOM
      1 C4        -17.0600   38.0700   94.4120 C.ar      1 5T6        -0.0420
      2 C5        -18.8540   39.3070   93.2990 C.ar      1 5T6        -0.0291
      3 C7        -16.8830   40.5490   94.0970 C.3       1 5T6         0.0566
      4 C8        -16.5710   35.8730   96.0770 C.ar      1 5T6         0.1317
      5 C10       -19.3990   40.0960   92.2880 C.ar      1 5T6        -0.0394
      6 C13       -20.7730   40.1960   92.1020 C.ar      1 5T6         0.0097
      7 C15       -21.2810   41.0840   91.0250 C.ar      1 5T6         0.0148
      8 C17       -17.0100   36.7850   93.8910 C.ar      1 5T6        -0.0571
      9 C24       -22.4720   41.7910   91.2170 C.ar      1 5T6         0.0191
     10 C26       -22.2630   42.8000   89.1060 C.ar      1 5T6         0.0248
     11 C28       -21.6460   39.5130   92.9390 C.ar      1 5T6        -0.0325
     12 F22       -14.1410   35.0120   97.1570 F         1 5T6        -0.1726
     13 C14       -15.2330   34.2260   97.4190 C.3       1 5T6         0.3717
     14 F21       -15.1590   32.9590   96.9260 F         1 5T6        -0.1726
     15 O11       -16.3920   34.7460   96.8240 O.3       1 5T6        -0.2372
     16 C12       -16.6460   37.1470   96.6300 C.ar      1 5T6         0.0107
     17 C30       -16.4530   37.3880   98.1100 C.3       1 5T6        -0.0265
     18 C9        -16.8830   38.2400   95.7890 C.ar      1 5T6        -0.0515
     19 C19       -16.7690   35.6940   94.7110 C.ar      1 5T6        -0.0094
     20 C1        -17.3540   39.2320   93.4850 C.3       1 5T6         0.1170
     21 N2        -16.6410   39.1180   92.1980 N.pl3     1 5T6        -0.2857
     22 C3        -15.8130   40.0620   92.0500 C.cat     1 5T6         0.3397
     23 N20       -14.9650   40.1890   91.0190 N.pl3     1 5T6        -0.2516
     24 O6        -15.8890   40.9920   93.1590 O.3       1 5T6        -0.3322
     25 C27       -19.7390   38.6090   94.1320 C.ar      1 5T6        -0.0482
     26 C29       -21.1230   38.7050   93.9500 C.ar      1 5T6        -0.0398
     27 C18       -20.5640   41.2550   89.8290 C.ar      1 5T6        -0.0206
     28 N16       -22.9240   42.6150   90.2550 N.ar      1 5T6        -0.2959
     29 C23       -21.0720   42.1180   88.8660 C.ar      1 5T6         0.0686
     30 CL        -20.2060   42.3750   87.3210 Cl        1 5T6        -0.0610
     31 H1        -16.4456   40.3899   95.0937 H         1 5T6         0.0441
     32 H2        -17.7096   41.2710   94.1703 H         1 5T6         0.0441
     33 H3        -18.7352   40.6454   91.6303 H         1 5T6         0.0795
     34 H4        -17.1614   36.6324   92.8285 H         1 5T6         0.0733
     35 H5        -23.0298   41.6752   92.1392 H         1 5T6         0.0831
     36 H6        -22.6552   43.4821   88.3603 H         1 5T6         0.0825
     37 H7        -22.7181   39.6061   92.8090 H         1 5T6         0.0801
     38 H8        -15.3595   34.1823   98.5108 H         1 5T6         0.1434
     39 H9        -16.5545   38.4624   98.3228 H         1 5T6         0.0377
     40 H10       -15.4506   37.0480   98.4092 H         1 5T6         0.0377
     41 H11       -17.2136   36.8290   98.6748 H         1 5T6         0.0377
     42 H12       -16.9303   39.2367   96.2125 H         1 5T6         0.0690
     43 H13       -16.7346   34.6971   94.2867 H         1 5T6         0.0616
     44 H14       -16.7974   38.3675   91.5101 H         1 5T6         0.3059
     45 H15       -14.3217   40.9923   90.9772 H         1 5T6         0.3201
     46 H16       -14.9569   39.4832   90.2689 H         1 5T6         0.3201
     47 H17       -19.3461   37.9866   94.9278 H         1 5T6         0.0785
     48 H18       -21.7921   38.1494   94.5970 H         1 5T6         0.0677
     49 H19       -19.6337   40.7246   89.6610 H         1 5T6         0.0746
@<TRIPOS>BOND
     1    8    1 ar 
     2    1   18 ar 
     3    1   20 1  
     4    2    5 ar 
     5   20    2 1  
     6    2   25 ar 
     7   20    3 1  
     8    3   24 1  
     9   15    4 1  
    10    4   16 ar 
    11    4   19 ar 
    12    5    6 ar 
    13    6    7 1  
    14    6   11 ar 
    15    7    9 ar 
    16    7   27 ar 
    17   19    8 ar 
    18    9   28 ar 
    19   28   10 ar 
    20   10   29 ar 
    21   11   26 ar 
    22   13   12 1  
    23   13   14 1  
    24   13   15 1  
    25   16   17 1  
    26   16   18 ar 
    27   20   21 1  
    28   21   22 ar 
    29   22   23 ar 
    30   22   24 1  
    31   25   26 ar 
    32   27   29 ar 
    33   29   30 1  
    34    3   31 1  
    35    3   32 1  
    36    5   33 1  
    37    8   34 1  
    38    9   35 1  
    39   10   36 1  
    40   11   37 1  
    41   13   38 1  
    42   17   39 1  
    43   17   40 1  
    44   17   41 1  
    45   18   42 1  
    46   19   43 1  
    47   21   44 1  
    48   23   45 1  
    49   23   46 1  
    50   25   47 1  
    51   26   48 1  
    52   27   49 1  
@<TRIPOS>SUBSTRUCTURE
     1 5T6         1

