### 
### Created by X-TOOL on Mon Sep 10 21:13:29 2018
### 

@<TRIPOS>MOLECULE
5f00_ligand
   46    49     1     0     0
SMALL
GAST_HUCK


@<TRIPOS>ATOM
      1 C4        -14.8530   42.2880    8.3270 C.3       1 5T8         0.1181
      2 C6        -16.0380   41.0190    9.9890 C.3       1 5T8         0.0712
      3 C7        -20.0190   39.5250    8.7990 C.ar      1 5T8        -0.0403
      4 C8        -20.3150   40.1330    7.5960 C.ar      1 5T8        -0.0094
      5 C10       -17.9540   40.5440    7.2880 C.ar      1 5T8        -0.0134
      6 C13       -16.0530   38.5310    9.7560 C.3       1 5T8        -0.0393
      7 C17       -21.6020   42.4350    5.9620 C.ar      1 5T8        -0.0360
      8 C20       -20.3310   42.7070    3.9190 C.ar      1 5T8         0.0763
      9 C21       -21.2890   43.6200    3.4320 C.ar      1 5T8        -0.0024
     10 C22       -21.0750   44.2030    2.1530 C.ar      1 5T8        -0.0258
     11 C24       -19.0590   42.9260    1.9970 C.ar      1 5T8         0.0224
     12 C1        -16.2580   39.8530    9.0050 C.3       1 5T8         0.1185
     13 N2        -15.3210   39.9170    7.8790 N.pl3     1 5T8        -0.2872
     14 C3        -14.6830   40.9910    7.5780 C.cat     1 5T8         0.2245
     15 O5        -15.9780   42.2500    9.2480 O.3       1 5T8        -0.3812
     16 C9        -19.2640   40.6480    6.8390 C.ar      1 5T8         0.0900
     17 C11       -17.6710   39.9480    8.4890 C.ar      1 5T8        -0.0109
     18 C12       -18.7080   39.4380    9.2380 C.ar      1 5T8        -0.0456
     19 N14       -13.8210   40.9410    6.5080 N.pl3     1 5T8        -0.2748
     20 N15       -19.4930   41.2450    5.6000 N.pl3     1 5T8        -0.2641
     21 C16       -20.4960   42.1170    5.1900 C.ar      1 5T8         0.0867
     22 C18       -22.5300   43.3480    5.4610 C.ar      1 5T8        -0.0717
     23 C19       -22.4030   43.9310    4.2290 C.ar      1 5T8        -0.0624
     24 C23       -19.9450   43.8370    1.4550 C.ar      1 5T8         0.0672
     25 N25       -19.2680   42.3990    3.1720 N.ar      1 5T8        -0.2944
     26 CL2       -19.5950   44.4780   -0.1180 Cl        1 5T8        -0.0631
     27 H1        -15.0179   43.0972    7.6004 H         1 5T8         0.0576
     28 H2        -13.9349   42.4896    8.8983 H         1 5T8         0.0576
     29 H3        -15.0939   40.8695   10.5333 H         1 5T8         0.0510
     30 H4        -16.8718   41.0597   10.7054 H         1 5T8         0.0510
     31 H5        -20.8179   39.1126    9.4046 H         1 5T8         0.0672
     32 H6        -21.3390   40.2082    7.2485 H         1 5T8         0.0785
     33 H7        -17.1466   40.9386    6.6818 H         1 5T8         0.0746
     34 H8        -16.2071   37.6891    9.0650 H         1 5T8         0.0181
     35 H9        -16.7750   38.4633   10.5831 H         1 5T8         0.0181
     36 H10       -15.0299   38.4926   10.1583 H         1 5T8         0.0181
     37 H11       -21.7433   41.9827    6.9370 H         1 5T8         0.0513
     38 H12       -21.7803   44.9146    1.7392 H         1 5T8         0.0748
     39 H13       -18.1750   42.6443    1.4364 H         1 5T8         0.0839
     40 H14       -15.1690   39.0721    7.3098 H         1 5T8         0.3104
     41 H15       -18.4947   38.9603   10.1874 H         1 5T8         0.0764
     42 H16       -13.6961   40.0607    5.9880 H         1 5T8         0.3178
     43 H17       -13.3002   41.7838    6.2264 H         1 5T8         0.3178
     44 H18       -18.8085   41.0007    4.8701 H         1 5T8         0.2123
     45 H19       -23.3870   43.6065    6.0724 H         1 5T8         0.0599
     46 H20       -23.1546   44.6257    3.8720 H         1 5T8         0.0506
@<TRIPOS>BOND
     1   14    1 1  
     2   15    1 1  
     3   12    2 1  
     4    2   15 1  
     5    4    3 ar 
     6    3   18 ar 
     7   16    4 ar 
     8   16    5 ar 
     9    5   17 ar 
    10   12    6 1  
    11   21    7 ar 
    12    7   22 ar 
    13    8    9 ar 
    14   21    8 ar 
    15    8   25 ar 
    16    9   10 ar 
    17    9   23 ar 
    18   10   24 ar 
    19   11   24 ar 
    20   25   11 ar 
    21   12   13 1  
    22   17   12 1  
    23   13   14 ar 
    24   14   19 ar 
    25   20   16 1  
    26   17   18 ar 
    27   20   21 1  
    28   22   23 ar 
    29   24   26 1  
    30    1   27 1  
    31    1   28 1  
    32    2   29 1  
    33    2   30 1  
    34    3   31 1  
    35    4   32 1  
    36    5   33 1  
    37    6   34 1  
    38    6   35 1  
    39    6   36 1  
    40    7   37 1  
    41   10   38 1  
    42   11   39 1  
    43   13   40 1  
    44   18   41 1  
    45   19   42 1  
    46   19   43 1  
    47   20   44 1  
    48   22   45 1  
    49   23   46 1  
@<TRIPOS>SUBSTRUCTURE
     1 5T8         1

