### 
### Created by X-TOOL on Mon Sep 10 21:13:28 2018
### 

@<TRIPOS>MOLECULE
5f01_ligand
   45    48     1     0     0
SMALL
GAST_HUCK


@<TRIPOS>ATOM
      1 C5        -15.3640   40.3640    7.4110 C.cat     1 5T7         0.3548
      2 C7        -18.7160   39.6870    7.0340 C.3       1 5T7         0.0638
      3 C8        -18.7880   38.1930    7.3540 C.3       1 5T7        -0.0222
      4 C10       -20.0300   40.3600    6.7680 C.2       1 5T7         0.2114
      5 N12       -20.0270   41.2100    5.7460 N.am      1 5T7        -0.2262
      6 C13       -16.6250   37.9020    9.6450 C.3       1 5T7        -0.0112
      7 C17       -21.0570   42.0090    5.2650 C.ar      1 5T7         0.0961
      8 C20       -22.9840   43.7250    4.1610 C.ar      1 5T7        -0.0665
      9 C21       -20.8900   42.5110    3.9730 C.ar      1 5T7         0.0767
     10 C22       -21.8480   43.3710    3.4060 C.ar      1 5T7        -0.0056
     11 C24       -20.4940   43.4320    1.4420 C.ar      1 5T7         0.0662
     12 C1        -16.8990   39.1970    8.8810 C.3       1 5T7         0.1775
     13 C2        -16.5990   40.4150    9.7650 C.3       1 5T7         0.3168
     14 C3        -16.6340   41.6770    8.9050 C.3       1 5T7         0.1171
     15 O4        -15.4900   41.5550    8.0190 O.3       1 5T7        -0.3151
     16 N6        -15.9790   39.2740    7.7400 N.pl3     1 5T7        -0.2271
     17 C9        -18.3600   39.1970    8.4280 C.3       1 5T7         0.0344
     18 O11       -21.0280   40.1410    7.4430 O.2       1 5T7        -0.3822
     19 F14       -17.5740   40.5320   10.7570 F         1 5T7        -0.1976
     20 F15       -15.3590   40.2360   10.3930 F         1 5T7        -0.1976
     21 N16       -14.5280   40.3260    6.3310 N.pl3     1 5T7        -0.2506
     22 C18       -22.1680   42.3770    6.0020 C.ar      1 5T7        -0.0379
     23 C19       -23.1210   43.2270    5.4250 C.ar      1 5T7        -0.0763
     24 C23       -21.6380   43.8420    2.0900 C.ar      1 5T7        -0.0272
     25 C25       -19.5910   42.5870    2.0660 C.ar      1 5T7         0.0216
     26 N26       -19.8050   42.1410    3.2720 N.ar      1 5T7        -0.2952
     27 CL2       -20.1180   43.9890   -0.1510 Cl        1 5T7        -0.0632
     28 H1        -17.9334   40.0992    6.3801 H         1 5T7         0.0549
     29 H2        -18.0508   37.5005    6.9217 H         1 5T7         0.0298
     30 H3        -19.7642   37.6911    7.4263 H         1 5T7         0.0298
     31 H4        -19.1601   41.2851    5.2532 H         1 5T7         0.2316
     32 H5        -16.8450   37.0406    8.9972 H         1 5T7         0.0280
     33 H6        -17.2646   37.8613   10.5390 H         1 5T7         0.0280
     34 H7        -15.5682   37.8719    9.9486 H         1 5T7         0.0280
     35 H8        -23.7380   44.3830    3.7444 H         1 5T7         0.0469
     36 H9        -16.5438   42.5760    9.5325 H         1 5T7         0.0617
     37 H10       -17.5684   41.7258    8.3266 H         1 5T7         0.0617
     38 H11       -15.8163   38.4261    7.1784 H         1 5T7         0.3234
     39 H12       -19.0188   39.4226    9.2795 H         1 5T7         0.0380
     40 H13       -14.3870   39.4431    5.8197 H         1 5T7         0.3202
     41 H14       -14.0387   41.1803    6.0282 H         1 5T7         0.3202
     42 H15       -22.3000   42.0121    7.0142 H         1 5T7         0.0474
     43 H16       -23.9974   43.4986    6.0022 H         1 5T7         0.0587
     44 H17       -22.3510   44.5015    1.6086 H         1 5T7         0.0740
     45 H18       -18.6896   42.2911    1.5416 H         1 5T7         0.0829
@<TRIPOS>BOND
     1    1   15 1  
     2   16    1 ar 
     3    1   21 ar 
     4    3    2 1  
     5    2    4 1  
     6   17    2 1  
     7   17    3 1  
     8    4    5 am 
     9    4   18 2  
    10    5    7 1  
    11   12    6 1  
    12    7    9 ar 
    13    7   22 ar 
    14   10    8 ar 
    15    8   23 ar 
    16    9   10 ar 
    17    9   26 ar 
    18   10   24 ar 
    19   24   11 ar 
    20   11   25 ar 
    21   11   27 1  
    22   12   13 1  
    23   12   16 1  
    24   12   17 1  
    25   13   14 1  
    26   13   19 1  
    27   13   20 1  
    28   14   15 1  
    29   22   23 ar 
    30   25   26 ar 
    31    2   28 1  
    32    3   29 1  
    33    3   30 1  
    34    5   31 1  
    35    6   32 1  
    36    6   33 1  
    37    6   34 1  
    38    8   35 1  
    39   14   36 1  
    40   14   37 1  
    41   16   38 1  
    42   17   39 1  
    43   21   40 1  
    44   21   41 1  
    45   22   42 1  
    46   23   43 1  
    47   24   44 1  
    48   25   45 1  
@<TRIPOS>SUBSTRUCTURE
     1 5T7         1

