### 
### Created by X-TOOL on Mon Sep 10 21:13:28 2018
### 

@<TRIPOS>MOLECULE
5f04_ligand
   56    58     1     0     0
SMALL
GAST_HUCK


@<TRIPOS>ATOM
      1 C1         27.7730    9.7060   -2.9850 C.3       1 5TB        -0.0390
      2 C2         27.8990    9.7830   -4.5000 C.3       1 5TB        -0.0501
      3 C3         27.3940    8.4590   -5.0680 C.3       1 5TB        -0.0528
      4 O          26.9220   13.6650   -1.5050 O.2       1 5TB        -0.3968
      5 C7         27.8860   13.4780   -2.2120 C.2       1 5TB         0.1800
      6 C6         28.0510   12.2120   -3.0330 C.3       1 5TB         0.0377
      7 C5         27.3060   11.0370   -2.4050 C.3       1 5TB        -0.0332
      8 C4         26.7070    7.7050   -3.9390 C.3       1 5TB        -0.0528
      9 C          26.7640    8.5930   -2.7050 C.3       1 5TB        -0.0501
     10 N          28.8440   14.3760   -2.2920 N.am      1 5TB        -0.2530
     11 C11        29.2710   15.0770   -1.0870 C.3       1 5TB         0.1132
     12 N1         29.7080   16.4090   -1.4300 N.pl3     1 5TB        -0.2921
     13 C10        29.2420   16.9660   -2.6720 C.3       1 5TB         0.0292
     14 C9         29.9430   16.0620   -3.6520 C.3       1 5TB        -0.0129
     15 C8         29.5260   14.6080   -3.5620 C.3       1 5TB         0.0376
     16 C12        30.5500   17.1360   -0.6030 C.ar      1 5TB         0.0350
     17 C17        31.4320   18.0840   -1.1240 C.ar      1 5TB        -0.0504
     18 C16        32.2410   18.7930   -0.2420 C.ar      1 5TB        -0.0666
     19 C15        32.1540   18.5520    1.1230 C.ar      1 5TB        -0.0115
     20 C14        31.2730   17.6180    1.6280 C.ar      1 5TB        -0.0666
     21 C13        30.4710   16.9120    0.7550 C.ar      1 5TB        -0.0504
     22 C18        33.0040   19.3040    2.1020 C.3       1 5TB        -0.0059
     23 N2         32.2370   20.4350    2.5700 N.4       1 5TB         0.2352
     24 C19        32.0050   21.5450    1.6660 C.3       1 5TB        -0.0437
     25 H1         28.7459    9.4478   -2.5414 H         1 5TB         0.0302
     26 H2         28.9510    9.9364   -4.7825 H         1 5TB         0.0268
     27 H3         27.2907   10.6141   -4.8861 H         1 5TB         0.0268
     28 H4         28.2392    7.8694   -5.4527 H         1 5TB         0.0265
     29 H5         26.6787    8.6487   -5.8818 H         1 5TB         0.0265
     30 H6         29.1208   11.9640   -3.0965 H         1 5TB         0.0502
     31 H7         27.6545   12.3873   -4.0440 H         1 5TB         0.0502
     32 H8         27.4871   11.0375   -1.3200 H         1 5TB         0.0292
     33 H9         26.2291   11.1526   -2.5971 H         1 5TB         0.0292
     34 H10        27.2304    6.7571   -3.7456 H         1 5TB         0.0265
     35 H11        25.6602    7.4980   -4.2063 H         1 5TB         0.0265
     36 H12        25.7722    9.0262   -2.5082 H         1 5TB         0.0268
     37 H13        27.0866    8.0044   -1.8336 H         1 5TB         0.0268
     38 H14        30.1019   14.5284   -0.6195 H         1 5TB         0.0782
     39 H15        28.4292   15.1384   -0.3816 H         1 5TB         0.0782
     40 H16        29.5538   18.0142   -2.7904 H         1 5TB         0.0512
     41 H17        28.1481   16.8961   -2.7644 H         1 5TB         0.0512
     42 H18        31.0252   16.1229   -3.4647 H         1 5TB         0.0304
     43 H19        29.7261   16.4210   -4.6689 H         1 5TB         0.0304
     44 H20        28.8456   14.3695   -4.3927 H         1 5TB         0.0523
     45 H21        30.4174   13.9664   -3.6223 H         1 5TB         0.0523
     46 H22        31.4854   18.2637   -2.1917 H         1 5TB         0.0499
     47 H23        32.9381   19.5323   -0.6194 H         1 5TB         0.0526
     48 H24        31.2117   17.4413    2.6957 H         1 5TB         0.0526
     49 H25        29.7740   16.1762    1.1396 H         1 5TB         0.0499
     50 H26        33.9236   19.6528    1.6095 H         1 5TB         0.0953
     51 H27        33.2660   18.6526    2.9488 H         1 5TB         0.0953
     52 H28        32.7163   20.8048    3.3759 H         1 5TB         0.2023
     53 H29        31.3333   20.0854    2.8476 H         1 5TB         0.2023
     54 H30        31.4091   22.3156    2.1769 H         1 5TB         0.0777
     55 H31        31.4603   21.1882    0.7794 H         1 5TB         0.0777
     56 H32        32.9696   21.9732    1.3560 H         1 5TB         0.0777
@<TRIPOS>BOND
     1    1    2 1  
     2    7    1 1  
     3    1    9 1  
     4    2    3 1  
     5    3    8 1  
     6    5    4 2  
     7    6    5 1  
     8    5   10 am 
     9    6    7 1  
    10    8    9 1  
    11   10   11 1  
    12   10   15 1  
    13   11   12 1  
    14   12   13 1  
    15   12   16 1  
    16   13   14 1  
    17   14   15 1  
    18   16   17 ar 
    19   16   21 ar 
    20   17   18 ar 
    21   18   19 ar 
    22   19   20 ar 
    23   19   22 1  
    24   20   21 ar 
    25   22   23 1  
    26   23   24 1  
    27    1   25 1  
    28    2   26 1  
    29    2   27 1  
    30    3   28 1  
    31    3   29 1  
    32    6   30 1  
    33    6   31 1  
    34    7   32 1  
    35    7   33 1  
    36    8   34 1  
    37    8   35 1  
    38    9   36 1  
    39    9   37 1  
    40   11   38 1  
    41   11   39 1  
    42   13   40 1  
    43   13   41 1  
    44   14   42 1  
    45   14   43 1  
    46   15   44 1  
    47   15   45 1  
    48   17   46 1  
    49   18   47 1  
    50   20   48 1  
    51   21   49 1  
    52   22   50 1  
    53   22   51 1  
    54   23   52 1  
    55   23   53 1  
    56   24   54 1  
    57   24   55 1  
    58   24   56 1  
@<TRIPOS>SUBSTRUCTURE
     1 5TB         1

