### 
### Created by X-TOOL on Mon Sep 10 21:13:28 2018
### 

@<TRIPOS>MOLECULE
5f08_ligand
   50    52     1     0     0
SMALL
GAST_HUCK


@<TRIPOS>ATOM
      1 N          28.8630   14.6990   -1.5790 N.am      1 5TG        -0.2732
      2 C          29.2060   15.6880   -0.5520 C.3       1 5TG         0.0339
      3 O2         27.7300   13.3690   -0.1060 O.2       1 5TG        -0.3969
      4 C4         28.1870   13.6240   -1.2820 C.2       1 5TG         0.1784
      5 C3         29.2830   14.9780   -2.9620 C.3       1 5TG         0.0339
      6 C2         29.9980   16.3270   -2.8030 C.3       1 5TG        -0.0307
      7 C1         30.1330   16.6090   -1.3100 C.3       1 5TG        -0.0307
      8 C5         28.0700   12.6480   -2.4270 C.3       1 5TG         0.0377
      9 C6         27.2630   11.4600   -1.9710 C.3       1 5TG        -0.0331
     10 C7         27.0180   10.4370   -3.0610 C.3       1 5TG        -0.0354
     11 C11        26.2810    9.3370   -2.3490 C.3       1 5TG        -0.0305
     12 C10        25.9170    8.2580   -3.3730 C.3       1 5TG         0.0257
     13 N1         27.0880    7.7910   -4.0990 N.pl3     1 5TG        -0.3124
     14 C9         27.8970    8.7690   -4.7910 C.3       1 5TG         0.0257
     15 C8         28.2800    9.8430   -3.7350 C.3       1 5TG        -0.0305
     16 C12        27.2440    6.3360   -4.0540 C.ar      1 5TG         0.0334
     17 C17        28.3150    5.6620   -4.5420 C.ar      1 5TG        -0.0506
     18 C16        28.3590    4.2510   -4.4580 C.ar      1 5TG        -0.0719
     19 C15        27.2940    3.5220   -3.8790 C.ar      1 5TG        -0.0589
     20 C14        26.1860    4.1970   -3.3990 C.ar      1 5TG        -0.0719
     21 C13        26.2090    5.5940   -3.4970 C.ar      1 5TG        -0.0506
     22 C18        27.3320    2.0020   -3.7880 C.3       1 5TG        -0.0372
     23 H1         29.7170   15.2188    0.3016 H         1 5TG         0.0522
     24 H2         28.3129   16.2225   -0.1960 H         1 5TG         0.0522
     25 H3         28.4171   15.0599   -3.6354 H         1 5TG         0.0522
     26 H4         29.9675   14.2031   -3.3374 H         1 5TG         0.0522
     27 H5         29.4081   17.1222   -3.2823 H         1 5TG         0.0285
     28 H6         30.9944   16.2795   -3.2666 H         1 5TG         0.0285
     29 H7         31.1711   16.4306   -0.9930 H         1 5TG         0.0285
     30 H8         29.8619   17.6554   -1.1060 H         1 5TG         0.0285
     31 H9         29.0729   12.3175   -2.7352 H         1 5TG         0.0502
     32 H10        27.5666   13.1329   -3.2764 H         1 5TG         0.0502
     33 H11        26.2893   11.8202   -1.6074 H         1 5TG         0.0292
     34 H12        27.8027   10.9685   -1.1482 H         1 5TG         0.0292
     35 H13        26.3885   10.8848   -3.8441 H         1 5TG         0.0303
     36 H14        25.3651    9.7390   -1.8914 H         1 5TG         0.0287
     37 H15        26.9228    8.9055   -1.5668 H         1 5TG         0.0287
     38 H16        25.1955    8.6758   -4.0905 H         1 5TG         0.0511
     39 H17        25.4602    7.4066   -2.8472 H         1 5TG         0.0511
     40 H18        27.3232    9.2275   -5.6098 H         1 5TG         0.0511
     41 H19        28.8024    8.2952   -5.1981 H         1 5TG         0.0511
     42 H20        28.9142    9.3795   -2.9649 H         1 5TG         0.0287
     43 H21        28.8369   10.6517   -4.2308 H         1 5TG         0.0287
     44 H22        29.1365    6.2043   -4.9960 H         1 5TG         0.0499
     45 H23        29.2220    3.7200   -4.8432 H         1 5TG         0.0525
     46 H24        25.3418    3.6708   -2.9684 H         1 5TG         0.0525
     47 H25        25.3551    6.1376   -3.1092 H         1 5TG         0.0499
     48 H26        28.2773    1.6328   -4.2124 H         1 5TG         0.0366
     49 H27        26.4873    1.5797   -4.3520 H         1 5TG         0.0366
     50 H28        27.2590    1.6958   -2.7340 H         1 5TG         0.0366
@<TRIPOS>BOND
     1    1    2 1  
     2    1    4 am 
     3    1    5 1  
     4    2    7 1  
     5    4    3 2  
     6    4    8 1  
     7    5    6 1  
     8    6    7 1  
     9    8    9 1  
    10    9   10 1  
    11   10   11 1  
    12   10   15 1  
    13   11   12 1  
    14   12   13 1  
    15   13   14 1  
    16   13   16 1  
    17   14   15 1  
    18   16   17 ar 
    19   16   21 ar 
    20   17   18 ar 
    21   18   19 ar 
    22   19   20 ar 
    23   19   22 1  
    24   20   21 ar 
    25    2   23 1  
    26    2   24 1  
    27    5   25 1  
    28    5   26 1  
    29    6   27 1  
    30    6   28 1  
    31    7   29 1  
    32    7   30 1  
    33    8   31 1  
    34    8   32 1  
    35    9   33 1  
    36    9   34 1  
    37   10   35 1  
    38   11   36 1  
    39   11   37 1  
    40   12   38 1  
    41   12   39 1  
    42   14   40 1  
    43   14   41 1  
    44   15   42 1  
    45   15   43 1  
    46   17   44 1  
    47   18   45 1  
    48   20   46 1  
    49   21   47 1  
    50   22   48 1  
    51   22   49 1  
    52   22   50 1  
@<TRIPOS>SUBSTRUCTURE
     1 5TG         1

