### 
### Created by X-TOOL on Mon Sep 10 21:13:28 2018
### 

@<TRIPOS>MOLECULE
5f0c_ligand
   50    52     1     0     0
SMALL
GAST_HUCK


@<TRIPOS>ATOM
      1 C1         32.5010   19.6380   -0.1930 C.3       1 5TE         0.0265
      2 C2         31.4930   17.6240    1.0320 C.3       1 5TE         0.0265
      3 C3         31.7320   18.4310    2.3330 C.3       1 5TE        -0.0332
      4 N1         28.8850   15.3090   -2.7720 N.am      1 5TE        -0.2369
      5 C4         32.8680   19.4240    2.3070 C.3       1 5TE        -0.0495
      6 C5         31.0160   17.9830   -1.3860 C.ar      1 5TE         0.0257
      7 C6         30.1900   16.8270   -1.4220 C.ar      1 5TE        -0.0255
      8 C7         29.6860   16.3560   -2.6470 C.ar      1 5TE         0.0540
      9 C8         30.0180   16.9600   -3.8670 C.ar      1 5TE        -0.0544
     10 C9         30.8850   18.0740   -3.8560 C.ar      1 5TE        -0.0866
     11 C10        31.3880   18.5530   -2.6040 C.ar      1 5TE        -0.0596
     12 C11        28.4040   14.4750   -1.8440 C.2       1 5TE         0.2034
     13 C12        27.5400   13.3790   -2.3990 C.3       1 5TE         0.0434
     14 C13        28.4700   12.3940   -3.1130 C.3       1 5TE        -0.0327
     15 C14        27.6460   11.1620   -3.6270 C.3       1 5TE        -0.0390
     16 C15        27.3500   10.2400   -2.4890 C.3       1 5TE        -0.0501
     17 C16        27.4240    8.8070   -3.0780 C.3       1 5TE        -0.0528
     18 C17        27.8200    8.8960   -4.5340 C.3       1 5TE        -0.0528
     19 C18        28.3950   10.3120   -4.6520 C.3       1 5TE        -0.0501
     20 O          28.6390   14.5030   -0.6380 O.2       1 5TE        -0.3849
     21 N          31.6060   18.4780   -0.1750 N.pl3     1 5TE        -0.3119
     22 C          32.7070   20.4090    1.1150 C.3       1 5TE        -0.0332
     23 H1         32.1009   20.3482   -0.9316 H         1 5TE         0.0513
     24 H2         33.4888   19.2837   -0.5227 H         1 5TE         0.0513
     25 H3         30.4845   17.1860    1.0650 H         1 5TE         0.0513
     26 H4         32.2404   16.8193    0.9699 H         1 5TE         0.0513
     27 H5         31.9344   17.7120    3.1405 H         1 5TE         0.0284
     28 H6         30.8085   18.9847    2.5579 H         1 5TE         0.0284
     29 H7         28.5939   15.1108   -3.7079 H         1 5TE         0.2253
     30 H8         33.8195   18.8821    2.2020 H         1 5TE         0.0267
     31 H9         32.8721   19.9933    3.2482 H         1 5TE         0.0267
     32 H10        29.9479   16.3069   -0.5022 H         1 5TE         0.0390
     33 H11        29.6174   16.5798   -4.7998 H         1 5TE         0.0397
     34 H12        31.1662   18.5603   -4.7831 H         1 5TE         0.0546
     35 H13        32.0811   19.3865   -2.6023 H         1 5TE         0.0392
     36 H14        26.8124   13.7955   -3.1111 H         1 5TE         0.0508
     37 H15        27.0050   12.8701   -1.5836 H         1 5TE         0.0508
     38 H16        29.2439   12.0487   -2.4117 H         1 5TE         0.0292
     39 H17        28.9472   12.8962   -3.9674 H         1 5TE         0.0292
     40 H18        26.7090   11.5288   -4.0714 H         1 5TE         0.0302
     41 H19        26.3454   10.4377   -2.0868 H         1 5TE         0.0268
     42 H20        28.0959   10.3651   -1.6903 H         1 5TE         0.0268
     43 H21        26.4409    8.3211   -2.9918 H         1 5TE         0.0265
     44 H22        28.1730    8.2195   -2.5269 H         1 5TE         0.0265
     45 H23        26.9458    8.7690   -5.1895 H         1 5TE         0.0265
     46 H24        28.5787    8.1397   -4.7838 H         1 5TE         0.0265
     47 H25        29.4721   10.3061   -4.4287 H         1 5TE         0.0268
     48 H26        28.2329   10.7062   -5.6660 H         1 5TE         0.0268
     49 H27        31.8359   21.0560    1.2951 H         1 5TE         0.0284
     50 H28        33.6125   21.0279    1.0318 H         1 5TE         0.0284
@<TRIPOS>BOND
     1   21    1 1  
     2    1   22 1  
     3    2    3 1  
     4   21    2 1  
     5    3    5 1  
     6    8    4 1  
     7    4   12 am 
     8   22    5 1  
     9    7    6 ar 
    10    6   11 ar 
    11    6   21 1  
    12    7    8 ar 
    13    8    9 ar 
    14    9   10 ar 
    15   10   11 ar 
    16   12   13 1  
    17   12   20 2  
    18   13   14 1  
    19   14   15 1  
    20   15   16 1  
    21   15   19 1  
    22   16   17 1  
    23   17   18 1  
    24   18   19 1  
    25    1   23 1  
    26    1   24 1  
    27    2   25 1  
    28    2   26 1  
    29    3   27 1  
    30    3   28 1  
    31    4   29 1  
    32    5   30 1  
    33    5   31 1  
    34    7   32 1  
    35    9   33 1  
    36   10   34 1  
    37   11   35 1  
    38   13   36 1  
    39   13   37 1  
    40   14   38 1  
    41   14   39 1  
    42   15   40 1  
    43   16   41 1  
    44   16   42 1  
    45   17   43 1  
    46   17   44 1  
    47   18   45 1  
    48   18   46 1  
    49   19   47 1  
    50   19   48 1  
    51   22   49 1  
    52   22   50 1  
@<TRIPOS>SUBSTRUCTURE
     1 5TE         1

