### 
### Created by X-TOOL on Mon Sep 10 21:13:28 2018
### 

@<TRIPOS>MOLECULE
5f0h_ligand
   66    69     1     0     0
SMALL
GAST_HUCK


@<TRIPOS>ATOM
      1 N          26.8090   -5.5850   -4.3890 N.pl3     1 5TC        -0.3125
      2 O          27.1800  -13.0340   -7.7770 O.2       1 5TC        -0.3969
      3 C          25.8830   -4.5520   -4.8910 C.3       1 5TC         0.0255
      4 C12        27.4750  -12.9670   -6.5560 C.2       1 5TC         0.1776
      5 N1         27.3480  -11.9050   -5.6680 N.am      1 5TC        -0.2776
      6 C11        26.4550  -10.8820   -6.0200 C.3       1 5TC         0.0586
      7 C8         26.6300   -9.5580   -5.4450 C.ar      1 5TC        -0.0338
      8 C7         27.7140   -9.1580   -4.6940 C.ar      1 5TC        -0.0697
      9 C6         27.7320   -7.8310   -4.2890 C.ar      1 5TC        -0.0506
     10 C9         25.6230   -8.6790   -5.8250 C.ar      1 5TC        -0.0697
     11 C10        25.6390   -7.3460   -5.4130 C.ar      1 5TC        -0.0506
     12 C5         26.7250   -6.9360   -4.6620 C.ar      1 5TC         0.0334
     13 C4         27.9790   -5.1220   -3.6740 C.3       1 5TC         0.0255
     14 C3         28.6330   -4.0520   -4.5050 C.3       1 5TC        -0.0334
     15 C2         27.7740   -2.7980   -4.4450 C.3       1 5TC        -0.0495
     16 C1         26.2800   -3.1520   -4.3160 C.3       1 5TC        -0.0334
     17 C13        28.0240  -14.1270   -5.8700 C.3       1 5TC         0.0376
     18 C14        28.0980  -15.2340   -6.8520 C.3       1 5TC        -0.0331
     19 C15        29.1100  -16.2880   -6.5420 C.3       1 5TC        -0.0353
     20 C19        29.3400  -16.3340   -5.0400 C.3       1 5TC        -0.0298
     21 C18        30.3680  -17.3870   -4.6840 C.3       1 5TC         0.0293
     22 N2         31.3840  -17.7370   -5.7390 N.pl3     1 5TC        -0.3030
     23 C17        31.1980  -17.4240   -7.1920 C.3       1 5TC         0.0293
     24 C16        30.3680  -16.1690   -7.3490 C.3       1 5TC        -0.0298
     25 C20        32.5120  -18.4900   -5.2660 C.ar      1 5TC         0.0511
     26 C25        33.1120  -19.3050   -6.1920 C.ar      1 5TC        -0.0320
     27 C24        34.2350  -20.0370   -5.8820 C.ar      1 5TC        -0.0383
     28 C23        34.7360  -20.0490   -4.6160 C.ar      1 5TC         0.0814
     29 C26        35.7230  -20.8430   -4.4690 C.1       1 5TC         0.0864
     30 N3         36.5550  -21.6700   -4.2940 N.1       1 5TC        -0.3392
     31 C22        34.1640  -19.2910   -3.5820 C.ar      1 5TC        -0.0383
     32 C21        33.0230  -18.5110   -3.9000 C.ar      1 5TC        -0.0320
     33 H1         24.8580   -4.7976   -4.5762 H         1 5TC         0.0511
     34 H2         25.9320   -4.5217   -5.9895 H         1 5TC         0.0511
     35 H3         27.8702  -11.8718   -4.8158 H         1 5TC         0.1874
     36 H4         25.4480  -11.2238   -5.7389 H         1 5TC         0.0658
     37 H5         26.5118  -10.7678   -7.1126 H         1 5TC         0.0658
     38 H6         28.5113   -9.8445   -4.4332 H         1 5TC         0.0525
     39 H7         28.5476   -7.4794   -3.6676 H         1 5TC         0.0499
     40 H8         24.8126   -9.0344   -6.4511 H         1 5TC         0.0525
     41 H9         24.8370   -6.6634   -5.6699 H         1 5TC         0.0499
     42 H10        28.6787   -5.9569   -3.5212 H         1 5TC         0.0511
     43 H11        27.6823   -4.7090   -2.6986 H         1 5TC         0.0511
     44 H12        28.7187   -4.3929   -5.5473 H         1 5TC         0.0284
     45 H13        29.6350   -3.8341   -4.1068 H         1 5TC         0.0284
     46 H14        27.9263   -2.2143   -5.3648 H         1 5TC         0.0266
     47 H15        28.0767   -2.1969   -3.5749 H         1 5TC         0.0266
     48 H16        26.0154   -3.1334   -3.2485 H         1 5TC         0.0284
     49 H17        25.6998   -2.3858   -4.8510 H         1 5TC         0.0284
     50 H18        27.3704  -14.4117   -5.0323 H         1 5TC         0.0502
     51 H19        29.0295  -13.8962   -5.4884 H         1 5TC         0.0502
     52 H20        28.3443  -14.8031   -7.8337 H         1 5TC         0.0292
     53 H21        27.1095  -15.7141   -6.8998 H         1 5TC         0.0292
     54 H22        28.6619  -17.2523   -6.8236 H         1 5TC         0.0303
     55 H23        28.3911  -16.5723   -4.5372 H         1 5TC         0.0287
     56 H24        29.6984  -15.3512   -4.7000 H         1 5TC         0.0287
     57 H25        29.8241  -18.3085   -4.4289 H         1 5TC         0.0519
     58 H26        30.9172  -17.0289   -3.8007 H         1 5TC         0.0519
     59 H27        30.6846  -18.2640   -7.6827 H         1 5TC         0.0519
     60 H28        32.1814  -17.2712   -7.6605 H         1 5TC         0.0519
     61 H29        30.9467  -15.3021   -6.9975 H         1 5TC         0.0287
     62 H30        30.1100  -16.0321   -8.4095 H         1 5TC         0.0287
     63 H31        32.6925  -19.3738   -7.1892 H         1 5TC         0.0545
     64 H32        34.7281  -20.6126   -6.6570 H         1 5TC         0.0685
     65 H33        34.5780  -19.3015   -2.5802 H         1 5TC         0.0685
     66 H34        32.5308  -17.9306   -3.1281 H         1 5TC         0.0545
@<TRIPOS>BOND
     1    1    3 1  
     2   12    1 1  
     3    1   13 1  
     4    4    2 2  
     5    3   16 1  
     6    5    4 am 
     7    4   17 1  
     8    6    5 1  
     9    7    6 1  
    10    8    7 ar 
    11    7   10 ar 
    12    9    8 ar 
    13    9   12 ar 
    14   10   11 ar 
    15   11   12 ar 
    16   13   14 1  
    17   14   15 1  
    18   15   16 1  
    19   17   18 1  
    20   18   19 1  
    21   19   20 1  
    22   19   24 1  
    23   20   21 1  
    24   21   22 1  
    25   22   23 1  
    26   22   25 1  
    27   23   24 1  
    28   25   26 ar 
    29   25   32 ar 
    30   26   27 ar 
    31   27   28 ar 
    32   28   29 1  
    33   28   31 ar 
    34   29   30 3  
    35   31   32 ar 
    36    3   33 1  
    37    3   34 1  
    38    5   35 1  
    39    6   36 1  
    40    6   37 1  
    41    8   38 1  
    42    9   39 1  
    43   10   40 1  
    44   11   41 1  
    45   13   42 1  
    46   13   43 1  
    47   14   44 1  
    48   14   45 1  
    49   15   46 1  
    50   15   47 1  
    51   16   48 1  
    52   16   49 1  
    53   17   50 1  
    54   17   51 1  
    55   18   52 1  
    56   18   53 1  
    57   19   54 1  
    58   20   55 1  
    59   20   56 1  
    60   21   57 1  
    61   21   58 1  
    62   23   59 1  
    63   23   60 1  
    64   24   61 1  
    65   24   62 1  
    66   26   63 1  
    67   27   64 1  
    68   31   65 1  
    69   32   66 1  
@<TRIPOS>SUBSTRUCTURE
     1 5TC         1

