### 
### Created by X-TOOL on Mon Sep 10 21:13:28 2018
### 

@<TRIPOS>MOLECULE
5f1l_ligand
   50    52     1     0     0
SMALL
GAST_HUCK


@<TRIPOS>ATOM
      1 C4         10.6160   -3.0560    4.7650 C.2       1 5U2         0.0691
      2 C6         12.5670   -4.3940    4.9320 C.2       1 5U2         0.2132
      3 C8         12.7710   -1.9360    5.0110 C.3       1 5U2         0.0589
      4 C10         6.1420   -4.9560    4.0410 C.ar      1 5U2         0.0830
      5 N12         3.5270   -2.5450    4.4170 N.4       1 5U2         0.2474
      6 C13         2.7250   -1.5100    2.8070 C.3       1 5U2         0.1344
      7 C15         8.3270   -4.0920    4.6590 C.ar      1 5U2        -0.0622
      8 C17         6.3070   -3.0130    5.4930 C.ar      1 5U2         0.0830
      9 C20         5.4350   -5.9730    1.9740 C.3       1 5U2         0.0572
     10 C22         6.4030   -1.4790    7.3530 C.3       1 5U2         0.0572
     11 C24         4.1100   -2.0770    3.1450 C.3       1 5U2         0.0009
     12 C1         11.7790   -5.5720    4.8240 C.2       1 5U2         0.0104
     13 C2         10.4280   -5.4640    4.6840 C.2       1 5U2        -0.0683
     14 C3          9.8180   -4.1830    4.6790 C.2       1 5U2        -0.0139
     15 N5         11.9750   -3.1650    4.8650 N.am      1 5U2        -0.2108
     16 O7         13.7770   -4.4950    5.0770 O.2       1 5U2        -0.4138
     17 C9         12.3870   -6.9520    4.8430 C.3       1 5U2        -0.0342
     18 C11         4.0180   -3.8720    4.8290 C.3       1 5U2        -0.0037
     19 C14         7.5380   -5.0460    3.9960 C.ar      1 5U2        -0.0531
     20 C16         7.6990   -3.1020    5.4270 C.ar      1 5U2        -0.0531
     21 C18         5.5290   -3.9500    4.7980 C.ar      1 5U2         0.0527
     22 O19         5.3680   -5.8800    3.3980 O.3       1 5U2        -0.3292
     23 O21         5.7160   -2.0050    6.2100 O.3       1 5U2        -0.3292
     24 C23         2.2510   -2.6750    3.6860 C.3       1 5U2         0.0009
     25 O25         2.3840   -1.6050    1.4210 O.3       1 5U2        -0.3815
     26 H1         10.1555   -2.0692    4.7529 H         1 5U2         0.1193
     27 H2         12.1114   -1.0598    4.9268 H         1 5U2         0.0608
     28 H3         13.5345   -1.8975    4.2201 H         1 5U2         0.0608
     29 H4         13.2621   -1.9319    5.9953 H         1 5U2         0.0608
     30 H5          3.5476   -1.8887    5.1818 H         1 5U2         0.2045
     31 H6          2.5038   -0.5004    3.1834 H         1 5U2         0.0701
     32 H7          4.7525   -6.7622    1.6256 H         1 5U2         0.0574
     33 H8          6.4636   -6.2175    1.6705 H         1 5U2         0.0574
     34 H9          5.1404   -5.0110    1.5294 H         1 5U2         0.0574
     35 H10         5.7969   -0.6835    7.8110 H         1 5U2         0.0574
     36 H11         7.3734   -1.0663    7.0398 H         1 5U2         0.0574
     37 H12         6.5658   -2.2835    8.0853 H         1 5U2         0.0574
     38 H13         4.4552   -2.8781    2.4748 H         1 5U2         0.0842
     39 H14         4.9025   -1.3218    3.2524 H         1 5U2         0.0842
     40 H15         9.8175   -6.3593    4.5761 H         1 5U2         0.0520
     41 H16        13.4776   -6.8706    4.9616 H         1 5U2         0.0353
     42 H17        12.1584   -7.4665    3.8980 H         1 5U2         0.0353
     43 H18        11.9687   -7.5255    5.6833 H         1 5U2         0.0353
     44 H19         3.6088   -4.6304    4.1454 H         1 5U2         0.0921
     45 H20         3.6725   -4.0767    5.8530 H         1 5U2         0.0921
     46 H21         8.0109   -5.8533    3.4486 H         1 5U2         0.0374
     47 H22         8.3046   -2.3928    5.9796 H         1 5U2         0.0374
     48 H23         1.3534   -2.4634    4.2857 H         1 5U2         0.0842
     49 H24         2.1203   -3.6291    3.1543 H         1 5U2         0.0842
     50 H25         2.7175   -0.8436    0.9611 H         1 5U2         0.2103
@<TRIPOS>BOND
     1   14    1 2  
     2    1   15 1  
     3   12    2 1  
     4   15    2 am 
     5    2   16 2  
     6   15    3 1  
     7    4   19 ar 
     8   21    4 ar 
     9    4   22 1  
    10    5   11 1  
    11   18    5 1  
    12    5   24 1  
    13   11    6 1  
    14   24    6 1  
    15    6   25 1  
    16    7   14 1  
    17   19    7 ar 
    18   20    7 ar 
    19    8   20 ar 
    20   21    8 ar 
    21    8   23 1  
    22   22    9 1  
    23   23   10 1  
    24   13   12 2  
    25   12   17 1  
    26   14   13 1  
    27   18   21 1  
    28    1   26 1  
    29    3   27 1  
    30    3   28 1  
    31    3   29 1  
    32    5   30 1  
    33    6   31 1  
    34    9   32 1  
    35    9   33 1  
    36    9   34 1  
    37   10   35 1  
    38   10   36 1  
    39   10   37 1  
    40   11   38 1  
    41   11   39 1  
    42   13   40 1  
    43   17   41 1  
    44   17   42 1  
    45   17   43 1  
    46   18   44 1  
    47   18   45 1  
    48   19   46 1  
    49   20   47 1  
    50   24   48 1  
    51   24   49 1  
    52   25   50 1  
@<TRIPOS>SUBSTRUCTURE
     1 5U2         1

