### 
### Created by X-TOOL on Mon Sep 10 21:13:29 2018
### 

@<TRIPOS>MOLECULE
5f1r_ligand
   45    49     1     0     0
SMALL
GAST_HUCK


@<TRIPOS>ATOM
      1 O01         9.1310    4.6550   15.8280 O.co2     1 42O        -0.5659
      2 C02         8.7220    5.6040   16.5530 C.2       1 42O         0.0711
      3 C04         7.2130    5.6470   16.7570 C.3       1 42O         0.1416
      4 C05         6.8960    6.2190   18.1340 C.3       1 42O         0.0580
      5 C07         6.4210    3.7140   17.9860 C.2       1 42O         0.1470
      6 C08         5.9090    2.4350   18.0910 C.2       1 42O        -0.0038
      7 C09         5.6330    1.8050   19.4730 C.3       1 42O        -0.0223
      8 C10         6.1360    0.4350   19.8950 C.3       1 42O        -0.0464
      9 C11         6.6760    1.6830   20.5710 C.3       1 42O        -0.0464
     10 C12         5.6420    1.7090   16.8650 C.2       1 42O        -0.0522
     11 C13         5.0830    0.3100   16.9650 C.3       1 42O         0.0119
     12 C14         4.2360    0.0030   15.7140 C.ar      1 42O        -0.0204
     13 C15         2.8810    0.2160   15.7350 C.ar      1 42O        -0.0584
     14 C16         2.0970   -0.0580   14.6070 C.ar      1 42O        -0.0701
     15 C17         2.6820   -0.5530   13.4400 C.ar      1 42O        -0.0627
     16 C18         4.0760   -0.7800   13.3980 C.ar      1 42O        -0.0238
     17 C19         4.6890   -1.2800   12.2310 C.ar      1 42O        -0.0568
     18 C20         6.0660   -1.4970   12.2080 C.ar      1 42O        -0.0629
     19 C21         6.8410   -1.2210   13.3370 C.ar      1 42O        -0.0625
     20 O03         9.5250    6.4380   17.0560 O.co2     1 42O        -0.5659
     21 S06         6.8350    4.8150   19.2760 S.3       1 42O        -0.0473
     22 C22         6.2490   -0.7270   14.4990 C.ar      1 42O        -0.0546
     23 C23         4.8560   -0.4980   14.5460 C.ar      1 42O        -0.0101
     24 C24         5.8920    2.2820   15.6750 C.2       1 42O        -0.0301
     25 C25         6.4150    3.5890   15.5320 C.2       1 42O         0.1762
     26 O26         6.6520    4.1350   14.4670 O.2       1 42O        -0.4362
     27 N27         6.6670    4.2790   16.7240 N.am      1 42O        -0.1854
     28 H1          6.7491    6.2622   15.9719 H         1 42O         0.0850
     29 H2          5.9252    6.7359   18.1160 H         1 42O         0.0460
     30 H3          7.6816    6.9247   18.4419 H         1 42O         0.0460
     31 H4          4.6106    2.0915   19.7604 H         1 42O         0.0359
     32 H5          6.7800   -0.1466   19.2190 H         1 42O         0.0279
     33 H6          5.4741   -0.2474   20.4483 H         1 42O         0.0279
     34 H7          6.4052    1.9045   21.6139 H         1 42O         0.0279
     35 H8          7.7111    2.0053   20.3846 H         1 42O         0.0279
     36 H9          4.4525    0.2306   17.8629 H         1 42O         0.0611
     37 H10         5.9107   -0.4113   17.0331 H         1 42O         0.0611
     38 H11         2.4122    0.6003   16.6337 H         1 42O         0.0536
     39 H12         1.0275    0.1157   14.6404 H         1 42O         0.0596
     40 H13         2.0697   -0.7622   12.5703 H         1 42O         0.0546
     41 H14         4.0907   -1.4954   11.3531 H         1 42O         0.0609
     42 H15         6.5371   -1.8814   11.3106 H         1 42O         0.0616
     43 H16         7.9111   -1.3922   13.3096 H         1 42O         0.0602
     44 H17         6.8602   -0.5180   15.3695 H         1 42O         0.0628
     45 H18         5.6808    1.7098   14.7728 H         1 42O         0.0185
@<TRIPOS>BOND
     1    2    1 ar 
     2    3    2 1  
     3    2   20 ar 
     4    4    3 1  
     5    3   27 1  
     6   21    4 1  
     7    5    6 2  
     8    5   21 1  
     9    5   27 1  
    10    6    7 1  
    11    6   10 1  
    12    7    8 1  
    13    7    9 1  
    14    8    9 1  
    15   10   11 1  
    16   10   24 2  
    17   11   12 1  
    18   12   13 ar 
    19   12   23 ar 
    20   13   14 ar 
    21   14   15 ar 
    22   15   16 ar 
    23   16   17 ar 
    24   16   23 ar 
    25   17   18 ar 
    26   18   19 ar 
    27   19   22 ar 
    28   22   23 ar 
    29   24   25 1  
    30   25   26 2  
    31   25   27 am 
    32    3   28 1  
    33    4   29 1  
    34    4   30 1  
    35    7   31 1  
    36    8   32 1  
    37    8   33 1  
    38    9   34 1  
    39    9   35 1  
    40   11   36 1  
    41   11   37 1  
    42   13   38 1  
    43   14   39 1  
    44   15   40 1  
    45   17   41 1  
    46   18   42 1  
    47   19   43 1  
    48   22   44 1  
    49   24   45 1  
@<TRIPOS>SUBSTRUCTURE
     1 42O         1

