### 
### Created by X-TOOL on Mon Sep 10 21:13:27 2018
### 

@<TRIPOS>MOLECULE
5f1u_ligand
   52    51     1     0     0
SMALL
GAST_HUCK


@<TRIPOS>ATOM
      1 N01        19.3940    6.4670   49.5070 N.4       1 3VN         0.2229
      2 C02        19.2220    7.8900   49.5920 C.3       1 3VN         0.0325
      3 C03        17.9100    8.2570   48.9660 C.2       1 3VN         0.0960
      4 O04        17.1640    7.3500   48.5110 O.co2     1 3VN        -0.5422
      5 O05        17.5350    9.4600   48.8750 O.co2     1 3VN        -0.5422
      6 C06        20.3370    8.5540   48.8520 C.3       1 3VN        -0.0015
      7 C07        20.1740    8.7740   47.3850 C.3       1 3VN        -0.0433
      8 C08        21.3910    9.0820   46.5870 C.3       1 3VN        -0.0125
      9 C09        21.2150    9.9760   45.4110 C.3       1 3VN        -0.0354
     10 N10        20.5780    9.4090   44.2590 N.4       1 3VN         0.2185
     11 C11        19.2640    8.3010   51.0330 C.3       1 3VN         0.0034
     12 C12        19.1520    9.7490   51.3890 C.3       1 3VN         0.0049
     13 C13        19.1900   10.1830   52.8180 C.3       1 3VN         0.0387
     14 N14        18.6230   11.4930   52.9230 N.4       1 3VN         0.2242
     15 C15        20.6130   10.2120   53.2620 C.3       1 3VN         0.0152
     16 C16        20.8810   10.3410   54.7230 C.2       1 3VN        -0.0887
     17 C17        22.1350    9.7360   55.2530 C.2       1 3VN        -0.0543
     18 C18        22.4040    9.9330   56.7040 C.3       1 3VN        -0.0185
     19 N19        21.4230    9.4070   57.6120 N.4       1 3VN         0.2283
     20 C20        18.4130    9.2580   53.6950 C.2       1 3VN         0.0979
     21 O21        18.8710    8.1230   53.9960 O.co2     1 3VN        -0.5421
     22 O22        17.2930    9.6190   54.1460 O.co2     1 3VN        -0.5421
     23 H1         20.2741    6.2094   49.9255 H         1 3VN         0.1999
     24 H2         19.3868    6.1849   48.5393 H         1 3VN         0.1999
     25 H3         18.6420    6.0078   49.9965 H         1 3VN         0.1999
     26 H4         21.2357    7.9353   48.9916 H         1 3VN         0.0316
     27 H5         20.4947    9.5395   49.3145 H         1 3VN         0.0316
     28 H6         19.4763    9.6145   47.2555 H         1 3VN         0.0268
     29 H7         19.7293    7.8601   46.9643 H         1 3VN         0.0268
     30 H8         21.7992    8.1282   46.2214 H         1 3VN         0.0317
     31 H9         22.1187    9.5581   47.2606 H         1 3VN         0.0317
     32 H10        22.2129   10.3218   45.1033 H         1 3VN         0.0813
     33 H11        20.6121   10.8372   45.7347 H         1 3VN         0.0813
     34 H12        20.5157   10.1052   43.5327 H         1 3VN         0.1994
     35 H13        19.6517    9.0977   44.5063 H         1 3VN         0.1994
     36 H14        21.1186    8.6254   43.9277 H         1 3VN         0.1994
     37 H15        20.2220    7.9447   51.4396 H         1 3VN         0.0317
     38 H16        18.4357    7.7824   51.5380 H         1 3VN         0.0317
     39 H17        18.1946   10.1016   50.9778 H         1 3VN         0.0318
     40 H18        19.9810   10.2636   50.8811 H         1 3VN         0.0318
     41 H19        18.6453   11.7926   53.8852 H         1 3VN         0.2001
     42 H20        17.6686   11.4730   52.5994 H         1 3VN         0.2001
     43 H21        19.1558   12.1360   52.3585 H         1 3VN         0.2001
     44 H22        21.0955   11.0654   52.7630 H         1 3VN         0.0439
     45 H23        21.0819    9.2763   52.9235 H         1 3VN         0.0439
     46 H24        20.1842   10.8595   55.3799 H         1 3VN         0.0453
     47 H25        22.8183    9.1794   54.6133 H         1 3VN         0.0502
     48 H26        22.4826   11.0150   56.8861 H         1 3VN         0.0938
     49 H27        23.3658    9.4515   56.9346 H         1 3VN         0.0938
     50 H28        21.7070    9.5969   58.5603 H         1 3VN         0.2005
     51 H29        21.3415    8.4112   57.4787 H         1 3VN         0.2005
     52 H30        20.5322    9.8439   57.4342 H         1 3VN         0.2005
@<TRIPOS>BOND
     1    1    2 1  
     2    2    3 1  
     3    2    6 1  
     4    2   11 1  
     5    3    4 ar 
     6    3    5 ar 
     7    6    7 1  
     8    7    8 1  
     9    8    9 1  
    10    9   10 1  
    11   11   12 1  
    12   12   13 1  
    13   13   14 1  
    14   13   15 1  
    15   13   20 1  
    16   15   16 1  
    17   16   17 2  
    18   17   18 1  
    19   18   19 1  
    20   20   21 ar 
    21   20   22 ar 
    22    1   23 1  
    23    1   24 1  
    24    1   25 1  
    25    6   26 1  
    26    6   27 1  
    27    7   28 1  
    28    7   29 1  
    29    8   30 1  
    30    8   31 1  
    31    9   32 1  
    32    9   33 1  
    33   10   34 1  
    34   10   35 1  
    35   10   36 1  
    36   11   37 1  
    37   11   38 1  
    38   12   39 1  
    39   12   40 1  
    40   14   41 1  
    41   14   42 1  
    42   14   43 1  
    43   15   44 1  
    44   15   45 1  
    45   16   46 1  
    46   17   47 1  
    47   18   48 1  
    48   18   49 1  
    49   19   50 1  
    50   19   51 1  
    51   19   52 1  
@<TRIPOS>SUBSTRUCTURE
     1 3VN         1

