### 
### Created by X-TOOL on Mon Sep 10 21:13:29 2018
### 

@<TRIPOS>MOLECULE
5f1z_ligand
   52    54     1     0     0
SMALL
GAST_HUCK


@<TRIPOS>ATOM
      1 C4        -20.4950   20.1990  482.6320 C.3       1 5U3         0.0792
      2 C6        -19.3550   20.9780  481.9500 C.3       1 5U3        -0.0322
      3 C8        -22.0660   21.9450  481.8940 C.2       1 5U3         0.0753
      4 C10       -23.5520   23.8220  481.1530 C.2       1 5U3         0.0847
      5 C17       -22.8340   28.1130  479.6070 C.3       1 5U3        -0.0684
      6 C20       -24.2600   21.4040  480.9910 C.2       1 5U3         0.0814
      7 C24       -25.1270   19.3220  480.6790 C.2       1 5U3         0.0915
      8 C26       -23.9610   20.0470  481.1540 C.2       1 5U3         0.0836
      9 C1        -21.5130   19.5540  484.8950 C.3       1 5U3        -0.0597
     10 C2        -20.4680   20.4140  484.1690 C.3       1 5U3        -0.0145
     11 C3        -19.1020   20.0830  484.7840 C.3       1 5U3        -0.0597
     12 N7        -21.8010   20.6100  482.0610 N.am      1 5U3        -0.2055
     13 C9        -23.2520   22.3840  481.3700 C.2       1 5U3         0.0516
     14 C11       -22.6380   24.8850  481.2250 C.2       1 5U3        -0.0031
     15 C12       -23.3140   26.0230  480.9520 C.2       1 5U3         0.0794
     16 N13       -24.6180   25.6970  480.7120 N.pl3     1 5U3        -0.1866
     17 C14       -25.7230   26.5970  480.3760 C.3       1 5U3         0.0659
     18 N15       -24.7360   24.3120  480.8360 N.2       1 5U3        -0.1556
     19 C16       -22.6680   27.3950  480.9500 C.3       1 5U3         0.0600
     20 C18       -23.2870   28.2340  482.0730 C.3       1 5U3        -0.0684
     21 O19       -21.2660   27.2100  481.1880 O.3       1 5U3        -0.4363
     22 N21       -25.5000   21.4900  480.4630 N.pl3     1 5U3        -0.2389
     23 N23       -26.0100   20.2000  480.2810 N.2       1 5U3        -0.2329
     24 N25       -25.2810   17.9460  480.6530 N.pl3     1 5U3        -0.3360
     25 C27       -22.7130   19.6720  481.6930 C.2       1 5U3         0.2099
     26 O28       -22.4930   18.4810  481.8190 O.2       1 5U3        -0.4116
     27 H1        -20.3512   19.1269  482.4324 H         1 5U3         0.0675
     28 H2        -18.3909   20.6674  482.3790 H         1 5U3         0.0261
     29 H3        -19.4987   22.0562  482.1134 H         1 5U3         0.0261
     30 H4        -19.3611   20.7667  480.8705 H         1 5U3         0.0261
     31 H5        -21.3129   22.6754  482.1860 H         1 5U3         0.1225
     32 H6        -22.3503   29.0997  479.6565 H         1 5U3         0.0126
     33 H7        -23.9047   28.2401  479.3890 H         1 5U3         0.0126
     34 H8        -22.3662   27.5149  478.8111 H         1 5U3         0.0126
     35 H9        -21.4542   19.7415  485.9773 H         1 5U3         0.0233
     36 H10       -21.3150   18.4905  484.6959 H         1 5U3         0.0233
     37 H11       -22.5182   19.8141  484.5319 H         1 5U3         0.0233
     38 H12       -20.6909   21.4740  484.3604 H         1 5U3         0.0327
     39 H13       -18.3225   20.6810  484.2892 H         1 5U3         0.0233
     40 H14       -18.8868   19.0132  484.6451 H         1 5U3         0.0233
     41 H15       -19.1171   20.3175  485.8586 H         1 5U3         0.0233
     42 H16       -21.5772   24.8069  481.4584 H         1 5U3         0.0782
     43 H17       -26.6456   26.0122  480.2461 H         1 5U3         0.0613
     44 H18       -25.4915   27.1289  479.4414 H         1 5U3         0.0613
     45 H19       -25.8622   27.3259  481.1880 H         1 5U3         0.0613
     46 H20       -23.1630   27.7107  483.0326 H         1 5U3         0.0126
     47 H21       -24.3583   28.3823  481.8721 H         1 5U3         0.0126
     48 H22       -22.7841   29.2111  482.1206 H         1 5U3         0.0126
     49 H23       -20.8981   26.6678  480.5002 H         1 5U3         0.1910
     50 H24       -25.9915   22.3650  480.2314 H         1 5U3         0.2391
     51 H25       -26.1532   17.5321  480.2940 H         1 5U3         0.1692
     52 H26       -24.5234   17.3365  480.9927 H         1 5U3         0.1692
@<TRIPOS>BOND
     1    1    2 1  
     2    1   10 1  
     3   12    1 1  
     4    3   12 1  
     5   13    3 2  
     6    4   13 1  
     7   14    4 1  
     8    4   18 2  
     9   19    5 1  
    10    6    8 2  
    11   13    6 1  
    12    6   22 1  
    13    8    7 1  
    14    7   23 2  
    15    7   24 1  
    16    8   25 1  
    17   10    9 1  
    18   10   11 1  
    19   12   25 am 
    20   15   14 2  
    21   15   16 1  
    22   15   19 1  
    23   16   17 1  
    24   16   18 1  
    25   19   20 1  
    26   19   21 1  
    27   22   23 1  
    28   25   26 2  
    29    1   27 1  
    30    2   28 1  
    31    2   29 1  
    32    2   30 1  
    33    3   31 1  
    34    5   32 1  
    35    5   33 1  
    36    5   34 1  
    37    9   35 1  
    38    9   36 1  
    39    9   37 1  
    40   10   38 1  
    41   11   39 1  
    42   11   40 1  
    43   11   41 1  
    44   14   42 1  
    45   17   43 1  
    46   17   44 1  
    47   17   45 1  
    48   20   46 1  
    49   20   47 1  
    50   20   48 1  
    51   21   49 1  
    52   22   50 1  
    53   24   51 1  
    54   24   52 1  
@<TRIPOS>SUBSTRUCTURE
     1 5U3         1

