### 
### Created by X-TOOL on Mon Sep 10 21:13:29 2018
### 

@<TRIPOS>MOLECULE
5f20_ligand
   40    43     1     0     0
SMALL
GAST_HUCK


@<TRIPOS>ATOM
      1 C4         20.2340  -19.5720    7.6380 C.ar      1 5U4        -0.0791
      2 C5         20.3600  -20.1390    6.3770 C.ar      1 5U4        -0.0766
      3 C6         21.6130  -20.4560    5.8870 C.ar      1 5U4        -0.0347
      4 C7         22.7470  -20.1990    6.6600 C.ar      1 5U4         0.1111
      5 C10        25.3930  -22.3400    5.4470 C.2       1 5U4         0.0379
      6 C13        25.0430  -25.9200    4.9800 C.2       1 5U4         0.0453
      7 C15        27.2470  -26.9150    4.4470 C.3       1 5U4         0.0574
      8 C17        26.4110  -21.3860    5.0250 C.2       1 5U4         0.0812
      9 C21        27.3490  -19.3450    4.6000 C.2       1 5U4         0.0924
     10 C24        24.8960  -19.5950    5.6850 C.2       1 5U4         0.2302
     11 C1         23.7540  -19.3200    8.8680 C.3       1 5U4        -0.0320
     12 C2         22.6000  -19.6280    7.9460 C.ar      1 5U4        -0.0114
     13 C3         21.3430  -19.3140    8.4220 C.ar      1 5U4        -0.0679
     14 N8         23.9970  -20.5490    6.1050 N.am      1 5U4        -0.1667
     15 C9         24.2260  -21.8850    5.9610 C.2       1 5U4         0.0886
     16 C11        25.5940  -23.7910    5.2250 C.2       1 5U4         0.0153
     17 C12        24.5350  -24.7110    5.2480 C.2       1 5U4        -0.0496
     18 N14        26.3650  -25.7850    4.7690 N.pl3     1 5U4        -0.2198
     19 N16        26.7080  -24.4330    4.9180 N.2       1 5U4        -0.2330
     20 N18        27.6390  -21.5340    4.4790 N.pl3     1 5U4        -0.2386
     21 N20        28.1900  -20.2740    4.2340 N.2       1 5U4        -0.2321
     22 N22        27.6100  -17.9880    4.4880 N.pl3     1 5U4        -0.3359
     23 C23        26.1480  -20.0080    5.1300 C.2       1 5U4         0.0885
     24 O25        24.6520  -18.3880    5.7970 O.2       1 5U4        -0.4015
     25 H1         19.2476  -19.3270    8.0149 H         1 5U4         0.0509
     26 H2         19.4776  -20.3327    5.7779 H         1 5U4         0.0533
     27 H3         21.7150  -20.9031    4.9048 H         1 5U4         0.0533
     28 H4         24.4825  -26.8528    4.9397 H         1 5U4         0.0981
     29 H5         28.2775  -26.5514    4.3209 H         1 5U4         0.0599
     30 H6         26.9090  -27.3898    3.5141 H         1 5U4         0.0599
     31 H7         27.2150  -27.6498    5.2649 H         1 5U4         0.0599
     32 H8         23.3706  -18.8831    9.8019 H         1 5U4         0.0373
     33 H9         24.4324  -18.6047    8.3800 H         1 5U4         0.0373
     34 H10        24.3002  -20.2476    9.0944 H         1 5U4         0.0373
     35 H11        21.2263  -18.8684    9.4033 H         1 5U4         0.0526
     36 H12        23.4593  -22.5966    6.2637 H         1 5U4         0.1213
     37 H13        23.4891  -24.4828    5.4477 H         1 5U4         0.0319
     38 H14        28.0963  -22.4342    4.2757 H         1 5U4         0.2394
     39 H15        26.9061  -17.3012    4.7942 H         1 5U4         0.1692
     40 H16        28.5078  -17.6667    4.0986 H         1 5U4         0.1692
@<TRIPOS>BOND
     1    2    1 ar 
     2   13    1 ar 
     3    3    2 ar 
     4    4    3 ar 
     5    4   12 ar 
     6   14    4 1  
     7    5    8 1  
     8    5   15 2  
     9   16    5 1  
    10   17    6 2  
    11    6   18 1  
    12   18    7 1  
    13    8   20 1  
    14    8   23 2  
    15    9   21 2  
    16    9   22 1  
    17   23    9 1  
    18   14   10 am 
    19   23   10 1  
    20   10   24 2  
    21   12   11 1  
    22   12   13 ar 
    23   15   14 1  
    24   16   17 1  
    25   16   19 2  
    26   18   19 1  
    27   20   21 1  
    28    1   25 1  
    29    2   26 1  
    30    3   27 1  
    31    6   28 1  
    32    7   29 1  
    33    7   30 1  
    34    7   31 1  
    35   11   32 1  
    36   11   33 1  
    37   11   34 1  
    38   13   35 1  
    39   15   36 1  
    40   17   37 1  
    41   20   38 1  
    42   22   39 1  
    43   22   40 1  
@<TRIPOS>SUBSTRUCTURE
     1 5U4         1

