### 
### Created by X-TOOL on Mon Sep 10 21:13:28 2018
### 

@<TRIPOS>MOLECULE
5f25_ligand
   32    33     1     0     0
SMALL
GAST_HUCK


@<TRIPOS>ATOM
      1 N1          3.8370   -4.3500    3.3360 N.am      1 5TU        -0.3014
      2 C4         12.3400   -5.3610    4.8840 C.2       1 5TU         0.0115
      3 C5         13.0470   -6.6850    4.9750 C.3       1 5TU        -0.0340
      4 C6         13.0870   -4.0730    4.8930 C.2       1 5TU         0.2156
      5 C7          8.7700   -4.1210    4.6220 C.ar      1 5TU        -0.0347
      6 C8          8.0180   -3.1000    5.2270 C.ar      1 5TU        -0.0602
      7 C10         5.9600   -4.1940    4.5510 C.ar      1 5TU         0.0409
      8 C13         4.4570   -4.2390    4.5130 C.2       1 5TU         0.1961
      9 O1          3.8300   -4.1840    5.5610 O.2       1 5TU        -0.3891
     10 C9          6.6180   -3.1320    5.1850 C.ar      1 5TU        -0.0504
     11 C11         6.7030   -5.2240    3.9600 C.ar      1 5TU        -0.0504
     12 C12         8.1000   -5.1850    3.9970 C.ar      1 5TU        -0.0602
     13 C2         10.2680   -4.1110    4.6890 C.2       1 5TU        -0.0012
     14 C1         10.9920   -2.9070    4.7060 C.2       1 5TU         0.0745
     15 C3         10.9510   -5.3290    4.7960 C.2       1 5TU        -0.0658
     16 O          14.3370   -4.0750    4.9880 O.2       1 5TU        -0.4120
     17 N          12.3380   -2.8660    4.8060 N.am      1 5TU        -0.2076
     18 C          13.0070   -1.5600    4.8080 C.3       1 5TU         0.0601
     19 H1          2.8382   -4.3809    3.2980 H         1 5TU         0.1805
     20 H2          4.3714   -4.4022    2.4924 H         1 5TU         0.1805
     21 H3         12.3068   -7.4983    4.9511 H         1 5TU         0.0354
     22 H4         13.6148   -6.7336    5.9159 H         1 5TU         0.0354
     23 H5         13.7365   -6.7917    4.1246 H         1 5TU         0.0354
     24 H6          8.5237   -2.2831    5.7290 H         1 5TU         0.0564
     25 H7          6.0438   -2.3349    5.6432 H         1 5TU         0.0646
     26 H8          6.1956   -6.0499    3.4748 H         1 5TU         0.0646
     27 H9          8.6715   -5.9840    3.5387 H         1 5TU         0.0564
     28 H10        10.4450   -1.9680    4.6356 H         1 5TU         0.1233
     29 H11        10.3891   -6.2617    4.8105 H         1 5TU         0.0524
     30 H12        14.0939   -1.7050    4.8954 H         1 5TU         0.0611
     31 H13        12.6469   -0.9648    5.6601 H         1 5TU         0.0611
     32 H14        12.7819   -1.0312    3.8701 H         1 5TU         0.0611
@<TRIPOS>BOND
     1    8    1 am 
     2    2    3 1  
     3    2    4 1  
     4   15    2 2  
     5    4   16 2  
     6    4   17 am 
     7    5    6 ar 
     8    5   12 ar 
     9   13    5 1  
    10    6   10 ar 
    11    7    8 1  
    12   10    7 ar 
    13   11    7 ar 
    14    8    9 2  
    15   12   11 ar 
    16   13   14 2  
    17   13   15 1  
    18   14   17 1  
    19   17   18 1  
    20    1   19 1  
    21    1   20 1  
    22    3   21 1  
    23    3   22 1  
    24    3   23 1  
    25    6   24 1  
    26   10   25 1  
    27   11   26 1  
    28   12   27 1  
    29   14   28 1  
    30   15   29 1  
    31   18   30 1  
    32   18   31 1  
    33   18   32 1  
@<TRIPOS>SUBSTRUCTURE
     1 5TU         1

