### 
### Created by X-TOOL on Mon Sep 10 21:13:28 2018
### 

@<TRIPOS>MOLECULE
5f27_ligand
   36    37     1     0     0
SMALL
GAST_HUCK


@<TRIPOS>ATOM
      1 CAI        28.1900   78.5650    8.2180 C.3       1 5TT         0.0255
      2 CAG        28.2460   79.6950    7.1880 C.3       1 5TT        -0.0334
      3 CAF        28.2880   79.1190    5.7610 C.3       1 5TT        -0.0495
      4 CAH        29.5510   78.2670    5.6880 C.3       1 5TT        -0.0334
      5 CAJ        29.5020   77.1380    6.7150 C.3       1 5TT         0.0255
      6 NAO        29.3850   77.7140    8.0700 N.pl3     1 5TT        -0.3125
      7 CAN        29.9950   77.0820    9.1490 C.ar      1 5TT         0.0334
      8 CAE        29.3790   77.1290   10.3920 C.ar      1 5TT        -0.0504
      9 CAC        29.9440   76.4340   11.4540 C.ar      1 5TT        -0.0666
     10 CAD        31.1210   76.2900    8.9720 C.ar      1 5TT        -0.0504
     11 CAB        31.7080   75.6450   10.0540 C.ar      1 5TT        -0.0666
     12 CAM        31.1260   75.7120   11.3050 C.ar      1 5TT        -0.0115
     13 CAK        31.7930   74.9510   12.4540 C.3       1 5TT        -0.0059
     14 NAL        31.3110   75.3750   13.7760 N.4       1 5TT         0.2352
     15 CAA        32.0700   74.5900   14.7530 C.3       1 5TT        -0.0437
     16 H1         27.2856   77.9611    8.0527 H         1 5TT         0.0511
     17 H2         28.1657   78.9919    9.2315 H         1 5TT         0.0511
     18 H3         29.1486   80.2992    7.3616 H         1 5TT         0.0284
     19 H4         27.3537   80.3291    7.2967 H         1 5TT         0.0284
     20 H5         28.3325   79.9323    5.0218 H         1 5TT         0.0266
     21 H6         27.3983   78.5003    5.5723 H         1 5TT         0.0266
     22 H7         30.4265   78.9014    5.8907 H         1 5TT         0.0284
     23 H8         29.6369   77.8346    4.6802 H         1 5TT         0.0284
     24 H9         30.4232   76.5406    6.6483 H         1 5TT         0.0511
     25 H10        28.6326   76.4952    6.5129 H         1 5TT         0.0511
     26 H11        28.4687   77.7007   10.5323 H         1 5TT         0.0499
     27 H12        29.4539   76.4540   12.4207 H         1 5TT         0.0526
     28 H13        31.5460   76.1736    7.9816 H         1 5TT         0.0499
     29 H14        32.6268   75.0867    9.9156 H         1 5TT         0.0526
     30 H15        32.8785   75.1217   12.4048 H         1 5TT         0.0953
     31 H16        31.5847   73.8778   12.3320 H         1 5TT         0.0953
     32 H17        30.3247   75.1873   13.8661 H         1 5TT         0.2023
     33 H18        31.4794   76.3596   13.9110 H         1 5TT         0.2023
     34 H19        31.7522   74.8640   15.7698 H         1 5TT         0.0777
     35 H20        33.1438   74.7980   14.6359 H         1 5TT         0.0777
     36 H21        31.8838   73.5187   14.5868 H         1 5TT         0.0777
@<TRIPOS>BOND
     1    1    2 1  
     2    1    6 1  
     3    2    3 1  
     4    3    4 1  
     5    4    5 1  
     6    5    6 1  
     7    6    7 1  
     8    7    8 ar 
     9    7   10 ar 
    10    8    9 ar 
    11    9   12 ar 
    12   10   11 ar 
    13   11   12 ar 
    14   12   13 1  
    15   13   14 1  
    16   14   15 1  
    17    1   16 1  
    18    1   17 1  
    19    2   18 1  
    20    2   19 1  
    21    3   20 1  
    22    3   21 1  
    23    4   22 1  
    24    4   23 1  
    25    5   24 1  
    26    5   25 1  
    27    8   26 1  
    28    9   27 1  
    29   10   28 1  
    30   11   29 1  
    31   13   30 1  
    32   13   31 1  
    33   14   32 1  
    34   14   33 1  
    35   15   34 1  
    36   15   35 1  
    37   15   36 1  
@<TRIPOS>SUBSTRUCTURE
     1 5TT         1

