### 
### Created by X-TOOL on Mon Sep 10 21:13:26 2018
### 

@<TRIPOS>MOLECULE
5f2f_ligand
   61    63     1     0     0
SMALL
GAST_HUCK


@<TRIPOS>ATOM
      1 C1        -10.6140    7.1250   12.0220 C.ar      1 5U7         0.0542
      2 C2         -9.2920    7.1240   11.5650 C.ar      1 5U7        -0.0327
      3 C3         -6.1900    7.2360   11.3650 C.ar      1 5U7        -0.0683
      4 C4         -6.6130    9.5160   10.6970 C.ar      1 5U7        -0.0603
      5 C5        -11.1570    8.2750   12.6180 C.ar      1 5U7        -0.0236
      6 C6         -4.8480    7.3540   10.9380 C.ar      1 5U7        -0.0373
      7 C7         -5.2860    9.6370   10.2790 C.ar      1 5U7        -0.0149
      8 C8         -9.0500    9.4060   12.3030 C.ar      1 5U7        -0.0327
      9 C9         -7.0480    8.3180   11.2330 C.ar      1 5U7        -0.0328
     10 C10        -8.5220    8.2670   11.7010 C.ar      1 5U7        -0.0153
     11 C11        -4.8120   10.9170    9.7070 C.3       1 5U7        -0.0327
     12 C12        -4.4230    8.5680   10.3940 C.ar      1 5U7         0.0979
     13 C13       -10.9050   10.7200   13.4160 C.2       1 5U7         0.2055
     14 C14        -1.1940    8.9800    7.9890 C.3       1 5U7         0.1145
     15 C15        -1.7530    7.9640    7.0460 C.3       1 5U7         0.1119
     16 C16        -0.9420    8.3310    9.3500 C.3       1 5U7         0.1384
     17 C17        -2.9900    7.3190    7.6480 C.3       1 5U7         0.1134
     18 C18        -2.2390    7.7280    9.8470 C.3       1 5U7         0.2086
     19 C19       -10.6130   13.2130   13.7490 C.3       1 5U7         0.0191
     20 C20        -3.4910    6.2000    6.7690 C.3       1 5U7         0.0730
     21 O21       -11.9030   10.7060   14.1420 O.2       1 5U7        -0.3846
     22 O22        -2.7070    6.7600    8.9300 O.3       1 5U7        -0.3369
     23 O23         0.0350    9.4810    7.4970 O.3       1 5U7        -0.3864
     24 O24        -2.0610    8.5980    5.7900 O.3       1 5U7        -0.3865
     25 O25         0.0060    7.3130    9.2650 O.3       1 5U7        -0.3837
     26 O26        -2.5010    5.1750    6.7260 O.3       1 5U7        -0.3924
     27 O27        -3.1000    8.8190    9.9450 O.3       1 5U7        -0.2876
     28 O3        -12.7030    6.0460   11.9870 O.2       1 5U7        -0.3846
     29 C02       -11.5060    5.8740   11.8680 C.2       1 5U7         0.2055
     30 N1        -11.0410    4.5260   11.5880 N.am      1 5U7        -0.2891
     31 C21        -9.6630    4.1200   11.4110 C.3       1 5U7         0.0191
     32 C01       -10.3750    9.4250   12.7630 C.ar      1 5U7         0.0542
     33 N         -10.1910   11.9510   13.1720 N.am      1 5U7        -0.2891
     34 H1         -8.8732    6.2349   11.1077 H         1 5U7         0.0695
     35 H2         -6.5466    6.3060   11.7929 H         1 5U7         0.0545
     36 H3         -7.2952   10.3530   10.6022 H         1 5U7         0.0533
     37 H4        -12.1836    8.2710   12.9660 H         1 5U7         0.0708
     38 H5         -4.1626    6.5193   11.0308 H         1 5U7         0.0528
     39 H6         -8.4302   10.2879   12.4175 H         1 5U7         0.0695
     40 H7         -5.6384   11.6430    9.6981 H         1 5U7         0.0368
     41 H8         -4.4591   10.7507    8.6785 H         1 5U7         0.0368
     42 H9         -3.9864   11.3088   10.3192 H         1 5U7         0.0368
     43 H10        -1.9106    9.8071    8.0998 H         1 5U7         0.0648
     44 H11        -0.9980    7.1830    6.8729 H         1 5U7         0.0647
     45 H12        -0.5904    9.0971   10.0567 H         1 5U7         0.0675
     46 H13        -3.7735    8.0845    7.7487 H         1 5U7         0.0647
     47 H14        -2.1009    7.2577   10.8317 H         1 5U7         0.0992
     48 H15        -9.9256   14.0102   13.4297 H         1 5U7         0.0483
     49 H16       -10.6014   13.1366   14.8463 H         1 5U7         0.0483
     50 H17       -11.6319   13.4494   13.4086 H         1 5U7         0.0483
     51 H18        -3.6741    6.5806    5.7533 H         1 5U7         0.0584
     52 H19        -4.4260    5.7944    7.1828 H         1 5U7         0.0584
     53 H20         0.3796   10.1244    8.1051 H         1 5U7         0.2100
     54 H21        -2.3932    7.9484    5.1817 H         1 5U7         0.2100
     55 H22         0.8284    7.6728    8.9542 H         1 5U7         0.2101
     56 H23        -2.8064    4.4643    6.1745 H         1 5U7         0.2095
     57 H24       -11.7376    3.8128   11.5104 H         1 5U7         0.1841
     58 H25        -9.6220    3.0391   11.2113 H         1 5U7         0.0483
     59 H26        -9.0939    4.3458   12.3248 H         1 5U7         0.0483
     60 H27        -9.2258    4.6664   10.5623 H         1 5U7         0.0483
     61 H28        -9.3802   11.9329   12.5869 H         1 5U7         0.1841
@<TRIPOS>BOND
     1    2    1 ar 
     2    1    5 ar 
     3    1   29 1  
     4   10    2 ar 
     5    6    3 ar 
     6    3    9 ar 
     7    7    4 ar 
     8    4    9 ar 
     9   32    5 ar 
    10   12    6 ar 
    11    7   11 1  
    12   12    7 ar 
    13   10    8 ar 
    14    8   32 ar 
    15    9   10 1  
    16   27   12 1  
    17   13   21 2  
    18   32   13 1  
    19   13   33 am 
    20   14   15 1  
    21   16   14 1  
    22   14   23 1  
    23   17   15 1  
    24   15   24 1  
    25   18   16 1  
    26   16   25 1  
    27   17   20 1  
    28   22   17 1  
    29   18   22 1  
    30   18   27 1  
    31   33   19 1  
    32   20   26 1  
    33   29   28 2  
    34   29   30 am 
    35   30   31 1  
    36    2   34 1  
    37    3   35 1  
    38    4   36 1  
    39    5   37 1  
    40    6   38 1  
    41    8   39 1  
    42   11   40 1  
    43   11   41 1  
    44   11   42 1  
    45   14   43 1  
    46   15   44 1  
    47   16   45 1  
    48   17   46 1  
    49   18   47 1  
    50   19   48 1  
    51   19   49 1  
    52   19   50 1  
    53   20   51 1  
    54   20   52 1  
    55   23   53 1  
    56   24   54 1  
    57   25   55 1  
    58   26   56 1  
    59   30   57 1  
    60   31   58 1  
    61   31   59 1  
    62   31   60 1  
    63   33   61 1  
@<TRIPOS>SUBSTRUCTURE
     1 5U7         1

