### 
### Created by X-TOOL on Mon Sep 10 21:13:24 2018
### 

@<TRIPOS>MOLECULE
5f2k_ligand
   46    48     1     0     0
SMALL
GAST_HUCK


@<TRIPOS>ATOM
      1 N         -21.5560   -3.2870  -31.9000 N.4       1 SAH         0.2327
      2 CA        -20.4620   -2.8150  -31.0380 C.3       1 SAH         0.0291
      3 CB        -19.2570   -3.7670  -31.1360 C.3       1 SAH         0.0114
      4 CG        -18.5490   -3.7510  -32.4970 C.3       1 SAH         0.0005
      5 SD        -16.9770   -4.5730  -32.3800 S.3       1 SAH        -0.1578
      6 C         -20.0970   -1.3890  -31.3530 C.2       1 SAH         0.0844
      7 O         -20.7280   -0.7300  -32.1850 O.co2     1 SAH        -0.5643
      8 OXT       -19.1600   -0.8350  -30.7660 O.co2     1 SAH        -0.5643
      9 C5'       -17.1090   -5.8240  -33.6230 C.3       1 SAH         0.0226
     10 C4'       -17.7520   -7.0990  -33.0730 C.3       1 SAH         0.0995
     11 O4'       -18.1890   -7.9250  -34.1630 O.3       1 SAH        -0.3383
     12 C3'       -16.7660   -7.9340  -32.2510 C.3       1 SAH         0.1132
     13 O3'       -17.3040   -8.2520  -30.9620 O.3       1 SAH        -0.3864
     14 C2'       -16.5930   -9.1970  -33.0720 C.3       1 SAH         0.1385
     15 O2'       -16.2890  -10.3620  -32.2970 O.3       1 SAH        -0.3836
     16 C1'       -17.9440   -9.2680  -33.7720 C.3       1 SAH         0.2009
     17 N9        -17.9140  -10.2110  -34.9050 N.pl3     1 SAH        -0.1919
     18 C8        -17.0110  -10.2770  -35.9010 C.2       1 SAH         0.1123
     19 N7        -17.3100  -11.3000  -36.7430 N.2       1 SAH        -0.2958
     20 C5        -18.4130  -11.9040  -36.2630 C.ar      1 SAH         0.1045
     21 C6        -19.2670  -13.0410  -36.6520 C.ar      1 SAH         0.1298
     22 N6        -18.9730  -13.7680  -37.7520 N.pl3     1 SAH        -0.3152
     23 N1        -20.3390  -13.3260  -35.8700 N.ar      1 SAH        -0.2698
     24 C2        -20.6360  -12.6170  -34.7650 C.ar      1 SAH         0.0533
     25 N3        -19.9000  -11.5680  -34.3540 N.ar      1 SAH        -0.2714
     26 C4        -18.8060  -11.1780  -35.0530 C.ar      1 SAH         0.1613
     27 H1        -21.7788   -4.2422  -31.6674 H         1 SAH         0.2010
     28 H2        -21.2700   -3.2341  -32.8651 H         1 SAH         0.2010
     29 H3        -22.3691   -2.7083  -31.7582 H         1 SAH         0.2010
     30 H4        -20.8195   -2.8396  -29.9980 H         1 SAH         0.1024
     31 H5        -19.6102   -4.7908  -30.9434 H         1 SAH         0.0347
     32 H6        -18.5273   -3.4797  -30.3647 H         1 SAH         0.0347
     33 H7        -18.3917   -2.7091  -32.8127 H         1 SAH         0.0379
     34 H8        -19.1753   -4.2683  -33.2387 H         1 SAH         0.0379
     35 H9        -16.1025   -6.0642  -33.9961 H         1 SAH         0.0402
     36 H10       -17.7251   -5.4417  -34.4502 H         1 SAH         0.0402
     37 H11       -18.6107   -6.8223  -32.4437 H         1 SAH         0.0632
     38 H12       -15.8089   -7.4053  -32.1313 H         1 SAH         0.0647
     39 H13       -16.6728   -8.7689  -30.4754 H         1 SAH         0.2100
     40 H14       -15.7869   -9.0643  -33.8086 H         1 SAH         0.0676
     41 H15       -16.9933  -10.5234  -31.6803 H         1 SAH         0.2101
     42 H16       -18.7209   -9.5991  -33.0672 H         1 SAH         0.0996
     43 H17       -16.1613   -9.6055  -36.0155 H         1 SAH         0.1349
     44 H18       -19.5723  -14.5616  -38.0202 H         1 SAH         0.1820
     45 H19       -18.1495  -13.5287  -38.3225 H         1 SAH         0.1820
     46 H20       -21.5040  -12.9029  -34.1820 H         1 SAH         0.0996
@<TRIPOS>BOND
     1    1    2 1  
     2    2    3 1  
     3    2    6 1  
     4    3    4 1  
     5    4    5 1  
     6    5    9 1  
     7    6    7 ar 
     8    6    8 ar 
     9    9   10 1  
    10   10   11 1  
    11   10   12 1  
    12   11   16 1  
    13   12   13 1  
    14   12   14 1  
    15   14   15 1  
    16   14   16 1  
    17   16   17 1  
    18   17   18 1  
    19   17   26 1  
    20   18   19 2  
    21   19   20 1  
    22   20   21 ar 
    23   20   26 ar 
    24   21   22 1  
    25   21   23 ar 
    26   23   24 ar 
    27   24   25 ar 
    28   25   26 ar 
    29    1   27 1  
    30    1   28 1  
    31    1   29 1  
    32    2   30 1  
    33    3   31 1  
    34    3   32 1  
    35    4   33 1  
    36    4   34 1  
    37    9   35 1  
    38    9   36 1  
    39   10   37 1  
    40   12   38 1  
    41   13   39 1  
    42   14   40 1  
    43   15   41 1  
    44   16   42 1  
    45   18   43 1  
    46   22   44 1  
    47   22   45 1  
    48   24   46 1  
@<TRIPOS>SUBSTRUCTURE
     1 SAH         1

