### 
### Created by X-TOOL on Mon Sep 10 21:13:29 2018
### 

@<TRIPOS>MOLECULE
5f2p_ligand
   27    28     1     0     0
SMALL
GAST_HUCK


@<TRIPOS>ATOM
      1 C5        -24.8580   -5.3800  -10.6410 C.ar      1 5TY         0.0299
      2 C8        -25.5750   -4.1150  -10.6180 C.2       1 5TY        -0.0256
      3 C10       -22.8780   -6.6530  -10.4330 C.ar      1 5TY         0.0204
      4 C13       -22.8510   -1.6820  -10.0450 C.3       1 5TY         0.0584
      5 C15       -27.0040   -8.7940  -11.2830 C.3       1 5TY         0.0227
      6 C1        -23.4720   -5.3910  -10.4290 C.ar      1 5TY         0.0818
      7 C2        -22.7590   -4.1180  -10.2210 C.2       1 5TY         0.2373
      8 C3        -24.8690   -7.6710  -10.8450 C.ar      1 5TY         0.1773
      9 N4        -25.5680   -6.5090  -10.8450 N.ar      1 5TY        -0.2732
     10 N6        -23.5390   -2.9590  -10.2400 N.am      1 5TY        -0.2052
     11 N7        -23.5390   -7.7960  -10.6520 N.ar      1 5TY        -0.2636
     12 C9        -24.8960   -2.9800  -10.4450 C.2       1 5TY         0.0652
     13 N11       -25.5670   -8.8110  -11.0440 N.pl3     1 5TY        -0.2825
     14 O12       -21.5560   -4.0480  -10.0400 O.2       1 5TY        -0.3903
     15 C14       -24.9130  -10.1110  -11.0600 C.3       1 5TY         0.0227
     16 H1        -26.6568   -4.0945  -10.7409 H         1 5TY         0.0331
     17 H2        -21.8118   -6.7119  -10.2466 H         1 5TY         0.0913
     18 H3        -23.5828   -0.8616  -10.0835 H         1 5TY         0.0600
     19 H4        -22.1028   -1.5435  -10.8394 H         1 5TY         0.0600
     20 H5        -22.3504   -1.6810   -9.0655 H         1 5TY         0.0600
     21 H6        -27.3655   -9.8241  -11.4178 H         1 5TY         0.0492
     22 H7        -27.2181   -8.2088  -12.1895 H         1 5TY         0.0492
     23 H8        -27.5135   -8.3364  -10.4222 H         1 5TY         0.0492
     24 H9        -25.4380   -2.0357  -10.4672 H         1 5TY         0.1254
     25 H10       -23.8376   -9.9828  -10.8675 H         1 5TY         0.0492
     26 H11       -25.0558  -10.5812  -12.0441 H         1 5TY         0.0492
     27 H12       -25.3512  -10.7515  -10.2804 H         1 5TY         0.0492
@<TRIPOS>BOND
     1    1    2 1  
     2    1    6 ar 
     3    9    1 ar 
     4    2   12 2  
     5    3    6 ar 
     6   11    3 ar 
     7   10    4 1  
     8   13    5 1  
     9    6    7 1  
    10    7   10 am 
    11    7   14 2  
    12    8    9 ar 
    13    8   11 ar 
    14    8   13 1  
    15   10   12 1  
    16   13   15 1  
    17    2   16 1  
    18    3   17 1  
    19    4   18 1  
    20    4   19 1  
    21    4   20 1  
    22    5   21 1  
    23    5   22 1  
    24    5   23 1  
    25   12   24 1  
    26   15   25 1  
    27   15   26 1  
    28   15   27 1  
@<TRIPOS>SUBSTRUCTURE
     1 5TY         1

