### 
### Created by X-TOOL on Mon Sep 10 21:13:26 2018
### 

@<TRIPOS>MOLECULE
5f2s_ligand
   21    22     1     0     0
SMALL
GAST_HUCK


@<TRIPOS>ATOM
      1 C1         11.4820 -107.9690   51.7210 C.2       1 5TZ         0.0233
      2 N2         12.9990 -108.8610   53.3410 N.ar      1 5TZ        -0.2964
      3 C3         12.6190 -107.7810   52.6350 C.ar      1 5TZ         0.0468
      4 C4         14.1200 -108.7490   54.0740 C.ar      1 5TZ         0.0083
      5 C5         14.8770 -107.5960   54.1490 C.ar      1 5TZ        -0.0244
      6 C6         14.4470 -106.4680   53.4540 C.ar      1 5TZ         0.0258
      7 C8         15.2090 -105.1870   53.5020 C.2       1 5TZ         0.0710
      8 O1         14.6770 -104.1230   53.2460 O.co2     1 5TZ        -0.5576
      9 O          16.3870 -105.2640   54.0190 O.co2     1 5TZ        -0.5576
     10 C7         13.3000 -106.5640   52.6740 C.ar      1 5TZ        -0.0182
     11 N1         11.1040 -109.2670   51.3490 N.2       1 5TZ        -0.3115
     12 C2         10.7600 -106.9790   51.1370 C.2       1 5TZ         0.0167
     13 S           9.5700 -107.6140   50.0720 S.3       1 5TZ         0.0226
     14 C          10.1120 -109.2220   50.4830 C.2       1 5TZ         0.1799
     15 N           9.5450 -110.3010   49.9320 N.pl3     1 5TZ        -0.2978
     16 H1         14.4491 -109.6136   54.6390 H         1 5TZ         0.0820
     17 H2         15.7874 -107.5695   54.7369 H         1 5TZ         0.0707
     18 H3         12.9425 -105.7113   52.1082 H         1 5TZ         0.0718
     19 H4         10.9152 -105.9168   51.3201 H         1 5TZ         0.0720
     20 H5          9.8764 -111.2428   50.1851 H         1 5TZ         0.1863
     21 H6          8.7770 -110.1900   49.2546 H         1 5TZ         0.1863
@<TRIPOS>BOND
     1    1    3 1  
     2    1   11 1  
     3    1   12 2  
     4    3    2 ar 
     5    2    4 ar 
     6    3   10 ar 
     7    4    5 ar 
     8    5    6 ar 
     9    6    7 1  
    10    6   10 ar 
    11    7    8 ar 
    12    7    9 ar 
    13   11   14 2  
    14   12   13 1  
    15   13   14 1  
    16   14   15 1  
    17    4   16 1  
    18    5   17 1  
    19   10   18 1  
    20   12   19 1  
    21   15   20 1  
    22   15   21 1  
@<TRIPOS>SUBSTRUCTURE
     1 5TZ         1

