### 
### Created by X-TOOL on Mon Sep 10 21:13:27 2018
### 

@<TRIPOS>MOLECULE
5f2u_ligand
  117   117     1     0     0
SMALL
GAST_HUCK


@<TRIPOS>ATOM
      1 N          -8.0260   21.8750    6.6140 N.4       1 SER         0.2396
      2 CA         -8.4090   21.2890    7.9780 C.3       1 SER         0.0885
      3 C          -8.3130   19.7580    8.0290 C.2       1 SER         0.2290
      4 O          -8.2850   19.0850    6.9630 O.2       1 SER        -0.3906
      5 CB         -9.7610   21.8300    8.5270 C.3       1 SER         0.1041
      6 OG        -10.8600   21.2420    7.8770 O.3       1 SER        -0.3870
      7 N          -8.2210   19.1690    9.2420 N.am      1 SER        -0.2588
      8 CA         -7.8600   17.7420    9.3220 C.3       1 SER         0.1540
      9 C          -8.3710   17.0330   10.5800 C.2       1 SER         0.2063
     10 O          -8.3700   17.6190   11.6190 O.2       1 SER        -0.3943
     11 CB         -6.3650   17.5260    9.3670 C.3       1 SER         0.0843
     12 OG         -6.0790   16.1500    9.2230 O.3       1 SER        -0.3903
     13 N          -8.7770   15.7980   10.3590 N.am      1 THR        -0.2613
     14 CA         -9.2230   14.9050   11.4600 C.3       1 THR         0.1565
     15 C          -8.0710   14.0720   11.9980 C.2       1 THR         0.2065
     16 O          -8.2620   13.2750   12.9340 O.2       1 THR        -0.3943
     17 CB        -10.3490   13.9590   10.9790 C.3       1 THR         0.0924
     18 OG1        -9.8660   13.1140    9.9280 O.3       1 THR        -0.3874
     19 CG2       -11.5950   14.7210   10.5780 C.3       1 THR        -0.0346
     20 N          -6.8650   14.2190   11.4090 N.am      1 ILE        -0.2634
     21 CA         -5.6980   13.3630   11.8120 C.3       1 ILE         0.1352
     22 C          -4.5300   14.1940   12.3230 C.2       1 ILE         0.2291
     23 O          -3.4240   13.7360   12.4950 O.2       1 ILE        -0.3943
     24 CB         -5.1670   12.4650   10.7250 C.3       1 ILE        -0.0037
     25 CG1        -4.5580   13.2830    9.5550 C.3       1 ILE        -0.0491
     26 CG2        -6.2720   11.5120   10.2640 C.3       1 ILE        -0.0582
     27 CD1        -3.5370   12.5110    8.8000 C.3       1 ILE        -0.0648
     28 OXT        -4.6280   15.3690   12.5920 O.3       1 ILE        -0.2106
     29 N          -4.7140   15.7230   12.2200 N.am      1 CMT        -0.1017
     30 CA         -3.6170   16.6270   12.4510 C.3       1 CMT         0.3075
     31 C          -4.2720   17.8060   13.1750 C.2       1 CMT         0.3181
     32 O          -5.1770   18.4650   12.6530 O.2       1 CMT        -0.3067
     33 CB         -2.9980   16.9960   11.0720 C.3       1 CMT         0.0581
     34 SG         -1.8050   18.2990   11.4060 S.3       1 CMT        -0.1567
     35 OXT        -3.8590   17.9340   14.4340 O.3       1 CMT        -0.2769
     36 C1         -4.8030   18.6270   15.2780 C.3       1 CMT         0.0650
     37 C1         -0.4920   17.0840   11.7280 C.3       1 FAR        -0.0061
     38 C2         -0.0310   16.5240   10.4150 C.3       1 FAR        -0.0414
     39 C3          0.3400   15.0740   10.3040 C.3       1 FAR        -0.0431
     40 C5          0.9430   14.5160    9.0020 C.3       1 FAR        -0.0504
     41 C6          1.6330   15.6290    8.1690 C.3       1 FAR        -0.0526
     42 C7          2.4680   14.9990    7.0430 C.3       1 FAR        -0.0505
     43 C8          3.7390   14.2260    7.3820 C.3       1 FAR        -0.0439
     44 C9          4.6280   13.5390    6.3400 C.3       1 FAR        -0.0505
     45 C11         4.3970   13.8730    4.8580 C.3       1 FAR        -0.0526
     46 C12         4.7060   15.2990    4.5310 C.3       1 FAR        -0.0507
     47 C13         5.4090   15.6600    3.2320 C.3       1 FAR        -0.0467
     48 C14         5.5450   17.1040    2.9640 C.3       1 FAR        -0.0627
     49 C15         5.9150   14.6350    2.2090 C.3       1 FAR        -0.0627
     50 C4         -0.0240   14.1310   11.4010 C.3       1 FAR        -0.0624
     51 C10         4.2610   14.1690    8.7960 C.3       1 FAR        -0.0624
     52 H1         -8.1089   22.8791    6.6445 H         1 SER         0.2016
     53 H2         -8.6424   21.5083    5.9057 H         1 SER         0.2016
     54 H3         -7.0749   21.6229    6.3951 H         1 SER         0.2016
     55 H4         -7.6424   21.6541    8.6773 H         1 SER         0.1122
     56 H5         -9.7975   22.9187    8.3742 H         1 SER         0.0640
     57 H6         -9.8230   21.6084    9.6026 H         1 SER         0.0640
     58 H7        -11.6653   21.5950    8.2368 H         1 SER         0.2099
     59 H8         -8.3956   19.6946   10.0746 H         1 SER         0.1885
     60 H9         -8.2766   17.2453    8.4334 H         1 SER         0.0823
     61 H10        -5.9728   17.8822   10.3310 H         1 SER         0.0606
     62 H11        -5.8896   18.0860    8.5482 H         1 SER         0.0606
     63 H12        -6.4175   15.8428    8.3901 H         1 SER         0.2097
     64 H13        -8.7850   15.4514    9.4210 H         1 THR         0.1884
     65 H14        -9.6133   15.5319   12.2753 H         1 THR         0.0826
     66 H15       -10.6231   13.3114   11.8248 H         1 THR         0.0639
     67 H16        -9.5763   13.6506    9.1996 H         1 THR         0.2101
     68 H17       -12.3668   14.0119   10.2439 H         1 THR         0.0257
     69 H18       -11.3535   15.4133    9.7580 H         1 THR         0.0257
     70 H19       -11.9698   15.2911   11.4408 H         1 THR         0.0257
     71 H20        -6.7468   14.9079   10.6939 H         1 ILE         0.1883
     72 H21        -6.0468   12.7201   12.6336 H         1 ILE         0.0802
     73 H22        -4.3578   11.8561   11.1544 H         1 ILE         0.0345
     74 H23        -4.0860   14.1884    9.9641 H         1 ILE         0.0267
     75 H24        -5.3657   13.5701    8.8657 H         1 ILE         0.0267
     76 H25        -6.6657   10.9606   11.1306 H         1 ILE         0.0235
     77 H26        -5.8611   10.8006    9.5326 H         1 ILE         0.0235
     78 H27        -7.0836   12.0898    9.7976 H         1 ILE         0.0235
     79 H28        -3.1370   13.1316    7.9846 H         1 ILE         0.0230
     80 H29        -3.9990   11.6058    8.3790 H         1 ILE         0.0230
     81 H30        -2.7192   12.2242    9.4774 H         1 ILE         0.0230
     82 H31        -3.7782   17.3573   10.3859 H         1 ILE         0.0414
     83 H32        -2.4973   16.1219   10.6303 H         1 ILE         0.0414
     84 H33        -4.3996   18.6967   16.2990 H         1 ILE         0.0576
     85 H34        -5.7535   18.0737   15.2964 H         1 ILE         0.0576
     86 H35        -4.9752   19.6387   14.8819 H         1 ILE         0.0576
     87 H36        -0.8831   16.2735   12.3605 H         1 ILE         0.0376
     88 H37         0.3501   17.5739   12.2388 H         1 ILE         0.0376
     89 H38         0.8565   17.1020   10.1178 H         1 ILE         0.0276
     90 H39        -0.8419   16.6999    9.6929 H         1 ILE         0.0276
     91 H40         1.3360   15.2571   10.7335 H         1 ILE         0.0298
     92 H41         0.1394   14.0663    8.4004 H         1 ILE         0.0268
     93 H42         1.6869   13.7460    9.2544 H         1 ILE         0.0268
     94 H43         2.2906   16.2198    8.8237 H         1 ILE         0.0265
     95 H44         0.8663   16.2850    7.7310 H         1 ILE         0.0265
     96 H45         2.7631   15.8171    6.3696 H         1 ILE         0.0268
     97 H46         1.8059   14.3033    6.5067 H         1 ILE         0.0268
     98 H47         3.1480   13.3089    7.5220 H         1 ILE         0.0298
     99 H48         4.4883   12.4541    6.4558 H         1 ILE         0.0268
    100 H49         5.6699   13.8018    6.5754 H         1 ILE         0.0268
    101 H50         3.3426   13.6768    4.6136 H         1 ILE         0.0265
    102 H51         5.0419   13.2245    4.2468 H         1 ILE         0.0265
    103 H52         5.3380   15.6792    5.3471 H         1 ILE         0.0268
    104 H53         3.7464   15.8366    4.5294 H         1 ILE         0.0268
    105 H54         6.3858   15.6313    3.7370 H         1 ILE         0.0295
    106 H55         6.0644   17.2517    2.0057 H         1 ILE         0.0232
    107 H56         6.1253   17.5738    3.7718 H         1 ILE         0.0232
    108 H57         4.5468   17.5634    2.9146 H         1 ILE         0.0232
    109 H58         5.7265   13.6184    2.5845 H         1 ILE         0.0232
    110 H59         6.9951   14.7741    2.0540 H         1 ILE         0.0232
    111 H60         5.3863   14.7774    1.2550 H         1 ILE         0.0232
    112 H61        -0.4373   14.6969   12.2489 H         1 ILE         0.0232
    113 H62         0.8730   13.5844   11.7275 H         1 ILE         0.0232
    114 H63        -0.7762   13.4163   11.0357 H         1 ILE         0.0232
    115 H64         3.5590   14.6856    9.4671 H         1 ILE         0.0232
    116 H65         5.2436   14.6610    8.8442 H         1 ILE         0.0232
    117 H66         4.3610   13.1189    9.1079 H         1 ILE         0.0232
@<TRIPOS>BOND
     1    1    2 1  
     2    2    3 1  
     3    2    5 1  
     4    3    4 2  
     5    3    7 am 
     6    5    6 1  
     7    7    8 1  
     8    8    9 1  
     9    8   11 1  
    10    9   10 2  
    11    9   13 am 
    12   11   12 1  
    13   13   14 1  
    14   14   15 1  
    15   14   17 1  
    16   15   16 2  
    17   15   20 am 
    18   17   18 1  
    19   17   19 1  
    20   20   21 1  
    21   21   22 1  
    22   21   24 1  
    23   22   23 2  
    24   22   29 am 
    25   24   25 1  
    26   24   26 1  
    27   25   27 1  
    28   29   28 1  
    29   28   30 1  
    30   29   30 1  
    31   30   31 1  
    32   30   33 1  
    33   31   32 2  
    34   31   35 1  
    35   33   34 1  
    36   34   37 1  
    37   35   36 1  
    38   37   38 1  
    39   38   39 1  
    40   39   40 1  
    41   39   50 1  
    42   40   41 1  
    43   41   42 1  
    44   42   43 1  
    45   43   44 1  
    46   43   51 1  
    47   44   45 1  
    48   45   46 1  
    49   46   47 1  
    50   47   48 1  
    51   47   49 1  
    52    1   52 1  
    53    1   53 1  
    54    1   54 1  
    55    2   55 1  
    56    5   56 1  
    57    5   57 1  
    58    6   58 1  
    59    7   59 1  
    60    8   60 1  
    61   11   61 1  
    62   11   62 1  
    63   12   63 1  
    64   13   64 1  
    65   14   65 1  
    66   17   66 1  
    67   18   67 1  
    68   19   68 1  
    69   19   69 1  
    70   19   70 1  
    71   20   71 1  
    72   21   72 1  
    73   24   73 1  
    74   25   74 1  
    75   25   75 1  
    76   26   76 1  
    77   26   77 1  
    78   26   78 1  
    79   27   79 1  
    80   27   80 1  
    81   27   81 1  
    82   33   82 1  
    83   33   83 1  
    84   36   84 1  
    85   36   85 1  
    86   36   86 1  
    87   37   87 1  
    88   37   88 1  
    89   38   89 1  
    90   38   90 1  
    91   39   91 1  
    92   40   92 1  
    93   40   93 1  
    94   41   94 1  
    95   41   95 1  
    96   42   96 1  
    97   42   97 1  
    98   43   98 1  
    99   44   99 1  
   100   44  100 1  
   101   45  101 1  
   102   45  102 1  
   103   46  103 1  
   104   46  104 1  
   105   47  105 1  
   106   48  106 1  
   107   48  107 1  
   108   48  108 1  
   109   49  109 1  
   110   49  110 1  
   111   49  111 1  
   112   50  112 1  
   113   50  113 1  
   114   50  114 1  
   115   51  115 1  
   116   51  116 1  
   117   51  117 1  
@<TRIPOS>SUBSTRUCTURE
     1 SER         1

