### 
### Created by X-TOOL on Mon Sep 10 21:13:27 2018
### 

@<TRIPOS>MOLECULE
5f2w_ligand
   23    24     1     0     0
SMALL
GAST_HUCK


@<TRIPOS>ATOM
      1 C1         13.7830   48.5110  -53.1240 C.ar      1 5UP         0.0654
      2 C2         14.8880   48.4290  -52.2860 C.ar      1 5UP        -0.0127
      3 C3         15.6770   47.2830  -52.3300 C.ar      1 5UP         0.0488
      4 C4         14.3390   46.3400  -53.9330 C.ar      1 5UP         0.0102
      5 C5         13.4950   47.4350  -53.9530 C.ar      1 5UP        -0.0190
      6 C6         16.8540   47.1590  -51.4590 C.2       1 5UP         0.0237
      7 N1         15.4240   46.2450  -53.1440 N.ar      1 5UP        -0.2946
      8 C7         17.5250   48.2130  -50.9290 C.2       1 5UP         0.0167
      9 C8         18.4430   46.0500  -50.3560 C.2       1 5UP         0.1799
     10 O          11.7630   49.7550  -53.2850 O.2       1 5UP        -0.3798
     11 C          13.0010   49.7930  -53.1530 C.2       1 5UP         0.2113
     12 N          13.6830   50.9330  -53.0230 N.am      1 5UP        -0.2984
     13 N3         17.3830   45.9070  -51.1240 N.2       1 5UP        -0.3115
     14 N2         19.1770   45.0350  -49.8820 N.pl3     1 5UP        -0.2978
     15 S          18.8630   47.7030  -49.9900 S.3       1 5UP         0.0226
     16 H1         15.1311   49.2416  -51.6110 H         1 5UP         0.0737
     17 H2         14.1129   45.5094  -54.5919 H         1 5UP         0.0823
     18 H3         12.6270   47.4531  -54.6020 H         1 5UP         0.0723
     19 H4         17.2467   49.2547  -51.0821 H         1 5UP         0.0720
     20 H5         13.2004   51.8087  -53.0370 H         1 5UP         0.1811
     21 H6         14.6765   50.9113  -52.9116 H         1 5UP         0.1811
     22 H7         18.9179   44.0636  -50.1058 H         1 5UP         0.1863
     23 H8         20.0006   45.2258  -49.2937 H         1 5UP         0.1863
@<TRIPOS>BOND
     1    1    2 ar 
     2    1    5 ar 
     3    1   11 1  
     4    2    3 ar 
     5    3    6 1  
     6    3    7 ar 
     7    5    4 ar 
     8    4    7 ar 
     9    6    8 2  
    10    6   13 1  
    11    8   15 1  
    12   13    9 2  
    13    9   14 1  
    14    9   15 1  
    15   11   10 2  
    16   11   12 am 
    17    2   16 1  
    18    4   17 1  
    19    5   18 1  
    20    8   19 1  
    21   12   20 1  
    22   12   21 1  
    23   14   22 1  
    24   14   23 1  
@<TRIPOS>SUBSTRUCTURE
     1 5UP         1

