### 
### Created by X-TOOL on Mon Sep 10 21:13:27 2018
### 

@<TRIPOS>MOLECULE
5f32_ligand
   24    26     1     0     0
SMALL
GAST_HUCK


@<TRIPOS>ATOM
      1 O          11.7800   49.3780  -53.7820 O.2       1 5V7        -0.3803
      2 C9         12.8300   49.3050  -53.1560 C.2       1 5V7         0.2468
      3 C6         13.6350   48.0870  -53.0560 C.ar      1 5V7         0.0797
      4 C5         13.2710   46.9270  -53.7290 C.ar      1 5V7        -0.0262
      5 C4         14.1130   45.8430  -53.5960 C.ar      1 5V7         0.0018
      6 N2         15.2300   45.8410  -52.8540 N.ar      1 5V7        -0.3023
      7 N4         13.3200   50.3710  -52.4810 N.am      1 5V7        -0.1955
      8 C8         14.4630   50.3190  -51.7580 C.2       1 5V7         0.1299
      9 N3         15.2220   49.2550  -51.6170 N.2       1 5V7        -0.2873
     10 C7         14.7990   48.1160  -52.2780 C.ar      1 5V7         0.0551
     11 C3         15.5740   46.9470  -52.1770 C.ar      1 5V7         0.0561
     12 C1         16.7200   46.8150  -51.2660 C.2       1 5V7         0.0205
     13 N1         17.1300   45.5250  -50.9560 N.2       1 5V7        -0.3126
     14 C2         17.4150   47.8030  -50.6500 C.2       1 5V7         0.0141
     15 S          18.6300   47.1600  -49.6310 S.3       1 5V7         0.0207
     16 C          18.1290   45.5580  -50.1060 C.2       1 5V7         0.1794
     17 N          18.7470   44.4750  -49.6270 N.pl3     1 5V7        -0.2978
     18 H1         12.3696   46.8767  -54.3290 H         1 5V7         0.0699
     19 H2         13.8551   44.9331  -54.1258 H         1 5V7         0.0753
     20 H3         12.8160   51.2339  -52.5181 H         1 5V7         0.2572
     21 H4         14.7789   51.2307  -51.2531 H         1 5V7         0.1532
     22 H5         17.2248   48.8666  -50.7860 H         1 5V7         0.0698
     23 H6         18.4393   43.5359  -49.9172 H         1 5V7         0.1863
     24 H7         19.5313   44.5790  -48.9675 H         1 5V7         0.1863
@<TRIPOS>BOND
     1    1    2 2  
     2    2    3 1  
     3    2    7 am 
     4    3    4 ar 
     5    3   10 ar 
     6    4    5 ar 
     7    5    6 ar 
     8    6   11 ar 
     9    7    8 1  
    10    8    9 2  
    11    9   10 1  
    12   10   11 ar 
    13   11   12 1  
    14   12   13 1  
    15   12   14 2  
    16   13   16 2  
    17   14   15 1  
    18   15   16 1  
    19   16   17 1  
    20    4   18 1  
    21    5   19 1  
    22    7   20 1  
    23    8   21 1  
    24   14   22 1  
    25   17   23 1  
    26   17   24 1  
@<TRIPOS>SUBSTRUCTURE
     1 5V7         1

