### 
### Created by X-TOOL on Mon Sep 10 21:13:27 2018
### 

@<TRIPOS>MOLECULE
5f37_ligand
   16    17     1     0     0
SMALL
GAST_HUCK


@<TRIPOS>ATOM
      1 O          -0.1190 -105.0600   16.0500 O.2       1 N5J        -0.3795
      2 C1          1.0570 -105.0830   16.3900 C.2       1 N5J         0.2483
      3 N1          1.7050 -103.9730   16.8340 N.am      1 N5J        -0.1950
      4 C2          2.9950 -103.9810   17.2340 C.2       1 N5J         0.1300
      5 N2          3.7680 -105.0350   17.2440 N.2       1 N5J        -0.2876
      6 C3          3.1980 -106.2260   16.8010 C.ar      1 N5J         0.0514
      7 N3          3.4460 -108.5820   16.3180 N.ar      1 N5J        -0.2999
      8 C4          3.9170 -107.4080   16.7450 C.ar      1 N5J         0.0230
      9 C5          2.1760 -108.6120   15.9200 C.ar      1 N5J         0.0085
     10 C6          1.3460 -107.5120   15.9240 C.ar      1 N5J        -0.0216
     11 C7          1.8690 -106.3020   16.3690 C.ar      1 N5J         0.0829
     12 H1          1.2022 -103.1092   16.8659 H         1 N5J         0.2571
     13 H2          3.4231 -103.0390   17.5735 H         1 N5J         0.1538
     14 H3          4.9489 -107.3776   17.0756 H         1 N5J         0.0786
     15 H4          1.7716 -109.5559   15.5728 H         1 N5J         0.0764
     16 H5          0.3173 -107.5871   15.5907 H         1 N5J         0.0737
@<TRIPOS>BOND
     1    1    2 2  
     2    2    3 am 
     3    2   11 1  
     4    3    4 1  
     5    4    5 2  
     6    5    6 1  
     7    6    8 ar 
     8    6   11 ar 
     9    8    7 ar 
    10    7    9 ar 
    11    9   10 ar 
    12   10   11 ar 
    13    3   12 1  
    14    4   13 1  
    15    8   14 1  
    16    9   15 1  
    17   10   16 1  
@<TRIPOS>SUBSTRUCTURE
     1 N5J         1

