### 
### Created by X-TOOL on Mon Sep 10 21:13:27 2018
### 

@<TRIPOS>MOLECULE
5f39_ligand
   22    24     1     0     0
SMALL
GAST_HUCK


@<TRIPOS>ATOM
      1 O          12.2870   48.6750  -54.7790 O.2       1 5UB        -0.3803
      2 C          13.3000   48.5160  -54.1050 C.2       1 5UB         0.2468
      3 C3         14.0350   47.2540  -54.0240 C.ar      1 5UB         0.0797
      4 C4         13.6500   46.1480  -54.7720 C.ar      1 5UB        -0.0262
      5 C5         14.4270   45.0150  -54.6500 C.ar      1 5UB         0.0018
      6 N2         15.4990   44.9160  -53.8500 N.ar      1 5UB        -0.3017
      7 C6         15.8610   45.9710  -53.1040 C.ar      1 5UB         0.0625
      8 C2         15.1560   47.1830  -53.1880 C.ar      1 5UB         0.0556
      9 N1         15.6010   48.2630  -52.4520 N.2       1 5UB        -0.2874
     10 C1         14.9040   49.3710  -52.5790 C.2       1 5UB         0.1298
     11 N          13.8050   49.5170  -53.3570 N.am      1 5UB        -0.1955
     12 C7         16.9380   45.7360  -52.1340 C.2       1 5UB         0.0486
     13 N3         17.3160   44.3900  -51.9200 N.2       1 5UB        -0.3009
     14 C9         18.2250   44.3400  -50.9990 C.2       1 5UB         0.0788
     15 S          18.6890   45.8560  -50.3390 S.3       1 5UB         0.0019
     16 C8         17.5890   46.6420  -51.3650 C.2       1 5UB         0.0292
     17 H1         12.7813   46.1744  -55.4198 H         1 5UB         0.0699
     18 H2         14.1533   44.1474  -55.2395 H         1 5UB         0.0753
     19 H3         15.2370   50.2402  -52.0137 H         1 5UB         0.1532
     20 H4         13.3483   50.4064  -53.3773 H         1 5UB         0.2572
     21 H5         18.6649   43.4011  -50.6659 H         1 5UB         0.1184
     22 H6         17.4295   47.7187  -51.4002 H         1 5UB         0.0831
@<TRIPOS>BOND
     1    1    2 2  
     2    2    3 1  
     3    2   11 am 
     4    3    4 ar 
     5    3    8 ar 
     6    4    5 ar 
     7    5    6 ar 
     8    6    7 ar 
     9    7    8 ar 
    10    7   12 1  
    11    8    9 1  
    12    9   10 2  
    13   10   11 1  
    14   12   13 1  
    15   12   16 2  
    16   13   14 2  
    17   14   15 1  
    18   15   16 1  
    19    4   17 1  
    20    5   18 1  
    21   10   19 1  
    22   11   20 1  
    23   14   21 1  
    24   16   22 1  
@<TRIPOS>SUBSTRUCTURE
     1 5UB         1

