### 
### Created by X-TOOL on Mon Sep 10 21:13:26 2018
### 

@<TRIPOS>MOLECULE
5f3c_ligand
   48    51     1     0     0
SMALL
GAST_HUCK


@<TRIPOS>ATOM
      1 C8         -6.4820    7.0650  -22.3520 C.3       1 5U8        -0.0261
      2 N4         -1.5290    9.6990  -16.9850 N.am      1 5U8        -0.1966
      3 C2         -7.7970    7.8510  -25.8090 C.ar      1 5U8        -0.0024
      4 C3         -7.6060    9.0050  -26.5510 C.ar      1 5U8        -0.0570
      5 C4         -8.4760    9.3530  -27.5680 C.ar      1 5U8        -0.0347
      6 C5         -9.5320    8.5280  -27.8240 C.ar      1 5U8         0.1248
      7 C6         -9.7610    7.3790  -27.1250 C.ar      1 5U8        -0.0347
      8 C1         -6.8440    7.4800  -24.6980 C.3       1 5U8         0.0000
      9 C7         -8.8820    7.0440  -26.1110 C.ar      1 5U8        -0.0570
     10 C9         -7.1070    7.0050  -20.9680 C.3       1 5U8         0.0077
     11 N1         -4.6780    6.0470  -18.3850 N.pl3     1 5U8        -0.1561
     12 C10        -6.1960    6.3690  -19.9480 C.2       1 5U8        -0.0239
     13 C11        -5.3100    7.0080  -19.0910 C.2       1 5U8         0.0638
     14 N2         -5.1110    4.7990  -18.7230 N.2       1 5U8        -0.2074
     15 C12        -6.0190    5.0030  -19.6600 C.2       1 5U8         0.0004
     16 C13        -3.6420    6.2070  -17.4350 C.ar      1 5U8         0.1980
     17 C15        -2.6360    9.6480  -17.7600 C.2       1 5U8         0.1280
     18 C14        -2.9510    7.4320  -17.3180 C.ar      1 5U8         0.0907
     19 C16        -1.0450    8.6240  -16.3130 C.2       1 5U8         0.2454
     20 N3         -3.3650    8.5760  -17.9670 N.2       1 5U8        -0.2870
     21 C17        -1.8280    7.3970  -16.4820 C.ar      1 5U8         0.0795
     22 C18        -1.4770    6.2280  -15.8100 C.ar      1 5U8        -0.0297
     23 O          -0.0160    8.6770  -15.6480 O.2       1 5U8        -0.3809
     24 C19        -2.2700    5.1130  -15.9900 C.ar      1 5U8         0.0012
     25 N5         -3.3450    5.0770  -16.7860 N.ar      1 5U8        -0.2697
     26 N          -7.4100    7.5800  -23.3620 N.4       1 5U8         0.2454
     27 C          -7.7830    8.9620  -23.0610 C.3       1 5U8        -0.0416
     28 F         -10.3980    8.8690  -28.8140 F         1 5U8        -0.1893
     29 H1         -6.1702    6.0511  -22.6431 H         1 5U8         0.0830
     30 H2         -5.6011    7.7227  -22.3136 H         1 5U8         0.0830
     31 H3         -1.0443   10.5698  -16.9033 H         1 5U8         0.2564
     32 H4         -6.7602    9.6462  -26.3307 H         1 5U8         0.0549
     33 H5         -8.3230   10.2570  -28.1463 H         1 5U8         0.0587
     34 H6        -10.6092    6.7455  -27.3581 H         1 5U8         0.0587
     35 H7         -5.9733    8.1499  -24.7536 H         1 5U8         0.0972
     36 H8         -6.5183    6.4414  -24.8567 H         1 5U8         0.0972
     37 H9         -9.0447    6.1350  -25.5432 H         1 5U8         0.0549
     38 H10        -8.0355    6.4181  -21.0257 H         1 5U8         0.0408
     39 H11        -7.3403    8.0293  -20.6419 H         1 5U8         0.0408
     40 H12        -5.1544    8.0824  -19.0047 H         1 5U8         0.0886
     41 H13        -6.5691    4.2037  -20.1544 H         1 5U8         0.0642
     42 H14        -2.9473   10.5688  -18.2511 H         1 5U8         0.1519
     43 H15        -0.6066    6.1953  -15.1647 H         1 5U8         0.0671
     44 H16        -2.0054    4.2095  -15.4527 H         1 5U8         0.0739
     45 H17        -8.2453    7.0164  -23.3344 H         1 5U8         0.2046
     46 H18        -8.2081    9.0147  -22.0478 H         1 5U8         0.0778
     47 H19        -8.5304    9.3073  -23.7905 H         1 5U8         0.0778
     48 H20        -6.8911    9.6033  -23.1182 H         1 5U8         0.0778
@<TRIPOS>BOND
     1   10    1 1  
     2    1   26 1  
     3   17    2 1  
     4    2   19 am 
     5    3    4 ar 
     6    8    3 1  
     7    3    9 ar 
     8    4    5 ar 
     9    5    6 ar 
    10    7    6 ar 
    11    6   28 1  
    12    9    7 ar 
    13   26    8 1  
    14   12   10 1  
    15   11   13 1  
    16   11   14 1  
    17   16   11 1  
    18   13   12 2  
    19   15   12 1  
    20   14   15 2  
    21   18   16 ar 
    22   16   25 ar 
    23   20   17 2  
    24   18   20 1  
    25   18   21 ar 
    26   19   21 1  
    27   19   23 2  
    28   21   22 ar 
    29   22   24 ar 
    30   24   25 ar 
    31   26   27 1  
    32    1   29 1  
    33    1   30 1  
    34    2   31 1  
    35    4   32 1  
    36    5   33 1  
    37    7   34 1  
    38    8   35 1  
    39    8   36 1  
    40    9   37 1  
    41   10   38 1  
    42   10   39 1  
    43   13   40 1  
    44   15   41 1  
    45   17   42 1  
    46   22   43 1  
    47   24   44 1  
    48   26   45 1  
    49   27   46 1  
    50   27   47 1  
    51   27   48 1  
@<TRIPOS>SUBSTRUCTURE
     1 5U8         1

