### 
### Created by X-TOOL on Mon Sep 10 21:13:26 2018
### 

@<TRIPOS>MOLECULE
5f3e_ligand
   38    40     1     0     0
SMALL
GAST_HUCK


@<TRIPOS>ATOM
      1 C1          6.5290  -18.4420  -53.1620 C.2       1 5UO         0.1280
      2 N2          4.5740  -14.8140  -52.1630 N.pl3     1 5UO        -0.1561
      3 C3          5.4380  -15.0040  -53.2770 C.ar      1 5UO         0.1980
      4 C4          3.3300  -13.7620  -50.7950 C.2       1 5UO         0.0004
      5 C5          3.4640  -15.0580  -50.2770 C.2       1 5UO        -0.0239
      6 C6          2.8970  -15.6190  -48.9980 C.3       1 5UO         0.0077
      7 C18         4.2190  -15.7860  -45.4550 C.3       1 5UO        -0.0432
      8 C19         4.2690  -15.7060  -51.1970 C.2       1 5UO         0.0638
      9 C20         6.5710  -13.9050  -54.9330 C.ar      1 5UO         0.0012
     10 C21         7.3600  -14.9970  -55.2180 C.ar      1 5UO        -0.0297
     11 N1          5.8370  -17.3780  -52.8240 N.2       1 5UO        -0.2870
     12 C2          6.1410  -16.2210  -53.5040 C.ar      1 5UO         0.0907
     13 C7          3.8130  -15.3970  -47.8060 C.3       1 5UO        -0.0277
     14 C8          2.7240  -17.2150  -46.6360 C.3       1 5UO        -0.0432
     15 N3          3.9900  -13.6030  -51.9260 N.2       1 5UO        -0.2074
     16 N4          3.2340  -15.8460  -46.5360 N.4       1 5UO         0.2318
     17 N5          5.6220  -13.8930  -53.9920 N.ar      1 5UO        -0.2697
     18 C22         7.1280  -16.1640  -54.4970 C.ar      1 5UO         0.0795
     19 C           7.8840  -17.3800  -54.8000 C.2       1 5UO         0.2454
     20 O           8.8100  -17.4010  -55.6020 O.2       1 5UO        -0.3809
     21 N           7.5080  -18.4690  -54.0930 N.am      1 5UO        -0.1966
     22 H1          6.2955  -19.3754  -52.6520 H         1 5UO         0.1519
     23 H2          2.7471  -12.9757  -50.3177 H         1 5UO         0.0642
     24 H3          2.7413  -16.7004  -49.1261 H         1 5UO         0.0408
     25 H4          1.9320  -15.1309  -48.7965 H         1 5UO         0.0408
     26 H5          3.7560  -16.1281  -44.5177 H         1 5UO         0.0777
     27 H6          4.5686  -14.7500  -45.3345 H         1 5UO         0.0777
     28 H7          5.0727  -16.4349  -45.7003 H         1 5UO         0.0777
     29 H8          4.5960  -16.7437  -51.1504 H         1 5UO         0.0886
     30 H9          6.7294  -12.9993  -55.5072 H         1 5UO         0.0739
     31 H10         8.1333  -14.9491  -55.9761 H         1 5UO         0.0671
     32 H11         4.0310  -14.3216  -47.7291 H         1 5UO         0.0830
     33 H12         4.7486  -15.9494  -47.9774 H         1 5UO         0.0830
     34 H13         2.2979  -17.5191  -45.6685 H         1 5UO         0.0777
     35 H14         3.5467  -17.8942  -46.9040 H         1 5UO         0.0777
     36 H15         1.9442  -17.2601  -47.4105 H         1 5UO         0.0777
     37 H16         2.4670  -15.2334  -46.3071 H         1 5UO         0.2029
     38 H17         7.9763  -19.3352  -54.2671 H         1 5UO         0.2564
@<TRIPOS>BOND
     1   11    1 2  
     2    1   21 1  
     3    2    3 1  
     4    8    2 1  
     5    2   15 1  
     6    3   12 ar 
     7    3   17 ar 
     8    5    4 1  
     9    4   15 2  
    10    6    5 1  
    11    5    8 2  
    12   13    6 1  
    13   16    7 1  
    14    9   10 ar 
    15   17    9 ar 
    16   18   10 ar 
    17   12   11 1  
    18   12   18 ar 
    19   13   16 1  
    20   16   14 1  
    21   18   19 1  
    22   19   20 2  
    23   19   21 am 
    24    1   22 1  
    25    4   23 1  
    26    6   24 1  
    27    6   25 1  
    28    7   26 1  
    29    7   27 1  
    30    7   28 1  
    31    8   29 1  
    32    9   30 1  
    33   10   31 1  
    34   13   32 1  
    35   13   33 1  
    36   14   34 1  
    37   14   35 1  
    38   14   36 1  
    39   16   37 1  
    40   21   38 1  
@<TRIPOS>SUBSTRUCTURE
     1 5UO         1

