### 
### Created by X-TOOL on Mon Sep 10 21:13:29 2018
### 

@<TRIPOS>MOLECULE
5f3g_ligand
   58    62     1     0     0
SMALL
GAST_HUCK


@<TRIPOS>ATOM
      1 C1        -17.8210  -16.4050  -29.7830 C.ar      1 5UL        -0.0546
      2 C2        -18.8180  -16.9210  -28.9770 C.ar      1 5UL        -0.0597
      3 N3        -23.1910  -12.2550  -17.4650 N.ar      1 5UL        -0.2697
      4 C4        -21.2430  -17.3150  -28.4140 C.3       1 5UL        -0.0158
      5 C7        -20.7850  -15.0140  -25.3120 C.3       1 5UL        -0.0314
      6 C9        -21.4440  -14.9880  -22.4300 C.3       1 5UL         0.0077
      7 C10       -21.6520  -14.2250  -21.1470 C.2       1 5UL        -0.0239
      8 C11       -22.3940  -14.6160  -20.0620 C.2       1 5UL         0.0638
      9 C12       -21.2230  -12.9270  -20.8150 C.2       1 5UL         0.0004
     10 C13       -23.1220  -13.4890  -17.9750 C.ar      1 5UL         0.1980
     11 C14       -24.0370  -12.0830  -16.4420 C.ar      1 5UL         0.0012
     12 C16       -24.6930  -14.3650  -16.4390 C.ar      1 5UL         0.0795
     13 C17       -23.8080  -14.6190  -17.4950 C.ar      1 5UL         0.0907
     14 C18       -24.3220  -16.8410  -17.4620 C.2       1 5UL         0.1280
     15 C20       -22.5740  -16.5010  -24.8520 C.3       1 5UL        -0.0314
     16 C23       -19.4880  -15.4540  -31.2160 C.ar      1 5UL        -0.0546
     17 O         -26.3280  -15.3530  -15.0330 O.2       1 5UL        -0.3809
     18 C19       -25.4690  -15.4780  -15.8980 C.2       1 5UL         0.2454
     19 C15       -24.8160  -13.0860  -15.9040 C.ar      1 5UL        -0.0297
     20 N5        -25.2160  -16.6740  -16.4590 N.am      1 5UL        -0.1966
     21 N4        -23.6160  -15.8830  -18.0120 N.2       1 5UL        -0.2870
     22 N1        -22.4010  -13.5900  -19.1870 N.pl3     1 5UL        -0.1561
     23 N2        -21.6730  -12.5320  -19.6370 N.2       1 5UL        -0.2074
     24 C8        -22.3530  -14.4690  -23.5310 C.3       1 5UL        -0.0272
     25 N         -22.1630  -15.1000  -24.8420 N.4       1 5UL         0.2362
     26 C6        -20.6880  -15.4800  -26.7590 C.3       1 5UL        -0.0077
     27 C21       -22.5580  -17.0510  -26.2710 C.3       1 5UL        -0.0077
     28 C5        -21.1940  -16.9060  -26.9370 C.3       1 5UL        -0.0217
     29 C3        -20.1570  -16.7190  -29.2750 C.ar      1 5UL        -0.0425
     30 C22       -20.4740  -15.9740  -30.4010 C.ar      1 5UL        -0.0597
     31 C         -18.1700  -15.6780  -30.8970 C.ar      1 5UL         0.0330
     32 CL        -16.9210  -15.0350  -31.9250 Cl        1 5UL        -0.0771
     33 H1        -16.7776  -16.5711  -29.5403 H         1 5UL         0.0606
     34 H2        -18.5486  -17.4934  -28.0968 H         1 5UL         0.0557
     35 H3        -22.2144  -17.0009  -28.8234 H         1 5UL         0.0430
     36 H4        -21.1592  -18.4105  -28.4681 H         1 5UL         0.0430
     37 H5        -20.1467  -15.6513  -24.6824 H         1 5UL         0.0814
     38 H6        -20.4430  -13.9708  -25.2434 H         1 5UL         0.0814
     39 H7        -21.6638  -16.0515  -22.2548 H         1 5UL         0.0408
     40 H8        -20.3967  -14.8775  -22.7475 H         1 5UL         0.0408
     41 H9        -22.8869  -15.5782  -19.9311 H         1 5UL         0.0886
     42 H10       -20.5906  -12.3159  -21.4572 H         1 5UL         0.0642
     43 H11       -24.1148  -11.0924  -16.0088 H         1 5UL         0.0739
     44 H12       -24.1779  -17.8513  -17.8420 H         1 5UL         0.1519
     45 H13       -23.5921  -16.5825  -24.4437 H         1 5UL         0.0814
     46 H14       -21.8812  -17.0860  -24.2292 H         1 5UL         0.0814
     47 H15       -19.7499  -14.8769  -32.0955 H         1 5UL         0.0606
     48 H16       -25.5027  -12.8844  -15.0898 H         1 5UL         0.0671
     49 H17       -25.7098  -17.4749  -16.1204 H         1 5UL         0.2564
     50 H18       -22.1718  -13.3898  -23.6425 H         1 5UL         0.0830
     51 H19       -23.3949  -14.6357  -23.2201 H         1 5UL         0.0830
     52 H20       -22.7447  -14.6022  -25.4976 H         1 5UL         0.2034
     53 H21       -19.6358  -15.4348  -27.0764 H         1 5UL         0.0321
     54 H22       -21.2902  -14.8088  -27.3889 H         1 5UL         0.0321
     55 H23       -23.3026  -16.5056  -26.8694 H         1 5UL         0.0321
     56 H24       -22.8235  -18.1180  -26.2390 H         1 5UL         0.0321
     57 H25       -20.4917  -17.5821  -26.4273 H         1 5UL         0.0326
     58 H26       -21.5150  -15.7966  -30.6458 H         1 5UL         0.0557
@<TRIPOS>BOND
     1    2    1 ar 
     2    1   31 ar 
     3   29    2 ar 
     4   10    3 ar 
     5    3   11 ar 
     6   28    4 1  
     7    4   29 1  
     8    5   25 1  
     9   26    5 1  
    10    6    7 1  
    11   24    6 1  
    12    7    8 2  
    13    7    9 1  
    14    8   22 1  
    15    9   23 2  
    16   10   13 ar 
    17   22   10 1  
    18   11   19 ar 
    19   13   12 ar 
    20   12   18 1  
    21   12   19 ar 
    22   13   21 1  
    23   14   20 1  
    24   21   14 2  
    25   25   15 1  
    26   15   27 1  
    27   16   30 ar 
    28   31   16 ar 
    29   18   17 2  
    30   18   20 am 
    31   23   22 1  
    32   25   24 1  
    33   26   28 1  
    34   27   28 1  
    35   29   30 ar 
    36   31   32 1  
    37    1   33 1  
    38    2   34 1  
    39    4   35 1  
    40    4   36 1  
    41    5   37 1  
    42    5   38 1  
    43    6   39 1  
    44    6   40 1  
    45    8   41 1  
    46    9   42 1  
    47   11   43 1  
    48   14   44 1  
    49   15   45 1  
    50   15   46 1  
    51   16   47 1  
    52   19   48 1  
    53   20   49 1  
    54   24   50 1  
    55   24   51 1  
    56   25   52 1  
    57   26   53 1  
    58   26   54 1  
    59   27   55 1  
    60   27   56 1  
    61   28   57 1  
    62   30   58 1  
@<TRIPOS>SUBSTRUCTURE
     1 5UL         1

