### 
### Created by X-TOOL on Mon Sep 10 21:13:27 2018
### 

@<TRIPOS>MOLECULE
5f3i_ligand
   38    40     1     0     0
SMALL
GAST_HUCK


@<TRIPOS>ATOM
      1 O           8.5930  -17.1610  -55.7490 O.2       1 5UJ        -0.3809
      2 C20         7.6660  -17.1020  -54.9490 C.2       1 5UJ         0.2454
      3 C17         6.9170  -15.8800  -54.6700 C.ar      1 5UJ         0.0795
      4 C16         7.1750  -14.7160  -55.3890 C.ar      1 5UJ        -0.0297
      5 C15         6.4030  -13.6080  -55.1150 C.ar      1 5UJ         0.0012
      6 N3          5.4400  -13.5770  -54.1870 N.ar      1 5UJ        -0.2697
      7 N5          7.2880  -18.1810  -54.2300 N.am      1 5UJ        -0.1966
      8 C19         6.2990  -18.1380  -53.3090 C.2       1 5UJ         0.1280
      9 N4          5.6030  -17.0680  -52.9970 N.2       1 5UJ        -0.2870
     10 C18         5.9170  -15.9170  -53.6890 C.ar      1 5UJ         0.0907
     11 C14         5.2380  -14.6940  -53.4840 C.ar      1 5UJ         0.1980
     12 N1          4.3590  -14.5510  -52.3840 N.pl3     1 5UJ        -0.1561
     13 C12         4.1230  -15.4390  -51.3970 C.2       1 5UJ         0.0638
     14 N2          3.6810  -13.3850  -52.1940 N.2       1 5UJ        -0.2074
     15 C13         3.0280  -13.5720  -51.0600 C.2       1 5UJ         0.0004
     16 C11         3.2650  -14.8460  -50.5060 C.2       1 5UJ        -0.0239
     17 C10         2.7200  -15.4460  -49.2350 C.3       1 5UJ         0.0077
     18 C9          3.3320  -14.8410  -47.9830 C.3       1 5UJ        -0.0277
     19 N           2.6780  -15.2970  -46.7510 N.4       1 5UJ         0.2318
     20 C8          3.3090  -14.7130  -45.5660 C.3       1 5UJ        -0.0432
     21 C21         2.7160  -16.7570  -46.6380 C.3       1 5UJ        -0.0432
     22 H1          7.9569  -14.6825  -56.1391 H         1 5UJ         0.0671
     23 H2          6.5874  -12.7057  -55.6868 H         1 5UJ         0.0739
     24 H3          7.7598  -19.0489  -54.3855 H         1 5UJ         0.2564
     25 H4          6.0606  -19.0623  -52.7849 H         1 5UJ         0.1519
     26 H5          4.5377  -16.4431  -51.3212 H         1 5UJ         0.0886
     27 H6          2.3794  -12.8251  -50.6047 H         1 5UJ         0.0642
     28 H7          2.9279  -16.5262  -49.2400 H         1 5UJ         0.0408
     29 H8          1.6326  -15.2820  -49.2080 H         1 5UJ         0.0408
     30 H9          3.2438  -13.7462  -48.0428 H         1 5UJ         0.0830
     31 H10         4.3948  -15.1215  -47.9408 H         1 5UJ         0.0830
     32 H11         1.7146  -15.0021  -46.7801 H         1 5UJ         0.2029
     33 H12         2.7965  -15.0741  -44.6622 H         1 5UJ         0.0777
     34 H13         3.2369  -13.6165  -45.6150 H         1 5UJ         0.0777
     35 H14         4.3676  -15.0097  -45.5304 H         1 5UJ         0.0777
     36 H15         2.2438  -17.2057  -47.5244 H         1 5UJ         0.0777
     37 H16         2.1713  -17.0692  -45.7348 H         1 5UJ         0.0777
     38 H17         3.7614  -17.0925  -46.5701 H         1 5UJ         0.0777
@<TRIPOS>BOND
     1    1    2 2  
     2    2    3 1  
     3    2    7 am 
     4    3    4 ar 
     5    3   10 ar 
     6    4    5 ar 
     7    5    6 ar 
     8    6   11 ar 
     9    7    8 1  
    10    8    9 2  
    11    9   10 1  
    12   10   11 ar 
    13   11   12 1  
    14   12   13 1  
    15   12   14 1  
    16   13   16 2  
    17   14   15 2  
    18   15   16 1  
    19   16   17 1  
    20   17   18 1  
    21   18   19 1  
    22   19   20 1  
    23   19   21 1  
    24    4   22 1  
    25    5   23 1  
    26    7   24 1  
    27    8   25 1  
    28   13   26 1  
    29   15   27 1  
    30   17   28 1  
    31   17   29 1  
    32   18   30 1  
    33   18   31 1  
    34   19   32 1  
    35   20   33 1  
    36   20   34 1  
    37   20   35 1  
    38   21   36 1  
    39   21   37 1  
    40   21   38 1  
@<TRIPOS>SUBSTRUCTURE
     1 5UJ         1

