### 
### Created by X-TOOL on Mon Sep 10 21:13:28 2018
### 

@<TRIPOS>MOLECULE
5f3t_ligand
   31    32     1     0     0
SMALL
GAST_HUCK


@<TRIPOS>ATOM
      1 C1         18.0890   60.8460   10.5690 C.ar      1 5UH         0.0946
      2 C2         17.9010   61.0270   11.9520 C.ar      1 5UH        -0.0371
      3 C3         17.7320   62.3130   12.4730 C.ar      1 5UH        -0.0663
      4 O1         18.7230   66.8550   12.2070 O.co2     1 5UH        -0.5667
      5 O2         19.8530   65.0260   12.6710 O.co2     1 5UH        -0.5667
      6 C11        19.2860   60.8060    6.2780 C.ar      1 5UH        -0.0631
      7 C12        18.4890   61.5550    5.4180 C.ar      1 5UH        -0.0634
      8 C13        17.5720   62.4640    5.9500 C.ar      1 5UH        -0.0631
      9 C14        17.4510   62.6160    7.3340 C.ar      1 5UH        -0.0570
     10 C6         18.7880   65.6180   12.3860 C.2       1 5UH         0.0447
     11 C5         17.5240   64.8080   12.2800 C.3       1 5UH         0.0287
     12 C4         17.7610   63.4460   11.6530 C.ar      1 5UH        -0.0399
     13 C7         17.9310   63.3170   10.2650 C.ar      1 5UH        -0.0585
     14 C8         18.1150   62.0500    9.6820 C.ar      1 5UH         0.0064
     15 O          18.2510   59.5900   10.0170 O.3       1 5UH        -0.3227
     16 C          17.9440   58.4010   10.7510 C.3       1 5UH         0.0589
     17 C9         18.2760   61.8880    8.2020 C.ar      1 5UH        -0.0231
     18 C10        19.2040   60.9870    7.6630 C.ar      1 5UH        -0.0570
     19 H1         17.8873   60.1685   12.6137 H         1 5UH         0.0527
     20 H2         17.5746   62.4353   13.5385 H         1 5UH         0.0539
     21 H3         19.9765   60.0759    5.8715 H         1 5UH         0.0613
     22 H4         18.5791   61.4340    4.3445 H         1 5UH         0.0603
     23 H5         16.9510   63.0546    5.2862 H         1 5UH         0.0613
     24 H6         16.7147   63.3010    7.7385 H         1 5UH         0.0607
     25 H7         16.8010   65.3605   11.6619 H         1 5UH         0.0568
     26 H8         17.1101   64.6652   13.2891 H         1 5UH         0.0568
     27 H9         17.9204   64.2010    9.6377 H         1 5UH         0.0535
     28 H10        18.1457   57.5204   10.1235 H         1 5UH         0.0577
     29 H11        16.8822   58.4112   11.0381 H         1 5UH         0.0577
     30 H12        18.5681   58.3572   11.6557 H         1 5UH         0.0577
     31 H13        19.8602   60.4287    8.3209 H         1 5UH         0.0607
@<TRIPOS>BOND
     1    1    2 ar 
     2   14    1 ar 
     3    1   15 1  
     4    2    3 ar 
     5   12    3 ar 
     6   10    4 ar 
     7   10    5 ar 
     8    7    6 ar 
     9    6   18 ar 
    10    8    7 ar 
    11    9    8 ar 
    12   17    9 ar 
    13   11   10 1  
    14   12   11 1  
    15   13   12 ar 
    16   14   13 ar 
    17   14   17 1  
    18   15   16 1  
    19   17   18 ar 
    20    2   19 1  
    21    3   20 1  
    22    6   21 1  
    23    7   22 1  
    24    8   23 1  
    25    9   24 1  
    26   11   25 1  
    27   11   26 1  
    28   13   27 1  
    29   16   28 1  
    30   16   29 1  
    31   16   30 1  
    32   18   31 1  
@<TRIPOS>SUBSTRUCTURE
     1 5UH         1

