### 
### Created by X-TOOL on Mon Sep 10 21:13:28 2018
### 

@<TRIPOS>MOLECULE
5f3z_ligand
   28    29     1     0     0
SMALL
GAST_HUCK


@<TRIPOS>ATOM
      1 C1         17.4550   64.3760   12.4090 C.3       1 5V5         0.0283
      2 C2         17.6750   62.9990   11.7980 C.ar      1 5V5        -0.0419
      3 C3         17.6080   61.8490   12.5960 C.ar      1 5V5        -0.0679
      4 O1         18.1870   59.1930   10.1070 O.3       1 5V5        -0.3227
      5 O2         19.8060   64.5650   12.6430 O.co2     1 5V5        -0.5667
      6 C11        19.1160   60.8520    6.0540 C.2       1 5V5        -0.0090
      7 C12        17.9480   62.9060   10.4410 C.ar      1 5V5        -0.0598
      8 O          18.6680   66.4140   12.3730 O.co2     1 5V5        -0.5667
      9 C          18.7320   65.1730   12.4730 C.2       1 5V5         0.0446
     10 C4         17.7710   60.5760   12.0570 C.ar      1 5V5        -0.0384
     11 C5         18.0510   60.4340   10.6850 C.ar      1 5V5         0.0945
     12 C6         18.0380   57.9890   10.8630 C.3       1 5V5         0.0590
     13 C7         18.1310   61.6630    9.8430 C.ar      1 5V5         0.0141
     14 C8         18.3500   61.6320    8.3710 C.2       1 5V5         0.0297
     15 C9         17.9110   62.4540    7.3430 C.2       1 5V5        -0.0726
     16 C10        18.3600   62.0170    6.0880 C.2       1 5V5        -0.0781
     17 S          19.2830   60.3430    7.7010 S.3       1 5V5        -0.0428
     18 H1         17.0607   64.2538   13.4286 H         1 5V5         0.0567
     19 H2         16.7241   64.9242   11.7964 H         1 5V5         0.0567
     20 H3         17.4247   61.9534   13.6593 H         1 5V5         0.0525
     21 H4         19.5211   60.3592    5.1714 H         1 5V5         0.0713
     22 H5         18.0192   63.8072    9.8429 H         1 5V5         0.0515
     23 H6         17.6829   59.7001   12.6895 H         1 5V5         0.0522
     24 H7         18.1875   57.1212   10.2037 H         1 5V5         0.0578
     25 H8         17.0276   57.9506   11.2961 H         1 5V5         0.0578
     26 H9         18.7843   57.9686   11.6709 H         1 5V5         0.0578
     27 H10        17.2900   63.3359    7.4931 H         1 5V5         0.0406
     28 H11        18.1257   62.5680    5.1783 H         1 5V5         0.0414
@<TRIPOS>BOND
     1    2    1 1  
     2    1    9 1  
     3    2    3 ar 
     4    7    2 ar 
     5   10    3 ar 
     6   11    4 1  
     7    4   12 1  
     8    9    5 ar 
     9    6   16 2  
    10   17    6 1  
    11   13    7 ar 
    12    9    8 ar 
    13   11   10 ar 
    14   13   11 ar 
    15   14   13 1  
    16   14   15 2  
    17   14   17 1  
    18   15   16 1  
    19    1   18 1  
    20    1   19 1  
    21    3   20 1  
    22    6   21 1  
    23    7   22 1  
    24   10   23 1  
    25   12   24 1  
    26   12   25 1  
    27   12   26 1  
    28   15   27 1  
    29   16   28 1  
@<TRIPOS>SUBSTRUCTURE
     1 5V5         1

