### 
### Created by X-TOOL on Mon Sep 10 21:13:28 2018
### 

@<TRIPOS>MOLECULE
5f41_ligand
   28    29     1     0     0
SMALL
GAST_HUCK


@<TRIPOS>ATOM
      1 C1         17.4640   65.1220   12.4020 C.3       1 5V6         0.0280
      2 C2         17.7330   63.7680   11.7610 C.ar      1 5V6        -0.0434
      3 C3         17.9890   63.6850   10.3830 C.ar      1 5V6        -0.0637
      4 O1         18.6320   67.1880   12.5470 O.co2     1 5V6        -0.5667
      5 O2         18.2960   59.9840   10.0160 O.3       1 5V6        -0.3248
      6 C11        17.8530   61.3450   11.9840 C.ar      1 5V6        -0.0405
      7 C12        17.6480   62.6080   12.5450 C.ar      1 5V6        -0.0695
      8 C          18.7170   65.9420   12.5560 C.2       1 5V6         0.0446
      9 O          19.7980   65.3500   12.7030 O.co2     1 5V6        -0.5667
     10 C4         18.2030   62.4430    9.7600 C.ar      1 5V6        -0.0080
     11 C9         18.1240   61.2180   10.6000 C.ar      1 5V6         0.0894
     12 C10        18.0980   58.7750   10.7550 C.3       1 5V6         0.0582
     13 C5         18.4410   62.3650    8.2840 C.2       1 5V6        -0.0369
     14 C6         17.8180   63.2360    7.3810 C.2       1 5V6        -0.0006
     15 S          18.3590   62.7680    5.8040 S.3       1 5V6        -0.0451
     16 C7         19.3330   61.4300    6.2700 C.2       1 5V6        -0.0073
     17 C8         19.2550   61.3970    7.6570 C.2       1 5V6        -0.0712
     18 H1         17.0227   64.9608   13.3966 H         1 5V6         0.0567
     19 H2         16.7539   65.6768   11.7713 H         1 5V6         0.0567
     20 H3         18.0221   64.5922    9.7906 H         1 5V6         0.0504
     21 H4         17.8045   60.4608   12.6093 H         1 5V6         0.0518
     22 H5         17.4200   62.6927   13.6014 H         1 5V6         0.0513
     23 H6         18.2868   57.9107   10.1014 H         1 5V6         0.0576
     24 H7         17.0625   58.7362   11.1241 H         1 5V6         0.0576
     25 H8         18.7924   58.7485   11.6077 H         1 5V6         0.0576
     26 H9         17.1308   64.0456    7.6225 H         1 5V6         0.0718
     27 H10        19.8893   60.7559    5.6203 H         1 5V6         0.0721
     28 H11        19.8001   60.6539    8.2372 H         1 5V6         0.0406
@<TRIPOS>BOND
     1    2    1 1  
     2    1    8 1  
     3    2    3 ar 
     4    7    2 ar 
     5    3   10 ar 
     6    8    4 ar 
     7   11    5 1  
     8    5   12 1  
     9    6    7 ar 
    10    6   11 ar 
    11    8    9 ar 
    12   10   11 ar 
    13   10   13 1  
    14   13   14 2  
    15   13   17 1  
    16   14   15 1  
    17   15   16 1  
    18   16   17 2  
    19    1   18 1  
    20    1   19 1  
    21    3   20 1  
    22    6   21 1  
    23    7   22 1  
    24   12   23 1  
    25   12   24 1  
    26   12   25 1  
    27   14   26 1  
    28   16   27 1  
    29   17   28 1  
@<TRIPOS>SUBSTRUCTURE
     1 5V6         1

