### 
### Created by X-TOOL on Mon Sep 10 21:13:30 2018
### 

@<TRIPOS>MOLECULE
5f4l_ligand
   57    59     1     0     0
SMALL
GAST_HUCK


@<TRIPOS>ATOM
      1 C10       -19.6980    1.2920   23.8940 C.ar      1 5VE        -0.0120
      2 C13       -20.9320   -0.1570   20.5340 C.3       1 5VE         0.0801
      3 C15       -22.2980   -2.1770   20.1690 C.2       1 5VE         0.2927
      4 C17       -22.4950   -3.6750   20.3850 C.2       1 5VE         0.3121
      5 C20       -23.9380   -5.6910   19.9350 C.ar      1 5VE         0.0659
      6 C21       -23.6520   -6.4320   21.0790 C.ar      1 5VE        -0.0073
      7 C22       -23.9340   -7.8230   21.1010 C.ar      1 5VE         0.1334
      8 C24       -24.5000   -8.4580   19.9620 C.ar      1 5VE         0.0570
      9 C26       -24.7810   -7.7190   18.8130 C.ar      1 5VE        -0.0630
     10 N         -19.4480    1.1030   26.3220 N.4       1 5VE         0.2360
     11 C         -19.6680    1.7440   27.5930 C.3       1 5VE        -0.0436
     12 C00       -20.1960    1.7370   25.3500 C.3       1 5VE        -0.0047
     13 CL25      -24.8500  -10.1620   19.9810 Cl        1 5VE        -0.0860
     14 N01       -22.4610    3.1010   18.4440 N.pl3     1 5VE        -0.2849
     15 C02       -22.5530    2.0820   17.7050 C.cat     1 5VE         0.2883
     16 N03       -21.4770    1.0870   17.6920 N.pl3     1 5VE        -0.2717
     17 C04       -20.2640    1.2670   18.5450 C.3       1 5VE         0.0706
     18 C05       -19.9770   -0.0110   19.3500 C.3       1 5VE         0.0316
     19 C06       -18.6360    0.0280   19.9200 C.3       1 5VE        -0.0148
     20 C07       -18.8000    0.5190   21.3450 C.ar      1 5VE        -0.0449
     21 C08       -17.8970    1.0140   22.2600 C.ar      1 5VE        -0.0730
     22 C09       -18.3470    1.4060   23.5520 C.ar      1 5VE        -0.0688
     23 C11       -20.6170    0.7900   22.9670 C.ar      1 5VE        -0.0581
     24 C12       -20.1660    0.4050   21.7010 C.ar      1 5VE        -0.0216
     25 N14       -21.1360   -1.5270   20.7320 N.am      1 5VE        -0.2611
     26 O16       -23.1180   -1.5280   19.5280 O.2       1 5VE        -0.3579
     27 O18       -21.6650   -4.3040   21.0260 O.2       1 5VE        -0.3460
     28 N19       -23.6740   -4.3240   19.8270 N.am      1 5VE        -0.2228
     29 C27       -24.4980   -6.3350   18.7900 C.ar      1 5VE        -0.0442
     30 N28       -23.6470    1.9070   16.9270 N.pl3     1 5VE        -0.2849
     31 F23       -23.6720   -8.5310   22.1850 F         1 5VE        -0.1867
     32 H1        -21.8833    0.3714   20.3733 H         1 5VE         0.0711
     33 H2        -23.2169   -5.9497   21.9469 H         1 5VE         0.0488
     34 H3        -25.2131   -8.2027   17.9445 H         1 5VE         0.0575
     35 H4        -19.7252    0.1357   26.3813 H         1 5VE         0.2024
     36 H5        -18.4704    1.1584   26.0827 H         1 5VE         0.2024
     37 H6        -19.0717    1.2383   28.3668 H         1 5VE         0.0777
     38 H7        -20.7348    1.6836   27.8544 H         1 5VE         0.0777
     39 H8        -19.3654    2.7996   27.5286 H         1 5VE         0.0777
     40 H9        -21.2550    1.4652   25.4711 H         1 5VE         0.0965
     41 H10       -20.0824    2.8259   25.4563 H         1 5VE         0.0965
     42 H11       -23.2171    3.8004   18.4533 H         1 5VE         0.2615
     43 H12       -21.6298    3.2332   19.0378 H         1 5VE         0.2615
     44 H13       -21.5580    0.2558   17.0891 H         1 5VE         0.2642
     45 H14       -20.4312    2.1028   19.2403 H         1 5VE         0.0695
     46 H15       -19.3998    1.4918   17.9026 H         1 5VE         0.0695
     47 H16       -20.0759   -0.8801   18.6830 H         1 5VE         0.0397
     48 H17       -17.9982    0.7189   19.3491 H         1 5VE         0.0404
     49 H18       -18.1880   -0.9766   19.9114 H         1 5VE         0.0404
     50 H19       -16.8492    1.1045   21.9973 H         1 5VE         0.0521
     51 H20       -17.6388    1.7949   24.2746 H         1 5VE         0.0484
     52 H21       -21.6656    0.7006   23.2268 H         1 5VE         0.0480
     53 H22       -20.4764   -2.0577   21.2642 H         1 5VE         0.1894
     54 H23       -24.3347   -3.7557   19.3366 H         1 5VE         0.2273
     55 H24       -24.7075   -5.7578   17.8967 H         1 5VE         0.0472
     56 H25       -24.4029    2.6065   16.9365 H         1 5VE         0.2615
     57 H26       -23.7234    1.0743   16.3256 H         1 5VE         0.2615
@<TRIPOS>BOND
     1    1   12 1  
     2   22    1 ar 
     3    1   23 ar 
     4    2   18 1  
     5   24    2 1  
     6    2   25 1  
     7    3    4 1  
     8   25    3 am 
     9    3   26 2  
    10    4   27 2  
    11    4   28 am 
    12    5    6 ar 
    13   28    5 1  
    14    5   29 ar 
    15    6    7 ar 
    16    7    8 ar 
    17    7   31 1  
    18    9    8 ar 
    19    8   13 1  
    20   29    9 ar 
    21   10   11 1  
    22   12   10 1  
    23   15   14 ar 
    24   16   15 ar 
    25   15   30 ar 
    26   17   16 1  
    27   18   17 1  
    28   19   18 1  
    29   20   19 1  
    30   21   20 ar 
    31   20   24 ar 
    32   21   22 ar 
    33   23   24 ar 
    34    2   32 1  
    35    6   33 1  
    36    9   34 1  
    37   10   35 1  
    38   10   36 1  
    39   11   37 1  
    40   11   38 1  
    41   11   39 1  
    42   12   40 1  
    43   12   41 1  
    44   14   42 1  
    45   14   43 1  
    46   16   44 1  
    47   17   45 1  
    48   17   46 1  
    49   18   47 1  
    50   19   48 1  
    51   19   49 1  
    52   21   50 1  
    53   22   51 1  
    54   23   52 1  
    55   25   53 1  
    56   28   54 1  
    57   29   55 1  
    58   30   56 1  
    59   30   57 1  
@<TRIPOS>SUBSTRUCTURE
     1 5VE         1

