### 
### Created by X-TOOL on Mon Sep 10 21:13:26 2018
### 

@<TRIPOS>MOLECULE
5f4n_ligand
   47    49     1     0     0
SMALL
GAST_HUCK


@<TRIPOS>ATOM
      1 C1         17.9480    0.3530    8.5770 C.ar      1 5UY         0.0078
      2 O1         20.6760   -1.9440    9.1400 O.2       1 5UY        -0.3665
      3 C2         15.9380   -0.2920    9.4390 C.ar      1 5UY         0.1286
      4 O2         20.4860   -0.1560    7.7920 O.3       1 5UY        -0.2835
      5 C3         16.4690   -1.5050    9.8770 C.ar      1 5UY         0.0110
      6 C4         17.8100   -1.7910    9.6420 C.ar      1 5UY         0.0700
      7 C5         17.5770   -4.0340   10.6980 C.3       1 5UY         0.0587
      8 C6         17.7350   -4.1500   12.1980 C.3       1 5UY         0.1183
      9 C7         17.1090   -5.6890   13.9060 C.3       1 5UY         0.0881
     10 C8         16.4970   -4.5800   14.7240 C.3       1 5UY        -0.0096
     11 N1         18.3490   -2.9880   10.0480 N.pl3     1 5UY        -0.3104
     12 C9         17.0920   -3.0070   12.9660 C.3       1 5UY        -0.0047
     13 C13        12.5320    0.2780   10.7990 C.ar      1 5UY         0.0765
     14 C10        13.6840   -0.4580   10.4950 C.ar      1 5UY         0.1761
     15 C11        12.9500   -2.1450   11.8310 C.ar      1 5UY         0.0628
     16 C12        11.8070   -1.4220   12.1350 C.ar      1 5UY         0.1846
     17 C14        10.7900   -1.9620   13.0130 C.1       1 5UY         0.1189
     18 C15        20.0180   -1.0530    8.6650 C.2       1 5UY         0.2545
     19 C16        21.8830   -0.2610    7.4270 C.3       1 5UY         0.0643
     20 N2         17.1110   -3.2840   14.4030 N.4       1 5UY         0.2305
     21 C          18.5820   -0.8210    8.9750 C.ar      1 5UY         0.0942
     22 O          17.0620   -5.3720   12.5050 O.3       1 5UY        -0.3640
     23 N          16.6600    0.6220    8.7930 N.ar      1 5UY        -0.2894
     24 N3         14.6280    0.0670    9.6470 N.pl3     1 5UY        -0.2346
     25 N5         11.5900   -0.1980   11.6180 N.ar      1 5UY        -0.2490
     26 N4         13.8880   -1.6650   11.0130 N.ar      1 5UY        -0.2427
     27 N6         10.0040   -2.4140   13.7010 N.1       1 5UY        -0.3257
     28 H1         18.5405    1.0973    8.0573 H         1 5UY         0.0809
     29 H2         15.8413   -2.2198   10.3968 H         1 5UY         0.0526
     30 H3         16.5140   -3.8464   10.4865 H         1 5UY         0.0547
     31 H4         17.8751   -4.9954   10.2543 H         1 5UY         0.0547
     32 H5         18.8004   -4.2072   12.4654 H         1 5UY         0.0670
     33 H6         16.5507   -6.6198   14.0845 H         1 5UY         0.0613
     34 H7         18.1572   -5.8260   14.2102 H         1 5UY         0.0613
     35 H8         16.6498   -4.7951   15.7919 H         1 5UY         0.0836
     36 H9         15.4191   -4.5293   14.5108 H         1 5UY         0.0836
     37 H10        19.3523   -3.1526    9.8831 H         1 5UY         0.1818
     38 H11        16.0502   -2.8877   12.6336 H         1 5UY         0.0840
     39 H12        17.6486   -2.0790   12.7683 H         1 5UY         0.0840
     40 H13        12.4012    1.2597   10.3582 H         1 5UY         0.0883
     41 H14        13.0852   -3.1269   12.2699 H         1 5UY         0.0988
     42 H15        22.1345    0.5320    6.7074 H         1 5UY         0.0575
     43 H16        22.0696   -1.2438    6.9696 H         1 5UY         0.0575
     44 H17        22.5063   -0.1509    8.3266 H         1 5UY         0.0575
     45 H18        18.0677   -3.2901   14.7202 H         1 5UY         0.2015
     46 H19        16.6031   -2.5563   14.8810 H         1 5UY         0.2015
     47 H20        14.3011    0.8581    9.0740 H         1 5UY         0.2231
@<TRIPOS>BOND
     1   21    1 ar 
     2    1   23 ar 
     3   18    2 2  
     4    5    3 ar 
     5   23    3 ar 
     6    3   24 1  
     7   18    4 1  
     8    4   19 1  
     9    6    5 ar 
    10    6   11 1  
    11   21    6 ar 
    12    7    8 1  
    13   11    7 1  
    14    8   12 1  
    15    8   22 1  
    16    9   10 1  
    17   22    9 1  
    18   20   10 1  
    19   12   20 1  
    20   14   13 ar 
    21   13   25 ar 
    22   24   14 1  
    23   14   26 ar 
    24   15   16 ar 
    25   26   15 ar 
    26   16   17 1  
    27   25   16 ar 
    28   17   27 3  
    29   18   21 1  
    30    1   28 1  
    31    5   29 1  
    32    7   30 1  
    33    7   31 1  
    34    8   32 1  
    35    9   33 1  
    36    9   34 1  
    37   10   35 1  
    38   10   36 1  
    39   11   37 1  
    40   12   38 1  
    41   12   39 1  
    42   13   40 1  
    43   15   41 1  
    44   19   42 1  
    45   19   43 1  
    46   19   44 1  
    47   20   45 1  
    48   20   46 1  
    49   24   47 1  
@<TRIPOS>SUBSTRUCTURE
     1 5UY         1

