### 
### Created by X-TOOL on Mon Sep 10 21:13:30 2018
### 

@<TRIPOS>MOLECULE
5f4p_ligand
   57    59     1     0     0
SMALL
GAST_HUCK


@<TRIPOS>ATOM
      1 C10       -16.9620  -59.5240   22.1640 C.ar      1 5VG        -0.0687
      2 C13       -15.1290  -59.4540   18.6920 C.3       1 5VG         0.0787
      3 C15       -13.4140  -57.7780   18.0590 C.2       1 5VG         0.2925
      4 C17       -13.0240  -56.3330   17.8260 C.2       1 5VG         0.3121
      5 C20       -11.2350  -54.6670   17.1630 C.ar      1 5VG         0.0659
      6 C21       -11.4750  -53.6570   18.1010 C.ar      1 5VG        -0.0073
      7 C22       -11.0380  -52.3480   17.8350 C.ar      1 5VG         0.1334
      8 C24       -10.3580  -52.0520   16.6300 C.ar      1 5VG         0.0570
      9 C26       -10.1160  -53.0550   15.7010 C.ar      1 5VG        -0.0630
     10 N         -19.2340  -58.7870   23.7450 N.4       1 5VG         0.2360
     11 C         -19.6230  -59.3790   24.9630 C.3       1 5VG        -0.0436
     12 C00       -19.4480  -59.7190   22.6800 C.3       1 5VG        -0.0047
     13 CL25       -9.8250  -50.4590   16.3040 Cl        1 5VG        -0.0860
     14 N01       -13.1320  -62.5650   17.7980 N.pl3     1 5VG        -0.2849
     15 C02       -13.3160  -62.0980   16.6000 C.cat     1 5VG         0.2883
     16 N03       -14.5930  -61.4690   16.2390 N.pl3     1 5VG        -0.2717
     17 C04       -15.6520  -61.3600   17.2190 C.3       1 5VG         0.0706
     18 C05       -15.9200  -59.9090   17.5170 C.3       1 5VG         0.0316
     19 C06       -17.3540  -59.6710   17.8480 C.3       1 5VG        -0.0133
     20 C07       -17.4220  -59.6340   19.3620 C.ar      1 5VG        -0.0445
     21 C08       -18.5160  -59.7050   20.2530 C.ar      1 5VG        -0.0602
     22 C09       -18.2710  -59.6460   21.6760 C.ar      1 5VG        -0.0121
     23 C11       -15.8440  -59.4560   21.2480 C.ar      1 5VG        -0.0709
     24 C12       -16.0900  -59.5100   19.8670 C.ar      1 5VG        -0.0220
     25 N14       -14.7540  -58.0960   18.4760 N.am      1 5VG        -0.2620
     26 O16       -12.5810  -58.6870   17.8890 O.2       1 5VG        -0.3579
     27 O18       -13.8630  -55.4380   17.9980 O.2       1 5VG        -0.3460
     28 N19       -11.6690  -56.0180   17.4070 N.am      1 5VG        -0.2228
     29 C27       -10.5610  -54.3810   15.9750 C.ar      1 5VG        -0.0442
     30 N28       -12.3850  -62.1920   15.7400 N.pl3     1 5VG        -0.2849
     31 F23       -11.2770  -51.3500   18.7590 F         1 5VG        -0.1867
     32 H1        -16.7868  -59.4804   23.2329 H         1 5VG         0.0484
     33 H2        -14.2452  -60.0872   18.8591 H         1 5VG         0.0698
     34 H3        -11.9939  -53.8823   19.0257 H         1 5VG         0.0488
     35 H4         -9.5943  -52.8320   14.7773 H         1 5VG         0.0575
     36 H5        -18.2574  -58.5407   23.7864 H         1 5VG         0.2024
     37 H6        -19.7832  -57.9575   23.5826 H         1 5VG         0.2024
     38 H7        -19.4605  -58.6666   25.7853 H         1 5VG         0.0777
     39 H8        -19.0236  -60.2845   25.1386 H         1 5VG         0.0777
     40 H9        -20.6886  -59.6480   24.9161 H         1 5VG         0.0777
     41 H10       -20.3863  -59.4723   22.1616 H         1 5VG         0.0965
     42 H11       -19.5136  -60.7366   23.0926 H         1 5VG         0.0965
     43 H12       -12.2348  -63.0054   18.0469 H         1 5VG         0.2615
     44 H13       -13.8833  -62.4949   18.4991 H         1 5VG         0.2615
     45 H14       -14.7351  -61.1046   15.2861 H         1 5VG         0.2642
     46 H15       -15.3489  -61.8732   18.1435 H         1 5VG         0.0695
     47 H16       -16.5660  -61.8268   16.8232 H         1 5VG         0.0695
     48 H17       -15.6448  -59.3131   16.6343 H         1 5VG         0.0397
     49 H18       -17.9792  -60.4864   17.4554 H         1 5VG         0.0416
     50 H19       -17.6920  -58.7135   17.4250 H         1 5VG         0.0416
     51 H20       -19.5269  -59.8025   19.8739 H         1 5VG         0.0479
     52 H21       -14.8310  -59.3647   21.6228 H         1 5VG         0.0522
     53 H22       -15.4218  -57.3646   18.6142 H         1 5VG         0.1892
     54 H23       -11.0156  -56.7649   17.2839 H         1 5VG         0.2273
     55 H24       -10.3749  -55.1714   15.2569 H         1 5VG         0.0472
     56 H25       -11.4903  -62.6336   15.9958 H         1 5VG         0.2615
     57 H26       -12.5252  -61.8266   14.7873 H         1 5VG         0.2615
@<TRIPOS>BOND
     1   22    1 ar 
     2    1   23 ar 
     3    2   18 1  
     4   24    2 1  
     5    2   25 1  
     6    3    4 1  
     7   25    3 am 
     8    3   26 2  
     9    4   27 2  
    10    4   28 am 
    11    5    6 ar 
    12   28    5 1  
    13    5   29 ar 
    14    6    7 ar 
    15    7    8 ar 
    16    7   31 1  
    17    9    8 ar 
    18    8   13 1  
    19   29    9 ar 
    20   10   11 1  
    21   12   10 1  
    22   22   12 1  
    23   15   14 ar 
    24   16   15 ar 
    25   15   30 ar 
    26   17   16 1  
    27   18   17 1  
    28   19   18 1  
    29   20   19 1  
    30   21   20 ar 
    31   20   24 ar 
    32   21   22 ar 
    33   23   24 ar 
    34    1   32 1  
    35    2   33 1  
    36    6   34 1  
    37    9   35 1  
    38   10   36 1  
    39   10   37 1  
    40   11   38 1  
    41   11   39 1  
    42   11   40 1  
    43   12   41 1  
    44   12   42 1  
    45   14   43 1  
    46   14   44 1  
    47   16   45 1  
    48   17   46 1  
    49   17   47 1  
    50   18   48 1  
    51   19   49 1  
    52   19   50 1  
    53   21   51 1  
    54   23   52 1  
    55   25   53 1  
    56   28   54 1  
    57   29   55 1  
    58   30   56 1  
    59   30   57 1  
@<TRIPOS>SUBSTRUCTURE
     1 5VG         1

