### 
### Created by X-TOOL on Mon Sep 10 21:13:30 2018
### 

@<TRIPOS>MOLECULE
5f4r_ligand
   62    64     1     0     0
SMALL
GAST_HUCK


@<TRIPOS>ATOM
      1 CAA       -11.4980  -53.4620   18.1780 C.ar      1 5VF        -0.0073
      2 CAB       -10.9710  -52.1920   17.9030 C.ar      1 5VF         0.1334
      3 FAC       -11.3260  -51.1360   18.6820 F         1 5VF        -0.1867
      4 CAD       -10.0740  -52.0250   16.8260 C.ar      1 5VF         0.0570
      5 CLAE       -9.4160  -50.4990   16.4610 Cl        1 5VF        -0.0860
      6 CAF        -9.7020  -53.1120   16.0240 C.ar      1 5VF        -0.0630
      7 CAG       -10.2320  -54.3780   16.2990 C.ar      1 5VF        -0.0442
      8 CAH       -11.1260  -54.5500   17.3690 C.ar      1 5VF         0.0659
      9 NAI       -11.6520  -55.9100   17.6110 N.am      1 5VF        -0.2228
     10 CAJ       -12.9770  -56.1820   18.0210 C.2       1 5VF         0.3121
     11 OAK       -13.7700  -55.3290   18.2100 O.2       1 5VF        -0.3460
     12 CAL       -13.3150  -57.6210   18.2040 C.2       1 5VF         0.2925
     13 OAM       -12.4440  -58.4830   17.9910 O.2       1 5VF        -0.3579
     14 NAN       -14.6470  -58.0540   18.6280 N.am      1 5VF        -0.2620
     15 CAO       -14.8490  -59.4350   18.7620 C.3       1 5VF         0.0787
     16 CAP       -15.8450  -59.6820   19.8470 C.ar      1 5VF        -0.0220
     17 CAQ       -15.6900  -59.6850   21.2570 C.ar      1 5VF        -0.0710
     18 CAR       -16.8040  -59.9450   22.0640 C.ar      1 5VF        -0.0704
     19 CAS       -18.0610  -60.1990   21.4740 C.ar      1 5VF        -0.0203
     20 CAT       -19.2970  -60.4870   22.3680 C.3       1 5VF         0.0938
     21 NAU       -19.3590  -61.8700   22.6750 N.pl3     1 5VF        -0.2521
     22 CBE       -18.4460  -62.7830   22.1300 C.3       1 5VF         0.0556
     23 CBF       -20.3360  -62.2820   23.5160 C.cat     1 5VF         0.2918
     24 NBH       -21.1510  -61.4320   24.0000 N.pl3     1 5VF        -0.2846
     25 NBG       -20.4360  -63.5260   23.8260 N.pl3     1 5VF        -0.2846
     26 CAV       -18.2100  -60.1930   20.0760 C.ar      1 5VF        -0.0619
     27 CAW       -17.0940  -59.9320   19.2570 C.ar      1 5VF        -0.0445
     28 CAX       -16.9450  -59.8680   17.7290 C.3       1 5VF        -0.0133
     29 CAY       -15.4750  -59.9630   17.4950 C.3       1 5VF         0.0316
     30 CAZ       -15.0690  -61.4000   17.2750 C.3       1 5VF         0.0706
     31 NBA       -14.1960  -61.5080   16.1440 N.pl3     1 5VF        -0.2717
     32 CBB       -12.8310  -62.0210   16.2650 C.cat     1 5VF         0.2883
     33 NBD       -12.0890  -62.0940   15.2170 N.pl3     1 5VF        -0.2849
     34 NBC       -12.3540  -62.4070   17.4460 N.pl3     1 5VF        -0.2849
     35 H1        -12.1844  -53.6033   19.0050 H         1 5VF         0.0488
     36 H2         -9.0115  -52.9741   15.1998 H         1 5VF         0.0575
     37 H3         -9.9523  -55.2268   15.6856 H         1 5VF         0.0472
     38 H4        -11.0333  -56.6841   17.4766 H         1 5VF         0.2273
     39 H5        -15.3777  -57.3969   18.8132 H         1 5VF         0.1892
     40 H6        -13.8975  -59.9440   18.9756 H         1 5VF         0.0698
     41 H7        -14.7220  -59.4886   21.7036 H         1 5VF         0.0522
     42 H8        -16.7012  -59.9513   23.1431 H         1 5VF         0.0483
     43 H9        -20.2112  -60.1909   21.8327 H         1 5VF         0.0842
     44 H10       -19.2149  -59.9097   23.3007 H         1 5VF         0.0842
     45 H11       -18.6746  -63.7941   22.4981 H         1 5VF         0.0655
     46 H12       -17.4253  -62.5051   22.4315 H         1 5VF         0.0655
     47 H13       -18.5216  -62.7665   21.0327 H         1 5VF         0.0655
     48 H14       -21.8964  -61.7401   24.6405 H         1 5VF         0.2615
     49 H15       -21.0649  -60.4363   23.7510 H         1 5VF         0.2615
     50 H16       -19.7742  -64.2098   23.4318 H         1 5VF         0.2615
     51 H17       -21.1779  -63.8386   24.4685 H         1 5VF         0.2615
     52 H18       -19.1788  -60.3882   19.6306 H         1 5VF         0.0478
     53 H19       -17.3406  -58.9187   17.3388 H         1 5VF         0.0416
     54 H20       -17.4702  -60.7082   17.2512 H         1 5VF         0.0416
     55 H21       -15.1770  -59.3555   16.6277 H         1 5VF         0.0397
     56 H22       -15.9688  -62.0070   17.0968 H         1 5VF         0.0695
     57 H23       -14.5484  -61.7701   18.1705 H         1 5VF         0.0695
     58 H24       -14.5396  -61.2158   15.2180 H         1 5VF         0.2642
     59 H25       -11.1267  -62.4536   15.2913 H         1 5VF         0.2615
     60 H26       -12.4571  -61.7928   14.3034 H         1 5VF         0.2615
     61 H27       -12.9481  -62.3486   18.2854 H         1 5VF         0.2615
     62 H28       -11.3908  -62.7641   17.5206 H         1 5VF         0.2615
@<TRIPOS>BOND
     1    1    2 ar 
     2    1    8 ar 
     3    2    3 1  
     4    2    4 ar 
     5    4    5 1  
     6    4    6 ar 
     7    6    7 ar 
     8    7    8 ar 
     9    8    9 1  
    10    9   10 am 
    11   10   11 2  
    12   10   12 1  
    13   12   13 2  
    14   12   14 am 
    15   14   15 1  
    16   15   16 1  
    17   15   29 1  
    18   16   17 ar 
    19   16   27 ar 
    20   17   18 ar 
    21   18   19 ar 
    22   19   20 1  
    23   19   26 ar 
    24   20   21 1  
    25   21   22 1  
    26   21   23 ar 
    27   23   24 ar 
    28   23   25 ar 
    29   26   27 ar 
    30   27   28 1  
    31   28   29 1  
    32   29   30 1  
    33   30   31 1  
    34   31   32 ar 
    35   32   33 ar 
    36   32   34 ar 
    37    1   35 1  
    38    6   36 1  
    39    7   37 1  
    40    9   38 1  
    41   14   39 1  
    42   15   40 1  
    43   17   41 1  
    44   18   42 1  
    45   20   43 1  
    46   20   44 1  
    47   22   45 1  
    48   22   46 1  
    49   22   47 1  
    50   24   48 1  
    51   24   49 1  
    52   25   50 1  
    53   25   51 1  
    54   26   52 1  
    55   28   53 1  
    56   28   54 1  
    57   29   55 1  
    58   30   56 1  
    59   30   57 1  
    60   31   58 1  
    61   33   59 1  
    62   33   60 1  
    63   34   61 1  
    64   34   62 1  
@<TRIPOS>SUBSTRUCTURE
     1 5VF         1

