### 
### Created by X-TOOL on Mon Sep 10 21:13:29 2018
### 

@<TRIPOS>MOLECULE
5f4u_ligand
   62    64     1     0     0
SMALL
GAST_HUCK


@<TRIPOS>ATOM
      1 CAA       -12.0250  -54.1770   17.9230 C.ar      1 5VH        -0.0073
      2 CAB       -11.6630  -52.8440   17.7640 C.ar      1 5VH         0.1334
      3 FAC       -11.9580  -51.9370   18.7340 F         1 5VH        -0.1867
      4 CAD       -10.9970  -52.4380   16.6130 C.ar      1 5VH         0.0570
      5 CLAE      -10.5470  -50.7830   16.4160 Cl        1 5VH        -0.0860
      6 CAF       -10.6940  -53.3630   15.6210 C.ar      1 5VH        -0.0630
      7 CAG       -11.0560  -54.6950   15.7800 C.ar      1 5VH        -0.0442
      8 CAH       -11.7210  -55.1010   16.9310 C.ar      1 5VH         0.0659
      9 NAI       -12.0710  -56.3880   17.0850 N.am      1 5VH        -0.2228
     10 CAJ       -13.3390  -56.6780   17.5190 C.2       1 5VH         0.3121
     11 OAK       -14.1660  -55.8050   17.8010 O.2       1 5VH        -0.3460
     12 CAL       -13.8480  -58.1490   17.6920 C.2       1 5VH         0.2927
     13 OAM       -13.0440  -59.0330   17.4010 O.2       1 5VH        -0.3579
     14 NAN       -15.0850  -58.5020   18.1290 N.am      1 5VH        -0.2611
     15 CAO       -15.6650  -59.8400   18.3180 C.3       1 5VH         0.0801
     16 CAP       -16.7460  -59.7730   19.2010 C.ar      1 5VH        -0.0217
     17 CAQ       -16.7390  -59.7240   20.5330 C.ar      1 5VH        -0.0598
     18 CAR       -17.9260  -59.6590   21.2460 C.ar      1 5VH        -0.0203
     19 CAS       -17.9180  -59.6080   22.6360 C.3       1 5VH         0.0938
     20 NAT       -17.9040  -60.9740   23.1770 N.pl3     1 5VH        -0.2521
     21 CAU       -17.9810  -62.1290   22.2680 C.3       1 5VH         0.0556
     22 CBF       -17.8210  -61.2140   24.5010 C.cat     1 5VH         0.2918
     23 NBH       -17.8090  -62.4660   24.9910 N.pl3     1 5VH        -0.2846
     24 NBG       -17.7490  -60.1860   25.3610 N.pl3     1 5VH        -0.2846
     25 CAV       -19.1200  -59.6500   20.5470 C.ar      1 5VH        -0.0705
     26 CAW       -19.0740  -59.7040   19.1620 C.ar      1 5VH        -0.0731
     27 CAX       -17.9090  -59.7620   18.5190 C.ar      1 5VH        -0.0449
     28 CAY       -17.6660  -59.8220   17.1450 C.3       1 5VH        -0.0148
     29 CAZ       -16.2580  -60.3280   17.0270 C.3       1 5VH         0.0316
     30 CBA       -16.0600  -61.3710   16.7360 C.3       1 5VH         0.0706
     31 NBB       -14.5490  -61.5230   16.1340 N.pl3     1 5VH        -0.2717
     32 CBC       -13.4030  -62.4190   16.1400 C.cat     1 5VH         0.2883
     33 NBE       -13.2430  -62.7900   17.2260 N.pl3     1 5VH        -0.2849
     34 NBD       -11.9580  -62.6250   15.7650 N.pl3     1 5VH        -0.2849
     35 H1        -12.5439  -54.4950   18.8200 H         1 5VH         0.0488
     36 H2        -10.1755  -53.0454   14.7236 H         1 5VH         0.0575
     37 H3        -10.8199  -55.4171   15.0068 H         1 5VH         0.0472
     38 H4        -11.4198  -57.1207   16.8871 H         1 5VH         0.2273
     39 H5        -15.6906  -57.7392   18.3556 H         1 5VH         0.1894
     40 H6        -14.8960  -60.5345   18.6872 H         1 5VH         0.0711
     41 H7        -15.7944  -59.7351   21.0647 H         1 5VH         0.0479
     42 H8        -18.8182  -59.0834   22.9887 H         1 5VH         0.0842
     43 H9        -17.0220  -59.0693   22.9779 H         1 5VH         0.0842
     44 H10       -17.9573  -63.0593   22.8545 H         1 5VH         0.0655
     45 H11       -17.1255  -62.1094   21.5769 H         1 5VH         0.0655
     46 H12       -18.9178  -62.0816   21.6934 H         1 5VH         0.0655
     47 H13       -17.7448  -62.6207   26.0073 H         1 5VH         0.2615
     48 H14       -17.8640  -63.2704   24.3501 H         1 5VH         0.2615
     49 H15       -17.7566  -59.2182   25.0086 H         1 5VH         0.2615
     50 H16       -17.6862  -60.3649   26.3734 H         1 5VH         0.2615
     51 H17       -20.0686  -59.6019   21.0694 H         1 5VH         0.0483
     52 H18       -19.9981  -59.6989   18.5954 H         1 5VH         0.0521
     53 H19       -17.7586  -58.8243   16.6911 H         1 5VH         0.0404
     54 H20       -18.3685  -60.5136   16.6570 H         1 5VH         0.0404
     55 H21       -15.7881  -59.7477   16.2193 H         1 5VH         0.0397
     56 H22       -16.7870  -61.6766   15.9692 H         1 5VH         0.0695
     57 H23       -16.1642  -62.0187   17.6190 H         1 5VH         0.0695
     58 H24       -14.3338  -60.7027   15.5494 H         1 5VH         0.2642
     59 H25       -12.4729  -63.4397   17.4401 H         1 5VH         0.2615
     60 H26       -13.8708  -62.4701   17.9773 H         1 5VH         0.2615
     61 H27       -11.6364  -62.4024   14.8121 H         1 5VH         0.2615
     62 H28       -11.2919  -62.9884   16.4616 H         1 5VH         0.2615
@<TRIPOS>BOND
     1    1    2 ar 
     2    1    8 ar 
     3    2    3 1  
     4    2    4 ar 
     5    4    5 1  
     6    4    6 ar 
     7    6    7 ar 
     8    7    8 ar 
     9    8    9 1  
    10    9   10 am 
    11   10   11 2  
    12   10   12 1  
    13   12   13 2  
    14   12   14 am 
    15   14   15 1  
    16   15   16 1  
    17   15   29 1  
    18   16   17 ar 
    19   16   27 ar 
    20   17   18 ar 
    21   18   19 1  
    22   18   25 ar 
    23   19   20 1  
    24   20   21 1  
    25   20   22 ar 
    26   22   23 ar 
    27   22   24 ar 
    28   25   26 ar 
    29   26   27 ar 
    30   27   28 1  
    31   28   29 1  
    32   29   30 1  
    33   30   31 1  
    34   31   32 ar 
    35   32   33 ar 
    36   32   34 ar 
    37    1   35 1  
    38    6   36 1  
    39    7   37 1  
    40    9   38 1  
    41   14   39 1  
    42   15   40 1  
    43   17   41 1  
    44   19   42 1  
    45   19   43 1  
    46   21   44 1  
    47   21   45 1  
    48   21   46 1  
    49   23   47 1  
    50   23   48 1  
    51   24   49 1  
    52   24   50 1  
    53   25   51 1  
    54   26   52 1  
    55   28   53 1  
    56   28   54 1  
    57   29   55 1  
    58   30   56 1  
    59   30   57 1  
    60   31   58 1  
    61   33   59 1  
    62   33   60 1  
    63   34   61 1  
    64   34   62 1  
@<TRIPOS>SUBSTRUCTURE
     1 5VH         1

