### 
### Created by X-TOOL on Mon Sep 10 21:13:29 2018
### 

@<TRIPOS>MOLECULE
5f5b_ligand
   74    73     1     0     0
SMALL
GAST_HUCK


@<TRIPOS>ATOM
      1 C         -17.7720   -5.8960   -0.7800 C.2       1 ACE         0.1751
      2 O         -18.0250   -7.0940   -1.0850 O.2       1 ACE        -0.3972
      3 CH3       -17.3930   -5.5000    0.6610 C.3       1 ACE         0.0258
      4 N         -17.8000   -4.8650   -1.6370 N.am      1 VAL        -0.2656
      5 CA        -18.0620   -4.9620   -3.0700 C.3       1 VAL         0.1332
      6 C         -17.0980   -5.9870   -3.7090 C.2       1 VAL         0.2041
      7 O         -16.0530   -6.2970   -3.1140 O.2       1 VAL        -0.3944
      8 CB        -17.9050   -3.5940   -3.7680 C.3       1 VAL        -0.0063
      9 CG1       -18.3340   -3.7040   -5.1990 C.3       1 VAL        -0.0584
     10 CG2       -18.7740   -2.5300   -3.1360 C.3       1 VAL        -0.0584
     11 N         -17.4840   -6.5620   -4.8620 N.am      1 ARG        -0.2637
     12 CA        -16.5870   -7.3850   -5.6720 C.3       1 ARG         0.1311
     13 C         -16.5070   -6.8370   -7.0650 C.2       1 ARG         0.2039
     14 O         -17.5130   -6.4040   -7.6090 O.2       1 ARG        -0.3944
     15 CB        -17.0150   -8.8070   -5.6710 C.3       1 ARG        -0.0092
     16 CG        -16.7910   -9.4290   -4.3230 C.3       1 ARG        -0.0156
     17 CD        -17.1830  -10.8690   -4.4080 C.3       1 ARG         0.0627
     18 NE        -16.9920  -11.5150   -3.1280 N.pl3     1 ARG        -0.2723
     19 CZ        -15.8770  -12.1310   -2.7680 C.cat     1 ARG         0.2882
     20 NH1       -14.8200  -12.1940   -3.5870 N.pl3     1 ARG        -0.2849
     21 NH2       -15.8310  -12.6750   -1.5670 N.pl3     1 ARG        -0.2849
     22 N         -15.2900   -6.8030   -7.6240 N.am      1 MET        -0.2637
     23 CA        -15.0340   -6.1620   -8.9340 C.3       1 MET         0.1317
     24 C         -15.0360   -7.2480  -10.0000 C.2       1 MET         0.2034
     25 O         -14.4190   -8.3320   -9.8140 O.2       1 MET        -0.3944
     26 CB        -13.7390   -5.3470   -8.9810 C.3       1 MET        -0.0034
     27 CG        -13.5610   -4.4140   -7.7900 C.3       1 MET        -0.0024
     28 SD        -12.0860   -3.3400   -7.8570 S.3       1 MET        -0.1639
     29 CE        -10.8730   -4.5610   -8.4810 C.3       1 MET        -0.0181
     30 N         -15.8130   -6.9550  -11.0610 N.am      1 5XU        -0.2698
     31 CA        -16.0050   -7.8220  -12.1900 C.3       1 5XU         0.0916
     32 C         -15.2590   -7.1030  -13.3060 C.2       1 5XU         0.0598
     33 O         -15.6280   -6.0130  -13.7960 O.co2     1 5XU        -0.5666
     34 CB        -17.5050   -8.0060  -12.4850 C.3       1 5XU        -0.0300
     35 OXT       -14.2110   -7.5390  -13.8320 O.co2     1 5XU        -0.5666
     36 H1        -17.2144   -4.4156    0.7083 H         1 ACE         0.0467
     37 H2        -16.4799   -6.0353    0.9603 H         1 ACE         0.0467
     38 H3        -18.2143   -5.7664    1.3425 H         1 ACE         0.0467
     39 H4        -17.6270   -3.9537   -1.2634 H         1 VAL         0.1883
     40 H5        -19.0958   -5.3097   -3.2127 H         1 VAL         0.0802
     41 H6        -16.8504   -3.2860   -3.7145 H         1 VAL         0.0343
     42 H7        -18.2204   -2.7272   -5.6919 H         1 VAL         0.0234
     43 H8        -19.3878   -4.0165   -5.2429 H         1 VAL         0.0234
     44 H9        -17.7089   -4.4490   -5.7130 H         1 VAL         0.0234
     45 H10       -18.4966   -2.4106   -2.0783 H         1 VAL         0.0234
     46 H11       -19.8301   -2.8295   -3.2065 H         1 VAL         0.0234
     47 H12       -18.6274   -1.5759   -3.6634 H         1 VAL         0.0234
     48 H13       -18.4222   -6.4210   -5.1780 H         1 ARG         0.1883
     49 H14       -15.5821   -7.3354   -5.2275 H         1 ARG         0.0800
     50 H15       -16.4340   -9.3593   -6.4242 H         1 ARG         0.0313
     51 H16       -18.0849   -8.8620   -5.9205 H         1 ARG         0.0313
     52 H17       -17.4078   -8.9181   -3.5690 H         1 ARG         0.0301
     53 H18       -15.7297   -9.3468   -4.0456 H         1 ARG         0.0301
     54 H19       -16.5617  -11.3707   -5.1645 H         1 ARG         0.0689
     55 H20       -18.2420  -10.9409   -4.6968 H         1 ARG         0.0689
     56 H21       -17.7716  -11.4944   -2.4552 H         1 ARG         0.2642
     57 H22       -13.9628  -12.6788   -3.2852 H         1 ARG         0.2615
     58 H23       -14.8639  -11.7577   -4.5190 H         1 ARG         0.2615
     59 H24       -16.6503  -12.6205   -0.9452 H         1 ARG         0.2615
     60 H25       -14.9758  -13.1543   -1.2511 H         1 ARG         0.2615
     61 H26       -14.5255   -7.2266   -7.1381 H         1 MET         0.1883
     62 H27       -15.8640   -5.4702   -9.1400 H         1 MET         0.0800
     63 H28       -13.7425   -4.7415   -9.8993 H         1 MET         0.0320
     64 H29       -12.8895   -6.0453   -9.0054 H         1 MET         0.0320
     65 H30       -13.4917   -5.0309   -6.8819 H         1 MET         0.0378
     66 H31       -14.4494   -3.7683   -7.7278 H         1 MET         0.0378
     67 H32        -9.8901   -4.0791   -8.5889 H         1 MET         0.0340
     68 H33       -11.2045   -4.9405   -9.4588 H         1 MET         0.0340
     69 H34       -10.7955   -5.3970   -7.7703 H         1 MET         0.0340
     70 H35       -16.2879   -6.0749  -11.0626 H         1 5XU         0.1875
     71 H36       -15.5562   -8.8092  -12.0055 H         1 5XU         0.0723
     72 H37       -17.6292   -8.6721  -13.3515 H         1 5XU         0.0270
     73 H38       -17.9578   -7.0283  -12.7063 H         1 5XU         0.0270
     74 H39       -17.9995   -8.4491  -11.6080 H         1 5XU         0.0270
@<TRIPOS>BOND
     1    1    2 2  
     2    1    3 1  
     3    1    4 am 
     4    4    5 1  
     5    5    6 1  
     6    5    8 1  
     7    6    7 2  
     8    6   11 am 
     9    8    9 1  
    10    8   10 1  
    11   11   12 1  
    12   12   13 1  
    13   12   15 1  
    14   13   14 2  
    15   13   22 am 
    16   15   16 1  
    17   16   17 1  
    18   17   18 1  
    19   18   19 ar 
    20   19   20 ar 
    21   19   21 ar 
    22   22   23 1  
    23   23   24 1  
    24   23   26 1  
    25   24   25 2  
    26   24   30 am 
    27   26   27 1  
    28   27   28 1  
    29   28   29 1  
    30   30   31 1  
    31   31   32 1  
    32   31   34 1  
    33   32   33 ar 
    34   32   35 ar 
    35    3   36 1  
    36    3   37 1  
    37    3   38 1  
    38    4   39 1  
    39    5   40 1  
    40    8   41 1  
    41    9   42 1  
    42    9   43 1  
    43    9   44 1  
    44   10   45 1  
    45   10   46 1  
    46   10   47 1  
    47   11   48 1  
    48   12   49 1  
    49   15   50 1  
    50   15   51 1  
    51   16   52 1  
    52   16   53 1  
    53   17   54 1  
    54   17   55 1  
    55   18   56 1  
    56   20   57 1  
    57   20   58 1  
    58   21   59 1  
    59   21   60 1  
    60   22   61 1  
    61   23   62 1  
    62   26   63 1  
    63   26   64 1  
    64   27   65 1  
    65   27   66 1  
    66   29   67 1  
    67   29   68 1  
    68   29   69 1  
    69   30   70 1  
    70   31   71 1  
    71   34   72 1  
    72   34   73 1  
    73   34   74 1  
@<TRIPOS>SUBSTRUCTURE
     1 ACE         1

