### 
### Created by X-TOOL on Mon Sep 10 21:13:25 2018
### 

@<TRIPOS>MOLECULE
5f5i_ligand
   32    33     1     0     0
SMALL
GAST_HUCK


@<TRIPOS>ATOM
      1 N1        -28.1130  -21.7000  -22.5010 N.ar      1 5V1        -0.2901
      2 C4        -27.9250  -22.7600  -23.3110 C.ar      1 5V1         0.0064
      3 C5        -27.1850  -20.7200  -22.4950 C.ar      1 5V1         0.0758
      4 C6        -27.4560  -19.5430  -21.5880 C.3       1 5V1         0.0176
      5 C7        -29.5320  -18.8780  -22.6690 C.3       1 5V1         0.0018
      6 C8        -29.2780  -17.4350  -23.0100 C.ar      1 5V1         0.0014
      7 C10       -28.0110  -15.7730  -24.1970 C.ar      1 5V1        -0.0684
      8 C13       -30.0570  -16.4190  -22.4700 C.ar      1 5V1        -0.0553
      9 O1        -24.8630  -22.4350  -26.1890 O.co2     1 5V1        -0.5575
     10 C1        -24.6530  -21.9720  -24.9810 C.2       1 5V1         0.0705
     11 C2        -25.8690  -21.8780  -24.1290 C.ar      1 5V1         0.0232
     12 C3        -26.8230  -22.8870  -24.1300 C.ar      1 5V1        -0.0272
     13 N2        -28.8760  -19.2660  -21.4100 N.4       1 5V1         0.2531
     14 C9        -28.2500  -17.0910  -23.8750 C.ar      1 5V1        -0.0553
     15 C11       -28.7840  -14.7760  -23.6480 C.ar      1 5V1        -0.0687
     16 C12       -29.8070  -15.0990  -22.7850 C.ar      1 5V1        -0.0684
     17 C14       -26.0540  -20.7800  -23.2960 C.ar      1 5V1        -0.0134
     18 O2        -23.5530  -21.6460  -24.5640 O.co2     1 5V1        -0.5575
     19 H1        -28.6714  -23.5460  -23.3192 H         1 5V1         0.0809
     20 H2        -26.9782  -18.6517  -22.0207 H         1 5V1         0.1010
     21 H3        -27.0153  -19.7533  -20.6023 H         1 5V1         0.1010
     22 H4        -29.1441  -19.5095  -23.4818 H         1 5V1         0.0980
     23 H5        -30.6161  -19.0346  -22.5685 H         1 5V1         0.0980
     24 H6        -27.2119  -15.5208  -24.8847 H         1 5V1         0.0599
     25 H7        -30.8686  -16.6656  -21.7950 H         1 5V1         0.0558
     26 H8        -26.7036  -23.7587  -24.7632 H         1 5V1         0.0684
     27 H9        -28.9789  -18.5146  -20.7461 H         1 5V1         0.2045
     28 H10       -29.3254  -20.0943  -21.0523 H         1 5V1         0.2045
     29 H11       -27.6272  -17.8683  -24.3028 H         1 5V1         0.0558
     30 H12       -28.5881  -13.7387  -23.8943 H         1 5V1         0.0559
     31 H13       -30.4173  -14.3147  -22.3521 H         1 5V1         0.0599
     32 H14       -25.3228  -19.9801  -23.2728 H         1 5V1         0.0685
@<TRIPOS>BOND
     1    2    1 ar 
     2    1    3 ar 
     3   12    2 ar 
     4    3    4 1  
     5    3   17 ar 
     6    4   13 1  
     7    5    6 1  
     8   13    5 1  
     9    6    8 ar 
    10    6   14 ar 
    11   14    7 ar 
    12    7   15 ar 
    13    8   16 ar 
    14   10    9 ar 
    15   11   10 1  
    16   10   18 ar 
    17   11   12 ar 
    18   11   17 ar 
    19   15   16 ar 
    20    2   19 1  
    21    4   20 1  
    22    4   21 1  
    23    5   22 1  
    24    5   23 1  
    25    7   24 1  
    26    8   25 1  
    27   12   26 1  
    28   13   27 1  
    29   13   28 1  
    30   14   29 1  
    31   15   30 1  
    32   16   31 1  
    33   17   32 1  
@<TRIPOS>SUBSTRUCTURE
     1 5V1         1

