### 
### Created by X-TOOL on Mon Sep 10 21:13:31 2018
### 

@<TRIPOS>MOLECULE
5f5z_ligand
   72    75     1     0     0
SMALL
GAST_HUCK


@<TRIPOS>ATOM
      1 C10        63.6010   81.4140   81.5350 C.ar      1 5VY         0.0295
      2 C13        61.8060   84.7230   81.8690 C.3       1 5VY        -0.0123
      3 C15        61.5130   86.0650   83.9390 C.3       1 5VY        -0.0430
      4 C17        63.9610   83.1880   83.1180 C.3       1 5VY         0.0649
      5 C21        62.9410   76.3490   77.2190 C.ar      1 5VY         0.1370
      6 C24        59.7880   78.0080   76.3990 C.ar      1 5VY        -0.0240
      7 C28        57.0550   78.7830   73.5600 C.3       1 5VY         0.1034
      8 C01        63.3470   74.3040   75.7240 C.3       1 5VY        -0.0289
      9 C02        63.7800   75.3260   76.7250 C.ar      1 5VY         0.0147
     10 C03        65.0980   75.3000   77.2140 C.ar      1 5VY         0.0017
     11 N04        65.5360   76.2090   78.0880 N.ar      1 5VY        -0.2782
     12 C05        64.7430   77.1790   78.5830 C.ar      1 5VY         0.1856
     13 N06        65.2180   78.0590   79.5030 N.pl3     1 5VY        -0.2551
     14 C07        64.6290   79.1260   80.1250 C.ar      1 5VY         0.0514
     15 C08        63.3330   79.6160   79.8620 C.ar      1 5VY        -0.0493
     16 C09        62.8410   80.7430   80.5500 C.ar      1 5VY        -0.0530
     17 N11        63.0700   82.5270   82.1770 N.pl3     1 5VY        -0.3046
     18 C12        62.2580   83.3600   81.3070 C.3       1 5VY         0.0649
     19 N14        62.0530   84.8270   83.3330 N.4       1 5VY         0.2358
     20 C16        63.4240   84.4780   83.7860 C.3       1 5VY        -0.0123
     21 C18        64.9030   80.9190   81.7900 C.ar      1 5VY        -0.0530
     22 C19        65.4040   79.7890   81.1000 C.ar      1 5VY        -0.0493
     23 N20        63.4650   77.2210   78.1420 N.ar      1 5VY        -0.2418
     24 N22        61.6370   76.4560   76.8200 N.pl3     1 5VY        -0.2622
     25 C23        60.7000   77.3690   77.2470 C.ar      1 5VY         0.0463
     26 C25        58.8480   78.9190   76.8900 C.ar      1 5VY         0.0522
     27 N26        57.9580   79.5630   76.1010 N.am      1 5VY        -0.1939
     28 S27        58.1550   79.9340   74.4560 S.o2      1 5VY         0.0648
     29 C29        57.6250   77.3440   73.7600 C.3       1 5VY        -0.0382
     30 C30        55.6130   78.9310   74.1370 C.3       1 5VY        -0.0382
     31 C31        57.1690   79.2860   72.0980 C.3       1 5VY        -0.0382
     32 O32        59.6680   79.7790   74.0060 O.2       1 5VY        -0.1494
     33 O33        57.5450   81.3780   74.2560 O.2       1 5VY        -0.1494
     34 C34        58.8040   79.2030   78.2730 C.ar      1 5VY        -0.0570
     35 C35        59.6940   78.5600   79.1510 C.ar      1 5VY        -0.0868
     36 C36        60.6310   77.6560   78.6380 C.ar      1 5VY        -0.0557
     37 H1         60.7295   84.8467   81.6800 H         1 5VY         0.0834
     38 H2         62.3624   85.5216   81.3565 H         1 5VY         0.0834
     39 H3         61.7325   86.0715   85.0169 H         1 5VY         0.0778
     40 H4         60.4243   86.1034   83.7863 H         1 5VY         0.0778
     41 H5         61.9809   86.9400   83.4642 H         1 5VY         0.0778
     42 H6         64.8830   83.4497   82.5783 H         1 5VY         0.0562
     43 H7         64.1954   82.4699   83.9176 H         1 5VY         0.0562
     44 H8         59.8111   77.7915   75.3371 H         1 5VY         0.0389
     45 H9         64.1847   73.6246   75.5079 H         1 5VY         0.0368
     46 H10        63.0350   74.8077   74.7972 H         1 5VY         0.0368
     47 H11        62.5028   73.7275   76.1302 H         1 5VY         0.0368
     48 H12        65.7740   74.5240   76.8735 H         1 5VY         0.0776
     49 H13        66.1956   77.8933   79.7818 H         1 5VY         0.2124
     50 H14        62.7105   79.1218   79.1249 H         1 5VY         0.0505
     51 H15        61.8472   81.1073   80.3163 H         1 5VY         0.0489
     52 H16        62.8403   83.5535   80.3941 H         1 5VY         0.0562
     53 H17        61.3531   82.7896   81.0507 H         1 5VY         0.0562
     54 H18        61.4812   84.0945   83.7236 H         1 5VY         0.2032
     55 H19        64.0994   85.3103   83.5387 H         1 5VY         0.0834
     56 H20        63.4080   84.3301   84.8759 H         1 5VY         0.0834
     57 H21        65.5265   81.4137   82.5259 H         1 5VY         0.0489
     58 H22        66.4006   79.4267   81.3247 H         1 5VY         0.0505
     59 H23        61.3191   75.7731   76.1175 H         1 5VY         0.2141
     60 H24        57.1001   79.8485   76.5283 H         1 5VY         0.2155
     61 H25        56.9864   76.6201   73.2326 H         1 5VY         0.0251
     62 H26        57.6437   77.1028   74.8331 H         1 5VY         0.0251
     63 H27        58.6466   77.2947   73.3552 H         1 5VY         0.0251
     64 H28        54.9346   78.2446   73.6091 H         1 5VY         0.0251
     65 H29        55.2673   79.9661   73.9991 H         1 5VY         0.0251
     66 H30        55.6203   78.6866   75.2095 H         1 5VY         0.0251
     67 H31        56.5400   78.6624   71.4456 H         1 5VY         0.0251
     68 H32        58.2164   79.2210   71.7685 H         1 5VY         0.0251
     69 H33        56.8313   80.3314   72.0425 H         1 5VY         0.0251
     70 H34        58.0841   79.9166   78.6573 H         1 5VY         0.0390
     71 H35        59.6548   78.7625   80.2152 H         1 5VY         0.0545
     72 H36        61.3191   77.1639   79.3157 H         1 5VY         0.0397
@<TRIPOS>BOND
     1   16    1 ar 
     2    1   17 1  
     3   21    1 ar 
     4   18    2 1  
     5    2   19 1  
     6   19    3 1  
     7   17    4 1  
     8    4   20 1  
     9    5    9 ar 
    10    5   23 ar 
    11   24    5 1  
    12    6   25 ar 
    13   26    6 ar 
    14   28    7 1  
    15    7   29 1  
    16    7   30 1  
    17    7   31 1  
    18    9    8 1  
    19    9   10 ar 
    20   10   11 ar 
    21   12   11 ar 
    22   12   13 1  
    23   23   12 ar 
    24   13   14 1  
    25   14   15 ar 
    26   14   22 ar 
    27   15   16 ar 
    28   17   18 1  
    29   20   19 1  
    30   22   21 ar 
    31   25   24 1  
    32   25   36 ar 
    33   27   26 1  
    34   26   34 ar 
    35   27   28 am 
    36   28   32 2  
    37   28   33 2  
    38   34   35 ar 
    39   35   36 ar 
    40    2   37 1  
    41    2   38 1  
    42    3   39 1  
    43    3   40 1  
    44    3   41 1  
    45    4   42 1  
    46    4   43 1  
    47    6   44 1  
    48    8   45 1  
    49    8   46 1  
    50    8   47 1  
    51   10   48 1  
    52   13   49 1  
    53   15   50 1  
    54   16   51 1  
    55   18   52 1  
    56   18   53 1  
    57   19   54 1  
    58   20   55 1  
    59   20   56 1  
    60   21   57 1  
    61   22   58 1  
    62   24   59 1  
    63   27   60 1  
    64   29   61 1  
    65   29   62 1  
    66   29   63 1  
    67   30   64 1  
    68   30   65 1  
    69   30   66 1  
    70   31   67 1  
    71   31   68 1  
    72   31   69 1  
    73   34   70 1  
    74   35   71 1  
    75   36   72 1  
@<TRIPOS>SUBSTRUCTURE
     1 5VY         1

