### 
### Created by X-TOOL on Mon Sep 10 21:13:30 2018
### 

@<TRIPOS>MOLECULE
5f60_ligand
   72    75     1     0     0
SMALL
GAST_HUCK


@<TRIPOS>ATOM
      1 C13         8.4840   36.8690   78.6060 C.ar      1 5VZ        -0.0728
      2 C15        10.5850   38.0840   78.5840 C.ar      1 5VZ         0.0468
      3 C17        12.7940   39.0700   78.9470 C.ar      1 5VZ         0.1371
      4 C20        14.8880   40.1930   79.2100 C.ar      1 5VZ         0.0017
      5 C22        14.6890   38.4190   77.6770 C.ar      1 5VZ         0.1856
      6 C24        14.7900   36.6100   75.9840 C.ar      1 5VZ         0.0514
      7 C26        13.1570   34.9560   75.2340 C.ar      1 5VZ        -0.0530
      8 CL1         7.4750   35.5850   76.4720 Cl        1 5VZ        -0.0952
      9 C02         8.6570   36.5210   77.2600 C.ar      1 5VZ         0.0429
     10 C03         9.7870   36.9680   76.5470 C.ar      1 5VZ         0.0666
     11 N04         9.9510   36.6170   75.2280 N.am      1 5VZ        -0.1930
     12 S05        10.5370   37.6010   73.9810 S.o2      1 5VZ         0.0650
     13 C06         9.2060   38.7420   73.4940 C.3       1 5VZ         0.1035
     14 C07         9.7700   39.6020   72.3450 C.3       1 5VZ        -0.0382
     15 C08         7.9930   37.9130   73.0120 C.3       1 5VZ        -0.0382
     16 C09         8.8090   39.6400   74.6920 C.3       1 5VZ        -0.0382
     17 O10        10.8740   36.6600   72.7980 O.2       1 5VZ        -0.1493
     18 O11        11.7530   38.4220   74.5010 O.2       1 5VZ        -0.1493
     19 C12        10.7270   37.7450   77.2290 C.ar      1 5VZ        -0.0231
     20 C14         9.4430   37.6500   79.2720 C.ar      1 5VZ        -0.0549
     21 N16        11.4850   38.8710   79.2520 N.pl3     1 5VZ        -0.2620
     22 C18        13.5410   40.0750   79.5980 C.ar      1 5VZ         0.0147
     23 C19        12.9440   40.9850   80.6140 C.3       1 5VZ        -0.0289
     24 N21        15.4170   39.3880   78.2680 N.ar      1 5VZ        -0.2782
     25 N23        15.2680   37.6270   76.7470 N.pl3     1 5VZ        -0.2551
     26 C25        13.5280   36.0190   76.1010 C.ar      1 5VZ        -0.0493
     27 C27        14.0540   34.4370   74.2710 C.ar      1 5VZ         0.0295
     28 N28        13.6890   33.4010   73.4280 N.pl3     1 5VZ        -0.3046
     29 C29        14.7000   32.4290   73.0420 C.3       1 5VZ         0.0649
     30 C30        14.2070   31.2780   72.1250 C.3       1 5VZ        -0.0123
     31 N31        12.7900   31.4710   71.7160 N.4       1 5VZ         0.2358
     32 C32        12.3290   30.4720   70.7180 C.3       1 5VZ        -0.0430
     33 C33        12.5820   32.8560   71.2370 C.3       1 5VZ        -0.0123
     34 C34        12.7130   33.8050   72.4410 C.3       1 5VZ         0.0649
     35 C35        15.3240   35.0250   74.1800 C.ar      1 5VZ        -0.0530
     36 C36        15.6890   36.0810   75.0250 C.ar      1 5VZ        -0.0493
     37 N37        13.3980   38.2650   78.0400 N.ar      1 5VZ        -0.2418
     38 H1          7.6018   36.5324   79.1385 H         1 5VZ         0.0552
     39 H2         15.5121   40.9458   79.6777 H         1 5VZ         0.0776
     40 H3         12.1623   34.5324   75.3124 H         1 5VZ         0.0489
     41 H4          9.6976   35.6823   74.9789 H         1 5VZ         0.2161
     42 H5          9.0021   40.3145   72.0093 H         1 5VZ         0.0251
     43 H6         10.0574   38.9507   71.5065 H         1 5VZ         0.0251
     44 H7         10.6527   40.1543   72.6996 H         1 5VZ         0.0251
     45 H8          7.1801   38.5917   72.7142 H         1 5VZ         0.0251
     46 H9          7.6465   37.2617   73.8279 H         1 5VZ         0.0251
     47 H10         8.2894   37.2960   72.1510 H         1 5VZ         0.0251
     48 H11         8.0044   40.3249   74.3860 H         1 5VZ         0.0251
     49 H12         9.6826   40.2233   75.0184 H         1 5VZ         0.0251
     50 H13         8.4579   39.0096   75.5223 H         1 5VZ         0.0251
     51 H14        11.5990   38.0995   76.6915 H         1 5VZ         0.0390
     52 H15         9.3008   37.9160   80.3132 H         1 5VZ         0.0399
     53 H16        11.1288   39.3690   80.0803 H         1 5VZ         0.2143
     54 H17        11.8874   40.7204   80.7674 H         1 5VZ         0.0368
     55 H18        13.0141   42.0246   80.2614 H         1 5VZ         0.0368
     56 H19        13.4893   40.8823   81.5638 H         1 5VZ         0.0368
     57 H20        16.2639   37.8349   76.5859 H         1 5VZ         0.2124
     58 H21        12.8323   36.3720   76.8536 H         1 5VZ         0.0505
     59 H22        15.1060   31.9799   73.9604 H         1 5VZ         0.0562
     60 H23        15.5003   32.9655   72.5113 H         1 5VZ         0.0562
     61 H24        14.2948   30.3260   72.6689 H         1 5VZ         0.0834
     62 H25        14.8370   31.2449   71.2239 H         1 5VZ         0.0834
     63 H26        12.2223   31.3465   72.5396 H         1 5VZ         0.2032
     64 H27        11.2783   30.6700   70.4594 H         1 5VZ         0.0778
     65 H28        12.4178   29.4613   71.1429 H         1 5VZ         0.0778
     66 H29        12.9494   30.5450   69.8126 H         1 5VZ         0.0778
     67 H30        11.5790   32.9508   70.7954 H         1 5VZ         0.0834
     68 H31        13.3407   33.1066   70.4810 H         1 5VZ         0.0834
     69 H32        12.9983   34.7983   72.0643 H         1 5VZ         0.0562
     70 H33        11.7323   33.8680   72.9353 H         1 5VZ         0.0562
     71 H34        16.0323   34.6576   73.4463 H         1 5VZ         0.0489
     72 H35        16.6838   36.5039   74.9432 H         1 5VZ         0.0505
@<TRIPOS>BOND
     1    1    9 ar 
     2   20    1 ar 
     3    2   19 ar 
     4    2   20 ar 
     5    2   21 1  
     6   21    3 1  
     7    3   22 ar 
     8    3   37 ar 
     9   22    4 ar 
    10    4   24 ar 
    11   24    5 ar 
    12    5   25 1  
    13    5   37 ar 
    14   25    6 1  
    15    6   26 ar 
    16    6   36 ar 
    17   26    7 ar 
    18    7   27 ar 
    19    9    8 1  
    20    9   10 ar 
    21   10   11 1  
    22   10   19 ar 
    23   11   12 am 
    24   12   13 1  
    25   12   17 2  
    26   12   18 2  
    27   13   14 1  
    28   13   15 1  
    29   13   16 1  
    30   22   23 1  
    31   27   28 1  
    32   27   35 ar 
    33   28   29 1  
    34   28   34 1  
    35   29   30 1  
    36   30   31 1  
    37   31   32 1  
    38   31   33 1  
    39   33   34 1  
    40   35   36 ar 
    41    1   38 1  
    42    4   39 1  
    43    7   40 1  
    44   11   41 1  
    45   14   42 1  
    46   14   43 1  
    47   14   44 1  
    48   15   45 1  
    49   15   46 1  
    50   15   47 1  
    51   16   48 1  
    52   16   49 1  
    53   16   50 1  
    54   19   51 1  
    55   20   52 1  
    56   21   53 1  
    57   23   54 1  
    58   23   55 1  
    59   23   56 1  
    60   25   57 1  
    61   26   58 1  
    62   29   59 1  
    63   29   60 1  
    64   30   61 1  
    65   30   62 1  
    66   31   63 1  
    67   32   64 1  
    68   32   65 1  
    69   32   66 1  
    70   33   67 1  
    71   33   68 1  
    72   34   69 1  
    73   34   70 1  
    74   35   71 1  
    75   36   72 1  
@<TRIPOS>SUBSTRUCTURE
     1 5VZ         1

