### 
### Created by X-TOOL on Mon Sep 10 21:13:30 2018
### 

@<TRIPOS>MOLECULE
5f61_ligand
   72    75     1     0     0
SMALL
GAST_HUCK


@<TRIPOS>ATOM
      1 C10        -4.2140  -14.0560   -8.6910 C.ar      1 5W0        -0.0534
      2 N12        -4.0320  -12.5280   -6.8600 N.pl3     1 5W0        -0.2559
      3 C13        -3.5050  -11.5180   -6.0310 C.ar      1 5W0         0.1856
      4 C15        -4.0310  -10.0770   -4.2810 C.ar      1 5W0         0.0017
      5 C17        -2.2520   -8.5650   -3.3420 C.3       1 5W0        -0.0289
      6 C20         0.4620  -10.2800   -6.2830 C.ar      1 5W0         0.0463
      7 C21         0.5950  -11.6370   -6.4990 C.ar      1 5W0        -0.0557
      8 C22         1.5460  -12.0850   -7.3910 C.ar      1 5W0        -0.0868
      9 C24         2.2460   -9.8350   -7.8370 C.ar      1 5W0         0.0522
     10 C01        -0.7420  -16.7660  -14.8860 C.3       1 5W0        -0.0430
     11 N02        -1.3190  -16.1250  -13.9530 N.4       1 5W0         0.2358
     12 C03        -0.5660  -15.0980  -13.3670 C.3       1 5W0        -0.0125
     13 C04        -1.3320  -14.4330  -12.2430 C.3       1 5W0         0.0642
     14 N05        -1.8060  -15.2950  -11.2620 N.pl3     1 5W0        -0.3045
     15 C06        -2.5480  -16.3040  -11.8670 C.3       1 5W0         0.0642
     16 C07        -1.7860  -16.9980  -12.9740 C.3       1 5W0        -0.0125
     17 C08        -2.3720  -14.6280  -10.1320 C.ar      1 5W0         0.0638
     18 C09        -3.7030  -14.7530   -9.7790 C.ar      1 5W0        -0.0545
     19 C11        -3.3990  -13.2150   -7.9400 C.ar      1 5W0         0.0495
     20 N14        -4.3820  -11.0330   -5.1560 N.ar      1 5W0        -0.2782
     21 C16        -2.6970   -9.6330   -4.3230 C.ar      1 5W0         0.0147
     22 C18        -1.8130  -10.1860   -5.2840 C.ar      1 5W0         0.1370
     23 N19        -0.4800   -9.7500   -5.3580 N.pl3     1 5W0        -0.2622
     24 C23         2.3650  -11.1950   -8.0600 C.ar      1 5W0        -0.0570
     25 N25         3.1580   -8.9890   -8.5440 N.am      1 5W0        -0.1939
     26 S26         2.9490   -7.4080   -8.9020 S.o2      1 5W0         0.0648
     27 O27         1.5800   -7.0270   -8.7710 O.2       1 5W0        -0.1494
     28 O28         3.4580   -7.2360  -10.2220 O.2       1 5W0        -0.1494
     29 C29         3.9520   -6.4220   -7.7990 C.3       1 5W0         0.1034
     30 C30         3.8800   -4.9670   -8.2330 C.3       1 5W0        -0.0382
     31 C31         3.4630   -6.5710   -6.3700 C.3       1 5W0        -0.0382
     32 C32         5.3730   -6.9470   -7.9370 C.3       1 5W0        -0.0382
     33 C33         1.2990   -9.3740   -6.9440 C.ar      1 5W0        -0.0240
     34 N34        -2.2430  -11.1130   -6.1420 N.ar      1 5W0        -0.2418
     35 C35        -2.0680  -13.0860   -8.2850 C.ar      1 5W0        -0.0159
     36 C36        -1.5640  -13.7900   -9.3690 C.ar      1 5W0         0.1400
     37 F37        -0.2670  -13.6620   -9.6510 F         1 5W0        -0.1954
     38 H1         -5.2587  -14.1687   -8.4246 H         1 5W0         0.0471
     39 H2         -5.0029  -12.8081   -6.6605 H         1 5W0         0.2124
     40 H3         -4.7431   -9.6661   -3.5745 H         1 5W0         0.0776
     41 H4         -3.0970   -8.2863   -2.6952 H         1 5W0         0.0368
     42 H5         -1.9064   -7.6796   -3.8957 H         1 5W0         0.0368
     43 H6         -1.4300   -8.9547   -2.7236 H         1 5W0         0.0368
     44 H7         -0.0402  -12.3413   -5.9740 H         1 5W0         0.0397
     45 H8          1.6528  -13.1488   -7.5699 H         1 5W0         0.0545
     46 H9         -0.3811  -16.0592  -15.6477 H         1 5W0         0.0778
     47 H10        -1.4549  -17.4669  -15.3447 H         1 5W0         0.0778
     48 H11         0.1096  -17.3268  -14.4734 H         1 5W0         0.0778
     49 H12        -2.1237  -15.6837  -14.3699 H         1 5W0         0.2032
     50 H13        -0.3272  -14.3457  -14.1331 H         1 5W0         0.0833
     51 H14         0.3665  -15.5208  -12.9651 H         1 5W0         0.0833
     52 H15        -2.1940  -13.9090  -12.6815 H         1 5W0         0.0561
     53 H16        -0.6650  -13.7027  -11.7615 H         1 5W0         0.0561
     54 H17        -3.4628  -15.8638  -12.2905 H         1 5W0         0.0561
     55 H18        -2.8186  -17.0489  -11.1042 H         1 5W0         0.0561
     56 H19        -0.9244  -17.5190  -12.5311 H         1 5W0         0.0833
     57 H20        -2.4531  -17.7317  -13.4500 H         1 5W0         0.0833
     58 H21        -4.3534  -15.4003  -10.3560 H         1 5W0         0.0477
     59 H22        -0.1694   -9.0109   -4.7114 H         1 5W0         0.2141
     60 H23         3.1036  -11.5643   -8.7623 H         1 5W0         0.0390
     61 H24         4.0122   -9.4087   -8.8510 H         1 5W0         0.2155
     62 H25         4.4950   -4.3525   -7.5590 H         1 5W0         0.0251
     63 H26         2.8359   -4.6233   -8.1920 H         1 5W0         0.0251
     64 H27         4.2571   -4.8722   -9.2620 H         1 5W0         0.0251
     65 H28         4.0884   -5.9597   -5.7028 H         1 5W0         0.0251
     66 H29         3.5283   -7.6268   -6.0683 H         1 5W0         0.0251
     67 H30         2.4179   -6.2345   -6.3031 H         1 5W0         0.0251
     68 H31         6.0411   -6.3745   -7.2768 H         1 5W0         0.0251
     69 H32         5.7051   -6.8365   -8.9798 H         1 5W0         0.0251
     70 H33         5.4004   -8.0096   -7.6541 H         1 5W0         0.0251
     71 H34         1.2040   -8.3108   -6.7551 H         1 5W0         0.0389
     72 H35        -1.4184  -12.4360   -7.7100 H         1 5W0         0.0490
@<TRIPOS>BOND
     1    1   18 ar 
     2   19    1 ar 
     3    3    2 1  
     4    2   19 1  
     5   20    3 ar 
     6    3   34 ar 
     7    4   20 ar 
     8   21    4 ar 
     9   21    5 1  
    10    6    7 ar 
    11   23    6 1  
    12    6   33 ar 
    13    7    8 ar 
    14    8   24 ar 
    15    9   24 ar 
    16    9   25 1  
    17   33    9 ar 
    18   11   10 1  
    19   12   11 1  
    20   16   11 1  
    21   13   12 1  
    22   14   13 1  
    23   14   15 1  
    24   17   14 1  
    25   15   16 1  
    26   18   17 ar 
    27   17   36 ar 
    28   19   35 ar 
    29   22   21 ar 
    30   22   23 1  
    31   22   34 ar 
    32   25   26 am 
    33   26   27 2  
    34   26   28 2  
    35   26   29 1  
    36   29   30 1  
    37   29   31 1  
    38   29   32 1  
    39   35   36 ar 
    40   36   37 1  
    41    1   38 1  
    42    2   39 1  
    43    4   40 1  
    44    5   41 1  
    45    5   42 1  
    46    5   43 1  
    47    7   44 1  
    48    8   45 1  
    49   10   46 1  
    50   10   47 1  
    51   10   48 1  
    52   11   49 1  
    53   12   50 1  
    54   12   51 1  
    55   13   52 1  
    56   13   53 1  
    57   15   54 1  
    58   15   55 1  
    59   16   56 1  
    60   16   57 1  
    61   18   58 1  
    62   23   59 1  
    63   24   60 1  
    64   25   61 1  
    65   30   62 1  
    66   30   63 1  
    67   30   64 1  
    68   31   65 1  
    69   31   66 1  
    70   31   67 1  
    71   32   68 1  
    72   32   69 1  
    73   32   70 1  
    74   33   71 1  
    75   35   72 1  
@<TRIPOS>SUBSTRUCTURE
     1 5W0         1

