### 
### Created by X-TOOL on Mon Sep 10 21:13:30 2018
### 

@<TRIPOS>MOLECULE
5f62_ligand
   72    75     1     0     0
SMALL
GAST_HUCK


@<TRIPOS>ATOM
      1 C13        15.3120   -8.1160   -3.8980 C.ar      1 5W1        -0.0534
      2 C20        12.7310   -3.3270    1.8740 C.3       1 5W1        -0.0289
      3 C21        12.5120   -5.2360    0.1820 C.ar      1 5W1         0.1371
      4 C24         9.1720   -6.6770    0.5200 C.ar      1 5W1        -0.0549
      5 C26         8.3620   -7.7530   -1.5080 C.ar      1 5W1         0.0429
      6 C28         9.4800   -7.2930   -2.2300 C.ar      1 5W1         0.0666
      7 C01        11.3810  -13.8810   -7.6920 C.3       1 5W1        -0.0430
      8 N02        12.2890  -12.9980   -6.9140 N.4       1 5W1         0.2358
      9 C03        12.3290  -11.6210   -7.4780 C.3       1 5W1        -0.0125
     10 C04        13.3970  -10.7730   -6.7490 C.3       1 5W1         0.0642
     11 C05        11.9860  -12.9990   -5.4560 C.3       1 5W1        -0.0125
     12 C06        13.0610  -12.1790   -4.7070 C.3       1 5W1         0.0642
     13 N07        13.2690  -10.8770   -5.3130 N.pl3     1 5W1        -0.3045
     14 C08        13.6760   -9.8210   -4.5170 C.ar      1 5W1         0.0638
     15 C09        12.8490   -9.3590   -3.4710 C.ar      1 5W1         0.1400
     16 F10        11.7120   -9.9500   -3.2510 F         1 5W1        -0.1954
     17 C11        13.2390   -8.2850   -2.6380 C.ar      1 5W1        -0.0159
     18 C12        14.9130   -9.1800   -4.7320 C.ar      1 5W1        -0.0545
     19 C14        14.4770   -7.6490   -2.8480 C.ar      1 5W1         0.0495
     20 N15        14.9600   -6.6140   -2.1010 N.pl3     1 5W1        -0.2559
     21 C16        14.3900   -5.8410   -1.1350 C.ar      1 5W1         0.1856
     22 N17        15.1410   -4.8820   -0.5430 N.ar      1 5W1        -0.2782
     23 C18        14.6210   -4.0850    0.4120 C.ar      1 5W1         0.0017
     24 C19        13.2860   -4.2290    0.8230 C.ar      1 5W1         0.0147
     25 N22        11.2040   -5.4500    0.4980 N.pl3     1 5W1        -0.2620
     26 C23        10.2880   -6.2070   -0.1740 C.ar      1 5W1         0.0468
     27 C25         8.2100   -7.4630   -0.1470 C.ar      1 5W1        -0.0728
     28 CL1         7.1760   -8.6910   -2.2730 Cl        1 5W1        -0.0952
     29 N29         9.6330   -7.6320   -3.5580 N.am      1 5W1        -0.1930
     30 S30        10.2350   -6.6380   -4.8030 S.o2      1 5W1         0.0650
     31 C31         8.9070   -5.4780   -5.2660 C.3       1 5W1         0.1035
     32 C32         8.5190   -4.6030   -4.0440 C.3       1 5W1        -0.0382
     33 C33         9.4560   -4.6180   -6.4310 C.3       1 5W1        -0.0382
     34 C34         7.6640   -6.3020   -5.7080 C.3       1 5W1        -0.0382
     35 O35        10.5670   -7.5450   -6.0240 O.2       1 5W1        -0.1493
     36 O36        11.4760   -5.8770   -4.2830 O.2       1 5W1        -0.1493
     37 C37        10.4160   -6.5270   -1.5390 C.ar      1 5W1        -0.0231
     38 N38        13.0980   -6.0030   -0.7620 N.ar      1 5W1        -0.2418
     39 H1         16.2746   -7.6450   -4.0610 H         1 5W1         0.0471
     40 H2         13.5159   -2.6366    2.2164 H         1 5W1         0.0368
     41 H3         12.3759   -3.9288    2.7236 H         1 5W1         0.0368
     42 H4         11.8921   -2.7506    1.4569 H         1 5W1         0.0368
     43 H5          9.0451   -6.4382    1.5697 H         1 5W1         0.0399
     44 H6         11.6525  -13.8389   -8.7571 H         1 5W1         0.0778
     45 H7         10.3422  -13.5422   -7.5647 H         1 5W1         0.0778
     46 H8         11.4764  -14.9153   -7.3300 H         1 5W1         0.0778
     47 H9         13.2167  -13.3794   -7.0136 H         1 5W1         0.2032
     48 H10        11.3434  -11.1489   -7.3528 H         1 5W1         0.0833
     49 H11        12.5768  -11.6744   -8.5484 H         1 5W1         0.0833
     50 H12        13.2781   -9.7196   -7.0427 H         1 5W1         0.0561
     51 H13        14.3960  -11.1257   -7.0449 H         1 5W1         0.0561
     52 H14        11.9869  -14.0334   -5.0818 H         1 5W1         0.0833
     53 H15        10.9969  -12.5485   -5.2865 H         1 5W1         0.0833
     54 H16        14.0097  -12.7354   -4.7258 H         1 5W1         0.0561
     55 H17        12.7388  -12.0385   -3.6647 H         1 5W1         0.0561
     56 H18        12.5859   -7.9522   -1.8394 H         1 5W1         0.0490
     57 H19        15.5582   -9.5058   -5.5398 H         1 5W1         0.0477
     58 H20        15.9399   -6.3718   -2.3063 H         1 5W1         0.2124
     59 H21        15.2418   -3.3227    0.8687 H         1 5W1         0.0776
     60 H22        10.8639   -4.9822    1.3503 H         1 5W1         0.2143
     61 H23         7.3516   -7.8432    0.3949 H         1 5W1         0.0552
     62 H24         9.3619   -8.5590   -3.8172 H         1 5W1         0.2161
     63 H25         7.7178   -3.9063   -4.3315 H         1 5W1         0.0251
     64 H26         9.3974   -4.0327   -3.7076 H         1 5W1         0.0251
     65 H27         8.1668   -5.2498   -3.2269 H         1 5W1         0.0251
     66 H28         8.6877   -3.8977   -6.7487 H         1 5W1         0.0251
     67 H29         9.7186   -5.2707   -7.2766 H         1 5W1         0.0251
     68 H30        10.3516   -4.0746   -6.0953 H         1 5W1         0.0251
     69 H31         6.8516   -5.6166   -5.9913 H         1 5W1         0.0251
     70 H32         7.3320   -6.9398   -4.8756 H         1 5W1         0.0251
     71 H33         7.9293   -6.9322   -6.5697 H         1 5W1         0.0251
     72 H34        11.2828   -6.1605   -2.0770 H         1 5W1         0.0390
@<TRIPOS>BOND
     1    1   18 ar 
     2   19    1 ar 
     3   24    2 1  
     4    3   24 ar 
     5   25    3 1  
     6    3   38 ar 
     7   26    4 ar 
     8    4   27 ar 
     9    5    6 ar 
    10   27    5 ar 
    11    5   28 1  
    12    6   29 1  
    13    6   37 ar 
    14    8    7 1  
    15    9    8 1  
    16   11    8 1  
    17   10    9 1  
    18   13   10 1  
    19   12   11 1  
    20   13   12 1  
    21   14   13 1  
    22   15   14 ar 
    23   18   14 ar 
    24   15   16 1  
    25   17   15 ar 
    26   19   17 ar 
    27   20   19 1  
    28   21   20 1  
    29   21   22 ar 
    30   38   21 ar 
    31   23   22 ar 
    32   24   23 ar 
    33   25   26 1  
    34   26   37 ar 
    35   29   30 am 
    36   30   31 1  
    37   30   35 2  
    38   30   36 2  
    39   31   32 1  
    40   31   33 1  
    41   31   34 1  
    42    1   39 1  
    43    2   40 1  
    44    2   41 1  
    45    2   42 1  
    46    4   43 1  
    47    7   44 1  
    48    7   45 1  
    49    7   46 1  
    50    8   47 1  
    51    9   48 1  
    52    9   49 1  
    53   10   50 1  
    54   10   51 1  
    55   11   52 1  
    56   11   53 1  
    57   12   54 1  
    58   12   55 1  
    59   17   56 1  
    60   18   57 1  
    61   20   58 1  
    62   23   59 1  
    63   25   60 1  
    64   27   61 1  
    65   29   62 1  
    66   32   63 1  
    67   32   64 1  
    68   32   65 1  
    69   33   66 1  
    70   33   67 1  
    71   33   68 1  
    72   34   69 1  
    73   34   70 1  
    74   34   71 1  
    75   37   72 1  
@<TRIPOS>SUBSTRUCTURE
     1 5W1         1

