### 
### Created by X-TOOL on Mon Sep 10 21:13:30 2018
### 

@<TRIPOS>MOLECULE
5f63_ligand
   77    80     1     0     0
SMALL
GAST_HUCK


@<TRIPOS>ATOM
      1 C13         8.3940   -7.4130   -0.0420 C.ar      1 5W2        -0.0728
      2 C15        10.4780   -6.1660   -0.1050 C.ar      1 5W2         0.0468
      3 C17        12.6820   -5.1760    0.2330 C.ar      1 5W2         0.1378
      4 C20        14.7690   -4.0090    0.4880 C.ar      1 5W2         0.0024
      5 C22        14.5900   -5.7590   -1.0670 C.ar      1 5W2         0.1898
      6 C24        14.6270   -7.6000   -2.7230 C.ar      1 5W2         0.0671
      7 C26        13.0420   -9.4010   -3.1850 C.ar      1 5W2         0.1440
      8 C28        13.8930   -9.8640   -4.2510 C.ar      1 5W2         0.0711
      9 CL1         7.3570   -8.6970   -2.1620 Cl        1 5W2        -0.0952
     10 C02         8.5610   -7.7510   -1.4000 C.ar      1 5W2         0.0429
     11 C03         9.6760   -7.2800   -2.1250 C.ar      1 5W2         0.0666
     12 N04         9.8070   -7.6180   -3.4410 N.am      1 5W2        -0.1930
     13 S05        10.3680   -6.6260   -4.6840 S.o2      1 5W2         0.0650
     14 C06         9.0210   -5.5100   -5.1680 C.3       1 5W2         0.1035
     15 C07         7.8240   -6.3890   -5.6120 C.3       1 5W2        -0.0382
     16 C08         9.5630   -4.6600   -6.3400 C.3       1 5W2        -0.0382
     17 C09         8.6280   -4.6180   -3.9610 C.3       1 5W2        -0.0382
     18 O10        10.6710   -7.5900   -5.8730 O.2       1 5W2        -0.1493
     19 O11        11.6100   -5.8210   -4.1950 O.2       1 5W2        -0.1493
     20 C12        10.6160   -6.4880   -1.4620 C.ar      1 5W2        -0.0231
     21 C14         9.3560   -6.6350    0.6040 C.ar      1 5W2        -0.0549
     22 N16        11.3750   -5.3930    0.5750 N.pl3     1 5W2        -0.2619
     23 C18        13.4330   -4.1630    0.8820 C.ar      1 5W2         0.0153
     24 C19        12.8940   -3.2640    1.9330 C.3       1 5W2        -0.0286
     25 N21        15.2980   -4.7860   -0.4710 N.ar      1 5W2        -0.2768
     26 N23        15.1160   -6.5280   -2.0460 N.pl3     1 5W2        -0.2460
     27 C25        13.4050   -8.2570   -2.3910 C.ar      1 5W2         0.0008
     28 F27        11.9040  -10.0720   -2.9150 F         1 5W2        -0.1805
     29 C29        13.6000  -11.0210   -5.0690 C.2       1 5W2         0.1958
     30 N30        14.6340  -11.8470   -5.4780 N.am      1 5W2        -0.2851
     31 C31        14.6590  -13.1400   -6.1340 C.3       1 5W2         0.0508
     32 C32        13.3850  -13.4970   -6.9520 C.3       1 5W2         0.0106
     33 C33        13.6520  -14.8180   -7.7250 C.3       1 5W2        -0.0300
     34 N34        14.0530  -15.9500   -6.8200 N.4       1 5W2         0.2332
     35 C35        14.1170  -17.2860   -7.4860 C.3       1 5W2        -0.0431
     36 C36        15.1590  -15.6330   -5.8550 C.3       1 5W2        -0.0300
     37 C37        14.9510  -14.2800   -5.1120 C.3       1 5W2         0.0106
     38 O38        12.4050  -11.3670   -5.2120 O.2       1 5W2        -0.3924
     39 C39        15.1020   -9.1620   -4.5100 C.ar      1 5W2        -0.0530
     40 C40        15.5120   -8.0430   -3.7780 C.ar      1 5W2        -0.0364
     41 N41        13.2960   -5.9470   -0.7060 N.ar      1 5W2        -0.2404
     42 H1          7.5202   -7.7566    0.4997 H         1 5W2         0.0552
     43 H2         15.3833   -3.2529    0.9635 H         1 5W2         0.0778
     44 H3          9.5434   -8.5489   -3.6938 H         1 5W2         0.2161
     45 H4          6.9864   -5.7427   -5.9133 H         1 5W2         0.0251
     46 H5          7.5097   -7.0303   -4.7753 H         1 5W2         0.0251
     47 H6          8.1263   -7.0177   -6.4625 H         1 5W2         0.0251
     48 H7          8.7837   -3.9605   -6.6767 H         1 5W2         0.0251
     49 H8          9.8465   -5.3212   -7.1721 H         1 5W2         0.0251
     50 H9         10.4444   -4.0934   -6.0052 H         1 5W2         0.0251
     51 H10         7.8116   -3.9420   -4.2552 H         1 5W2         0.0251
     52 H11         9.4988   -4.0252   -3.6442 H         1 5W2         0.0251
     53 H12         8.2949   -5.2543   -3.1279 H         1 5W2         0.0251
     54 H13        11.4729   -6.1133   -2.0101 H         1 5W2         0.0390
     55 H14         9.2389   -6.3914    1.6538 H         1 5W2         0.0399
     56 H15        11.0346   -4.9279    1.4286 H         1 5W2         0.2143
     57 H16        11.8401   -3.5142    2.1243 H         1 5W2         0.0369
     58 H17        12.9674   -2.2197    1.5953 H         1 5W2         0.0369
     59 H18        13.4750   -3.3919    2.8582 H         1 5W2         0.0369
     60 H19        16.0653   -6.2494   -2.3327 H         1 5W2         0.2174
     61 H20        12.7782   -7.9102   -1.5774 H         1 5W2         0.0532
     62 H21        15.5429  -11.4789   -5.2822 H         1 5W2         0.1842
     63 H22        15.4957  -13.1104   -6.8475 H         1 5W2         0.0558
     64 H23        13.1621  -12.6887   -7.6640 H         1 5W2         0.0339
     65 H24        12.5318  -13.6313   -6.2708 H         1 5W2         0.0339
     66 H25        14.4607  -14.6440   -8.4501 H         1 5W2         0.0815
     67 H26        12.7346  -15.1038   -8.2604 H         1 5W2         0.0815
     68 H27        13.2541  -16.0451   -6.2127 H         1 5W2         0.2030
     69 H28        14.4165  -18.0479   -6.7513 H         1 5W2         0.0777
     70 H29        14.8538  -17.2540   -8.3021 H         1 5W2         0.0777
     71 H30        13.1278  -17.5397   -7.8948 H         1 5W2         0.0777
     72 H31        16.1065  -15.5848   -6.4117 H         1 5W2         0.0815
     73 H32        15.2133  -16.4383   -5.1076 H         1 5W2         0.0815
     74 H33        14.1011  -14.3732   -4.4199 H         1 5W2         0.0339
     75 H34        15.8607  -14.0342   -4.5446 H         1 5W2         0.0339
     76 H35        15.7379   -9.5116   -5.3153 H         1 5W2         0.0630
     77 H36        16.4451   -7.5338   -3.9903 H         1 5W2         0.0517
@<TRIPOS>BOND
     1    1   10 ar 
     2   21    1 ar 
     3    2   20 ar 
     4    2   21 ar 
     5   22    2 1  
     6    3   22 1  
     7    3   23 ar 
     8   41    3 ar 
     9    4   23 ar 
    10   25    4 ar 
    11    5   25 ar 
    12   26    5 1  
    13    5   41 ar 
    14    6   26 1  
    15   27    6 ar 
    16    6   40 ar 
    17    7    8 ar 
    18    7   27 ar 
    19    7   28 1  
    20    8   29 1  
    21    8   39 ar 
    22   10    9 1  
    23   10   11 ar 
    24   11   12 1  
    25   11   20 ar 
    26   12   13 am 
    27   13   14 1  
    28   13   18 2  
    29   13   19 2  
    30   14   15 1  
    31   14   16 1  
    32   14   17 1  
    33   23   24 1  
    34   29   30 am 
    35   29   38 2  
    36   30   31 1  
    37   31   32 1  
    38   31   37 1  
    39   32   33 1  
    40   33   34 1  
    41   34   35 1  
    42   34   36 1  
    43   36   37 1  
    44   39   40 ar 
    45    1   42 1  
    46    4   43 1  
    47   12   44 1  
    48   15   45 1  
    49   15   46 1  
    50   15   47 1  
    51   16   48 1  
    52   16   49 1  
    53   16   50 1  
    54   17   51 1  
    55   17   52 1  
    56   17   53 1  
    57   20   54 1  
    58   21   55 1  
    59   22   56 1  
    60   24   57 1  
    61   24   58 1  
    62   24   59 1  
    63   26   60 1  
    64   27   61 1  
    65   30   62 1  
    66   31   63 1  
    67   32   64 1  
    68   32   65 1  
    69   33   66 1  
    70   33   67 1  
    71   34   68 1  
    72   35   69 1  
    73   35   70 1  
    74   35   71 1  
    75   36   72 1  
    76   36   73 1  
    77   37   74 1  
    78   37   75 1  
    79   39   76 1  
    80   40   77 1  
@<TRIPOS>SUBSTRUCTURE
     1 5W2         1

