### 
### Created by X-TOOL on Mon Sep 10 21:13:27 2018
### 

@<TRIPOS>MOLECULE
5f6d_ligand
   25    27     1     0     0
SMALL
GAST_HUCK


@<TRIPOS>ATOM
      1 OAA       -12.7290   14.5510  -24.5010 O.2       1 5VJ        -0.1446
      2 SAP       -11.7190   14.5470  -23.3800 S.o2      1 5VJ         0.0899
      3 OAB       -12.4040   15.1500  -22.1880 O.2       1 5VJ        -0.1446
      4 CAO       -11.3530   12.9450  -23.0120 C.ar      1 5VJ         0.1175
      5 CAJ       -12.3750   12.0540  -22.6350 C.ar      1 5VJ        -0.0371
      6 CAF       -12.0730   10.7290  -22.3270 C.ar      1 5VJ        -0.0626
      7 CAE       -10.7530   10.2830  -22.3950 C.ar      1 5VJ        -0.0642
      8 CAI        -9.7410   11.1560  -22.7680 C.ar      1 5VJ        -0.0568
      9 CAN       -10.0480   12.5020  -23.0760 C.ar      1 5VJ         0.0008
     10 CAM        -8.9670   13.5120  -23.4940 C.ar      1 5VJ         0.0028
     11 CAH        -7.6700   13.0130  -23.5400 C.ar      1 5VJ        -0.0684
     12 CAD        -6.5970   13.8780  -23.9170 C.ar      1 5VJ        -0.0777
     13 CAC        -6.8590   15.2880  -24.2480 C.ar      1 5VJ        -0.0769
     14 CAG        -8.1900   15.8000  -24.2040 C.ar      1 5VJ        -0.0430
     15 CAL        -9.2370   14.9710  -23.8430 C.ar      1 5VJ         0.0745
     16 NAK       -10.5860   15.4910  -23.7930 N.am      1 5VJ        -0.1838
     17 H1        -13.4011   12.3998  -22.5840 H         1 5VJ         0.0630
     18 H2        -12.8625   10.0460  -22.0350 H         1 5VJ         0.0595
     19 H3        -10.5174    9.2523  -22.1560 H         1 5VJ         0.0610
     20 H4         -8.7162   10.8069  -22.8233 H         1 5VJ         0.0598
     21 H5         -7.4744   11.9761  -23.2918 H         1 5VJ         0.0578
     22 H6         -5.5843   13.4936  -23.9595 H         1 5VJ         0.0478
     23 H7         -6.0383   15.9394  -24.5260 H         1 5VJ         0.0577
     24 H8         -8.3807   16.8376  -24.4532 H         1 5VJ         0.0484
     25 H9        -10.7745   16.4458  -24.0230 H         1 5VJ         0.2193
@<TRIPOS>BOND
     1    1    2 2  
     2    2    3 2  
     3    2    4 1  
     4    2   16 am 
     5    4    5 ar 
     6    4    9 ar 
     7    5    6 ar 
     8    6    7 ar 
     9    7    8 ar 
    10    8    9 ar 
    11    9   10 1  
    12   10   11 ar 
    13   10   15 ar 
    14   11   12 ar 
    15   12   13 ar 
    16   13   14 ar 
    17   14   15 ar 
    18   15   16 1  
    19    5   17 1  
    20    6   18 1  
    21    7   19 1  
    22    8   20 1  
    23   11   21 1  
    24   12   22 1  
    25   13   23 1  
    26   14   24 1  
    27   16   25 1  
@<TRIPOS>SUBSTRUCTURE
     1 5VJ         1

