### 
### Created by X-TOOL on Mon Sep 10 21:13:27 2018
### 

@<TRIPOS>MOLECULE
5f6u_ligand
   39    40     1     0     0
SMALL
GAST_HUCK


@<TRIPOS>ATOM
      1 CAA       -12.0950   11.0000  -25.8890 C.3       1 5VK        -0.0371
      2 CAL       -13.5960   11.0070  -25.8710 C.3       1 5VK         0.0740
      3 OAO       -14.0390   11.4670  -24.5800 O.3       1 5VK        -0.2770
      4 CAP       -14.1730   10.4680  -23.5990 C.2       1 5VK         0.2357
      5 OAB       -13.9230    9.3120  -23.8590 O.2       1 5VK        -0.3702
      6 CAM       -14.2930   10.9120  -22.0950 C.3       1 5VK         0.0582
      7 CAN       -12.9570   10.7400  -21.3730 C.3       1 5VK        -0.0035
      8 CAQ       -11.8100   11.6660  -21.9680 C.ar      1 5VK        -0.0497
      9 CAK       -11.9770   13.0330  -22.0260 C.ar      1 5VK        -0.0315
     10 CAS       -10.9530   13.8570  -22.5480 C.ar      1 5VK         0.0895
     11 OAD       -11.1540   15.2560  -22.5960 O.3       1 5VK        -0.3332
     12 CAI       -10.6100   11.0930  -22.4460 C.ar      1 5VK        -0.0712
     13 CAJ        -9.6200   11.8890  -22.9600 C.ar      1 5VK        -0.0702
     14 CAU        -9.7740   13.2860  -23.0340 C.ar      1 5VK         0.0028
     15 CAT        -8.6150   14.0720  -23.5770 C.ar      1 5VK         0.0050
     16 CAH        -7.3930   13.5070  -23.3880 C.ar      1 5VK        -0.0660
     17 CAF        -6.2260   14.1620  -23.8420 C.ar      1 5VK        -0.0747
     18 CAE        -6.3000   15.3930  -24.4750 C.ar      1 5VK        -0.0727
     19 CAG        -7.5090   15.9670  -24.6670 C.ar      1 5VK        -0.0344
     20 CAR        -8.6860   15.3180  -24.2170 C.ar      1 5VK         0.0937
     21 OAC        -9.9050   15.9730  -24.4430 O.3       1 5VK        -0.3324
     22 H1        -11.7417   10.6503  -26.8703 H         1 5VK         0.0255
     23 H2        -11.7220   10.3262  -25.1036 H         1 5VK         0.0255
     24 H3        -11.7213   12.0183  -25.7064 H         1 5VK         0.0255
     25 H4        -13.9733    9.9896  -26.0511 H         1 5VK         0.0610
     26 H5        -13.9727   11.6817  -26.6538 H         1 5VK         0.0610
     27 H6        -15.0551   10.2953  -21.5961 H         1 5VK         0.0541
     28 H7        -14.5924   11.9697  -22.0534 H         1 5VK         0.0541
     29 H8        -12.6422    9.6898  -21.4623 H         1 5VK         0.0451
     30 H9        -13.0965   10.9920  -20.3114 H         1 5VK         0.0451
     31 H10       -12.8984   13.4790  -21.6695 H         1 5VK         0.0477
     32 H11       -10.3857   15.6726  -22.9682 H         1 5VK         0.2490
     33 H12       -10.4719   10.0186  -22.4059 H         1 5VK         0.0467
     34 H13        -8.7023   11.4348  -23.3158 H         1 5VK         0.0565
     35 H14        -7.3134   12.5493  -22.8865 H         1 5VK         0.0569
     36 H15        -5.2591   13.6951  -23.6931 H         1 5VK         0.0520
     37 H16        -5.3979   15.8903  -24.8126 H         1 5VK         0.0571
     38 H17        -7.5784   16.9265  -25.1666 H         1 5VK         0.0534
     39 H18       -10.6157   15.4442  -24.0999 H         1 5VK         0.2487
@<TRIPOS>BOND
     1    1    2 1  
     2    2    3 1  
     3    3    4 1  
     4    4    5 2  
     5    4    6 1  
     6    6    7 1  
     7    7    8 1  
     8    8    9 ar 
     9    8   12 ar 
    10    9   10 ar 
    11   10   11 1  
    12   10   14 ar 
    13   12   13 ar 
    14   13   14 ar 
    15   14   15 1  
    16   15   16 ar 
    17   15   20 ar 
    18   16   17 ar 
    19   17   18 ar 
    20   18   19 ar 
    21   19   20 ar 
    22   20   21 1  
    23    1   22 1  
    24    1   23 1  
    25    1   24 1  
    26    2   25 1  
    27    2   26 1  
    28    6   27 1  
    29    6   28 1  
    30    7   29 1  
    31    7   30 1  
    32    9   31 1  
    33   11   32 1  
    34   12   33 1  
    35   13   34 1  
    36   16   35 1  
    37   17   36 1  
    38   18   37 1  
    39   19   38 1  
    40   21   39 1  
@<TRIPOS>SUBSTRUCTURE
     1 5VK         1

