### 
### Created by X-TOOL on Mon Sep 10 21:13:26 2018
### 

@<TRIPOS>MOLECULE
5f6v_ligand
   24    25     1     0     0
SMALL
GAST_HUCK


@<TRIPOS>ATOM
      1 C4         15.3940   11.4080  109.9170 C.ar      1 5VL        -0.0717
      2 C5         15.6760   10.1480  110.4230 C.ar      1 5VL        -0.0737
      3 C6         14.6420    9.2880  110.7620 C.ar      1 5VL        -0.0645
      4 C7         13.3170    9.6760  110.5950 C.ar      1 5VL         0.0090
      5 C8         12.2720    8.6730  110.9920 C.ar      1 5VL         0.0090
      6 C10        11.7530    6.3420  111.3190 C.ar      1 5VL        -0.0737
      7 C13        10.9850    9.0030  111.4180 C.ar      1 5VL         0.0953
      8 O1         11.7530   11.3850  109.8920 O.3       1 5VL        -0.3317
      9 C2         13.0420   10.9440  110.0790 C.ar      1 5VL         0.0953
     10 C3         14.0780   11.8050  109.7450 C.ar      1 5VL        -0.0334
     11 C9         12.6450    7.3370  110.9530 C.ar      1 5VL        -0.0645
     12 C11        10.4700    6.6720  111.7300 C.ar      1 5VL        -0.0717
     13 C12        10.0910    8.0030  111.7790 C.ar      1 5VL        -0.0334
     14 O14        10.5610   10.3130  111.4800 O.3       1 5VL        -0.3317
     15 H1         16.2024   12.0815  109.6564 H         1 5VL         0.0579
     16 H2         16.7056    9.8349  110.5537 H         1 5VL         0.0522
     17 H3         14.8685    8.3056  111.1603 H         1 5VL         0.0578
     18 H4         12.0587    5.3026  111.2840 H         1 5VL         0.0522
     19 H5         11.2966   11.3883  110.7252 H         1 5VL         0.2491
     20 H6         13.8571   12.7896  109.3490 H         1 5VL         0.0537
     21 H7         13.6453    7.0689  110.6327 H         1 5VL         0.0578
     22 H8          9.7694    5.8939  112.0107 H         1 5VL         0.0579
     23 H9          9.0900    8.2663  112.1012 H         1 5VL         0.0537
     24 H10        11.2677   10.8866  111.2079 H         1 5VL         0.2491
@<TRIPOS>BOND
     1    1    2 ar 
     2    1   10 ar 
     3    2    3 ar 
     4    3    4 ar 
     5    4    5 1  
     6    4    9 ar 
     7    5    7 ar 
     8    5   11 ar 
     9   11    6 ar 
    10    6   12 ar 
    11    7   13 ar 
    12    7   14 1  
    13    9    8 1  
    14    9   10 ar 
    15   12   13 ar 
    16    1   15 1  
    17    2   16 1  
    18    3   17 1  
    19    6   18 1  
    20    8   19 1  
    21   10   20 1  
    22   11   21 1  
    23   12   22 1  
    24   13   23 1  
    25   14   24 1  
@<TRIPOS>SUBSTRUCTURE
     1 5VL         1

