### 
### Created by X-TOOL on Mon Sep 10 21:13:25 2018
### 

@<TRIPOS>MOLECULE
5f8y_ligand
   26    26     1     0     0
SMALL
GAST_HUCK


@<TRIPOS>ATOM
      1 O4         44.5370   -1.7060   12.6210 O.3       1 X6X        -0.3864
      2 C4         45.1840   -2.6520   11.7800 C.3       1 X6X         0.1147
      3 C3         46.0690   -3.5820   12.6190 C.3       1 X6X         0.1304
      4 O3         45.3750   -4.1860   13.6660 O.3       1 X6X        -0.3834
      5 C2         47.2050   -2.7750   13.2140 C.3       1 X6X         0.0565
      6 N2         48.1730   -3.6380   13.9370 N.4       1 X6X         0.2263
      7 C1         47.9690   -2.0140   12.1530 C.3       1 X6X         0.2030
      8 O1         48.6410   -2.9570   11.3030 O.3       1 X6X        -0.3627
      9 O          47.0980   -1.1840   11.3480 O.3       1 X6X        -0.3383
     10 C5         46.0370   -1.9400   10.7130 C.3       1 X6X         0.1132
     11 C6         45.1840   -0.9840    9.9390 C.3       1 X6X         0.0730
     12 O6         45.9810   -0.3920    8.8730 O.3       1 X6X        -0.3924
     13 H1         43.9972   -2.1641   13.2544 H         1 X6X         0.2100
     14 H2         44.4163   -3.2548   11.2727 H         1 X6X         0.0648
     15 H3         46.4766   -4.3659   11.9638 H         1 X6X         0.0679
     16 H4         45.0279   -3.5156   14.2427 H         1 X6X         0.2102
     17 H5         46.7737   -2.0545   13.9246 H         1 X6X         0.0927
     18 H6         48.9120   -3.0680   14.3178 H         1 X6X         0.2000
     19 H7         48.5642   -4.3125   13.2982 H         1 X6X         0.2000
     20 H8         47.7001   -4.1193   14.6858 H         1 X6X         0.2000
     21 H9         48.7137   -1.3709   12.6448 H         1 X6X         0.0968
     22 H10        47.9974   -3.5009   10.8643 H         1 X6X         0.2127
     23 H11        46.4699   -2.6879   10.0324 H         1 X6X         0.0647
     24 H12        44.8174   -0.1919   10.6084 H         1 X6X         0.0584
     25 H13        44.3286   -1.5219    9.5044 H         1 X6X         0.0584
     26 H14        46.2971   -1.0782    8.2971 H         1 X6X         0.2095
@<TRIPOS>BOND
     1    1    2 1  
     2    2    3 1  
     3    2   10 1  
     4    3    4 1  
     5    3    5 1  
     6    5    6 1  
     7    5    7 1  
     8    7    8 1  
     9    7    9 1  
    10    9   10 1  
    11   10   11 1  
    12   11   12 1  
    13    1   13 1  
    14    2   14 1  
    15    3   15 1  
    16    4   16 1  
    17    5   17 1  
    18    6   18 1  
    19    6   19 1  
    20    6   20 1  
    21    7   21 1  
    22    8   22 1  
    23   10   23 1  
    24   11   24 1  
    25   11   25 1  
    26   12   26 1  
@<TRIPOS>SUBSTRUCTURE
     1 X6X         1

