### 
### Created by X-TOOL on Mon Sep 10 21:13:25 2018
### 

@<TRIPOS>MOLECULE
5f90_ligand
   75    77     1     0     0
SMALL
GAST_HUCK


@<TRIPOS>ATOM
      1 C1        -22.9950    8.7060   41.7840 C.3       1 GLA         0.1884
      2 C2        -22.0280    7.4740   41.9160 C.3       1 GLA         0.1341
      3 C3        -20.5410    7.9000   41.5900 C.3       1 GLA         0.1141
      4 C4        -20.4920    8.5090   40.2030 C.3       1 GLA         0.1119
      5 C5        -21.5170    9.6260   40.1550 C.3       1 GLA         0.1130
      6 C6        -21.5200   10.2080   38.7510 C.3       1 GLA         0.0730
      7 O2        -22.0880    6.8540   43.1910 O.3       1 GLA        -0.3841
      8 O3        -19.6940    6.7670   41.6760 O.3       1 GLA        -0.3864
      9 O4        -20.8030    7.4800   39.1910 O.3       1 GLA        -0.3865
     10 O5        -22.8630    9.0940   40.4300 O.3       1 GLA        -0.3405
     11 O6        -22.4180   11.3190   38.7730 O.3       1 GLA        -0.3924
     12 C1        -22.7640   11.9010   45.3470 C.3       1 GAL         0.1884
     13 C2        -22.2780   12.1660   43.9510 C.3       1 GAL         0.1341
     14 C3        -23.4220   11.8760   42.9690 C.3       1 GAL         0.1144
     15 C4        -23.9000   10.4360   43.1480 C.3       1 GAL         0.1184
     16 C5        -24.3610   10.2980   44.5890 C.3       1 GAL         0.1134
     17 C6        -24.9440    8.9320   44.8970 C.3       1 GAL         0.0730
     18 O2        -21.9150   13.5390   43.8840 O.3       1 GAL        -0.3841
     19 O3        -22.9520   12.1010   41.6650 O.3       1 GAL        -0.3864
     20 O4        -22.7770    9.5310   42.9030 O.3       1 GAL        -0.3401
     21 O5        -23.2000   10.5310   45.4100 O.3       1 GAL        -0.3405
     22 O6        -25.2670    8.8780   46.3310 O.3       1 GAL        -0.3924
     23 C2        -22.5600   14.0040   49.4530 C.3       1 BGC         0.1341
     24 C3        -22.7700   13.5130   48.0290 C.3       1 BGC         0.1144
     25 C4        -21.6420   12.5800   47.6410 C.3       1 BGC         0.1184
     26 C5        -21.6740   11.3540   48.4630 C.3       1 BGC         0.1134
     27 C6        -20.4810   10.5230   48.1050 C.3       1 BGC         0.0730
     28 C1        -21.6670   13.0890   50.3470 C.3       1 BGC         0.1879
     29 O2        -23.8550   14.1730   50.0990 O.3       1 BGC        -0.3841
     30 O3        -22.7960   14.6610   47.1550 O.3       1 BGC        -0.3864
     31 O4        -21.6180   12.1780   46.2220 O.3       1 BGC        -0.3401
     32 O5        -21.6090   11.6920   49.9460 O.3       1 BGC        -0.3405
     33 O6        -20.9890    9.1990   48.0400 O.3       1 BGC        -0.3924
     34 O         -20.3320   13.6260   50.3780 O.3       1 GLA        -0.3487
     35 C1        -20.1400   14.6310   51.3990 C.3       1 GLA         0.0505
     36 C2        -19.5550   13.9830   52.6600 C.3       1 GLA        -0.0322
     37 C3        -18.3910   14.8340   53.1890 C.3       1 GLA        -0.0632
     38 H1        -24.0348    8.3625   41.8884 H         1 GLA         0.0938
     39 H2        -22.3402    6.7283   41.1700 H         1 GLA         0.0671
     40 H3        -20.2088    8.6502   42.3227 H         1 GLA         0.0648
     41 H4        -19.4889    8.9170   40.0097 H         1 GLA         0.0647
     42 H5        -21.2615   10.4021   40.8914 H         1 GLA         0.0647
     43 H6        -21.8659    9.4544   38.0282 H         1 GLA         0.0584
     44 H7        -20.5087   10.5425   38.4764 H         1 GLA         0.0584
     45 H8        -21.5341    6.0823   43.1930 H         1 GLA         0.2101
     46 H9        -19.9751    6.1143   41.0455 H         1 GLA         0.2100
     47 H10       -20.1529    6.7886   39.2339 H         1 GLA         0.2100
     48 H11       -22.1128   11.9590   39.4053 H         1 GLA         0.2095
     49 H12       -23.6021   12.5651   45.6051 H         1 GLA         0.0938
     50 H13       -21.4111   11.5307   43.7168 H         1 GLA         0.0671
     51 H14       -24.2614   12.5573   43.1721 H         1 GLA         0.0648
     52 H15       -24.7251   10.2118   42.4560 H         1 GLA         0.0651
     53 H16       -25.1261   11.0600   44.7989 H         1 GLA         0.0647
     54 H17       -24.2095    8.1507   44.6519 H         1 GLA         0.0584
     55 H18       -25.8574    8.7756   44.3043 H         1 GLA         0.0584
     56 H19       -21.2072   13.7084   44.4945 H         1 GLA         0.2101
     57 H20       -22.6627   13.0024   41.5850 H         1 GLA         0.2100
     58 H21       -24.4757    9.0162   46.8381 H         1 GLA         0.2095
     59 H22       -22.0676   14.9857   49.3917 H         1 GLA         0.0671
     60 H23       -23.7269   12.9750   47.9591 H         1 GLA         0.0648
     61 H24       -20.7015   13.1114   47.8485 H         1 GLA         0.0651
     62 H25       -22.5982   10.7949   48.2552 H         1 GLA         0.0647
     63 H26       -19.7019   10.6049   48.8772 H         1 GLA         0.0584
     64 H27       -20.0679   10.8309   47.1332 H         1 GLA         0.0584
     65 H28       -22.0815   13.1203   51.3654 H         1 GLA         0.0937
     66 H29       -24.4058   14.7294   49.5609 H         1 GLA         0.2101
     67 H30       -22.9263   14.3727   46.2592 H         1 GLA         0.2100
     68 H31       -20.2853    8.6017   47.8150 H         1 GLA         0.2095
     69 H32       -21.1074   15.0949   51.6417 H         1 GLA         0.0561
     70 H33       -19.4469   15.4006   51.0285 H         1 GLA         0.0561
     71 H34       -19.1891   12.9746   52.4165 H         1 GLA         0.0285
     72 H35       -20.3364   13.9133   53.4310 H         1 GLA         0.0285
     73 H36       -17.9752   14.3651   54.0930 H         1 GLA         0.0230
     74 H37       -18.7557   15.8425   53.4338 H         1 GLA         0.0230
     75 H38       -17.6084   14.9039   52.4192 H         1 GLA         0.0230
@<TRIPOS>BOND
     1    1    2 1  
     2    1   10 1  
     3   20    1 1  
     4    2    3 1  
     5    2    7 1  
     6    3    4 1  
     7    3    8 1  
     8    5    4 1  
     9    4    9 1  
    10    5    6 1  
    11   10    5 1  
    12    6   11 1  
    13   12   13 1  
    14   12   21 1  
    15   31   12 1  
    16   13   14 1  
    17   13   18 1  
    18   14   15 1  
    19   14   19 1  
    20   16   15 1  
    21   15   20 1  
    22   16   17 1  
    23   21   16 1  
    24   17   22 1  
    25   24   23 1  
    26   23   28 1  
    27   23   29 1  
    28   25   24 1  
    29   24   30 1  
    30   25   26 1  
    31   25   31 1  
    32   26   27 1  
    33   26   32 1  
    34   27   33 1  
    35   28   32 1  
    36   28   34 1  
    37   34   35 1  
    38   35   36 1  
    39   36   37 1  
    40    1   38 1  
    41    2   39 1  
    42    3   40 1  
    43    4   41 1  
    44    5   42 1  
    45    6   43 1  
    46    6   44 1  
    47    7   45 1  
    48    8   46 1  
    49    9   47 1  
    50   11   48 1  
    51   12   49 1  
    52   13   50 1  
    53   14   51 1  
    54   15   52 1  
    55   16   53 1  
    56   17   54 1  
    57   17   55 1  
    58   18   56 1  
    59   19   57 1  
    60   22   58 1  
    61   23   59 1  
    62   24   60 1  
    63   25   61 1  
    64   26   62 1  
    65   27   63 1  
    66   27   64 1  
    67   28   65 1  
    68   29   66 1  
    69   30   67 1  
    70   33   68 1  
    71   35   69 1  
    72   35   70 1  
    73   36   71 1  
    74   36   72 1  
    75   37   73 1  
    76   37   74 1  
    77   37   75 1  
@<TRIPOS>SUBSTRUCTURE
     1 GLA         1

