### 
### Created by X-TOOL on Mon Sep 10 21:13:26 2018
### 

@<TRIPOS>MOLECULE
5f91_ligand
   59    62     1     0     0
SMALL
GAST_HUCK


@<TRIPOS>ATOM
      1 C10       164.5430  -14.3710   30.6950 C.3       1 5WJ        -0.0515
      2 C7        165.5130  -11.2890   30.0130 C.3       1 5WJ         0.0295
      3 C1        169.8580  -10.0160   32.0630 C.ar      1 5WJ         0.0982
      4 C2        170.1440   -8.6750   31.6950 C.ar      1 5WJ         0.1123
      5 C3        171.7640   -6.9480   31.4300 C.3       1 5WJ         0.0562
      6 C4        169.0890   -7.7770   31.5020 C.ar      1 5WJ        -0.0443
      7 C5        167.7710   -8.1920   31.6780 C.ar      1 5WJ        -0.0597
      8 C6        167.4380   -9.4970   32.0440 C.ar      1 5WJ         0.0837
      9 O4        172.5320  -18.0980   30.2310 O.2       1 5WJ        -0.3377
     10 C16       172.4870  -16.9410   30.6010 C.2       1 5WJ         0.2658
     11 N3        172.1000  -16.6970   31.9350 N.2       1 5WJ        -0.0935
     12 N2        172.0050  -15.5000   32.5200 N.2       1 5WJ        -0.1528
     13 C17       172.8160  -15.7360   29.8110 C.ar      1 5WJ         0.0602
     14 C22       172.7350  -14.4690   30.4170 C.ar      1 5WJ         0.0074
     15 C21       173.0580  -13.3240   29.6700 C.ar      1 5WJ        -0.0517
     16 C20       173.4380  -13.4550   28.3320 C.ar      1 5WJ        -0.0638
     17 C19       173.5050  -14.7200   27.7380 C.ar      1 5WJ        -0.0627
     18 C18       173.2010  -15.8670   28.4670 C.ar      1 5WJ        -0.0479
     19 C15       172.2960  -14.4240   31.8160 C.3       1 5WJ         0.1303
     20 C14       172.0950  -13.1090   32.4920 C.3       1 5WJ         0.0784
     21 C         170.8950  -12.2830   32.0450 C.2       1 5WJ         0.2052
     22 O         169.9970  -12.8200   31.3910 O.2       1 5WJ        -0.3860
     23 N         170.8820  -10.9390   32.3750 N.am      1 5WJ        -0.2364
     24 C13       168.5070  -10.4120   32.2110 C.ar      1 5WJ        -0.0228
     25 O1        171.4510   -8.3400   31.5550 O.3       1 5WJ        -0.3275
     26 S         165.8460   -9.9520   32.3760 S.o2      1 5WJ         0.0623
     27 O2        164.9560   -8.9330   31.9450 O.2       1 5WJ        -0.1517
     28 O3        165.7650  -10.3420   33.7580 O.2       1 5WJ        -0.1517
     29 N1        165.6250  -11.3320   31.4930 N.am      1 5WJ        -0.2355
     30 C12       165.6010  -12.6350   32.1870 C.3       1 5WJ         0.0295
     31 C11       164.3450  -13.4650   31.9080 C.3       1 5WJ        -0.0359
     32 C9        164.5810  -13.5720   29.3920 C.3       1 5WJ        -0.0515
     33 C8        165.7750  -12.6200   29.2940 C.3       1 5WJ        -0.0359
     34 H1        163.7120  -15.0902   30.6479 H         1 5WJ         0.0266
     35 H2        165.4926  -14.9147   30.8074 H         1 5WJ         0.0266
     36 H3        166.2393  -10.5525   29.6389 H         1 5WJ         0.0478
     37 H4        164.4942  -10.9609   29.7591 H         1 5WJ         0.0478
     38 H5        172.8520   -6.8249   31.3243 H         1 5WJ         0.0572
     39 H6        171.4199   -6.4128   32.3273 H         1 5WJ         0.0572
     40 H7        171.2606   -6.5372   30.5424 H         1 5WJ         0.0572
     41 H8        169.2981   -6.7531   31.2140 H         1 5WJ         0.0495
     42 H9        166.9735   -7.4739   31.5248 H         1 5WJ         0.0479
     43 H10       173.0126  -12.3433   30.1296 H         1 5WJ         0.0570
     44 H11       173.6820  -12.5727   27.7515 H         1 5WJ         0.0638
     45 H12       173.7971  -14.8084   26.6978 H         1 5WJ         0.0573
     46 H13       173.2606  -16.8454   28.0042 H         1 5WJ         0.0653
     47 H14       173.3432  -14.4691   32.1496 H         1 5WJ         0.0778
     48 H15       172.9978  -12.5047   32.3195 H         1 5WJ         0.0554
     49 H16       171.9833  -13.3021   33.5691 H         1 5WJ         0.0554
     50 H17       171.6701  -10.5884   32.8810 H         1 5WJ         0.2223
     51 H18       168.2841  -11.4435   32.4589 H         1 5WJ         0.0486
     52 H19       165.6610  -12.4515   33.2699 H         1 5WJ         0.0478
     53 H20       166.4780  -13.2153   31.8642 H         1 5WJ         0.0478
     54 H21       164.1223  -14.0863   32.7880 H         1 5WJ         0.0281
     55 H22       163.5012  -12.7861   31.7154 H         1 5WJ         0.0281
     56 H23       163.6568  -12.9798   29.3197 H         1 5WJ         0.0266
     57 H24       164.6300  -14.2795   28.5511 H         1 5WJ         0.0266
     58 H25       166.6519  -13.1028   29.7500 H         1 5WJ         0.0281
     59 H26       165.9794  -12.4156   28.2327 H         1 5WJ         0.0281
@<TRIPOS>BOND
     1   31    1 1  
     2    1   32 1  
     3   29    2 1  
     4    2   33 1  
     5    3    4 ar 
     6    3   23 1  
     7   24    3 ar 
     8    6    4 ar 
     9    4   25 1  
    10   25    5 1  
    11    7    6 ar 
    12    8    7 ar 
    13    8   24 ar 
    14   26    8 1  
    15   10    9 2  
    16   11   10 1  
    17   13   10 1  
    18   12   11 2  
    19   19   12 1  
    20   14   13 ar 
    21   13   18 ar 
    22   14   15 ar 
    23   19   14 1  
    24   15   16 ar 
    25   16   17 ar 
    26   18   17 ar 
    27   20   19 1  
    28   21   20 1  
    29   21   22 2  
    30   23   21 am 
    31   26   27 2  
    32   26   28 2  
    33   29   26 am 
    34   30   29 1  
    35   30   31 1  
    36   32   33 1  
    37    1   34 1  
    38    1   35 1  
    39    2   36 1  
    40    2   37 1  
    41    5   38 1  
    42    5   39 1  
    43    5   40 1  
    44    6   41 1  
    45    7   42 1  
    46   15   43 1  
    47   16   44 1  
    48   17   45 1  
    49   18   46 1  
    50   19   47 1  
    51   20   48 1  
    52   20   49 1  
    53   23   50 1  
    54   24   51 1  
    55   30   52 1  
    56   30   53 1  
    57   31   54 1  
    58   31   55 1  
    59   32   56 1  
    60   32   57 1  
    61   33   58 1  
    62   33   59 1  
@<TRIPOS>SUBSTRUCTURE
     1 5WJ         1

