### 
### Created by X-TOOL on Mon Sep 10 21:13:28 2018
### 

@<TRIPOS>MOLECULE
5f94_ligand
   37    39     1     0     0
SMALL
GAST_HUCK


@<TRIPOS>ATOM
      1 C1        -21.6210  -17.3950    7.1330 C.ar      1 3UO         0.0614
      2 C2        -20.3640  -17.7480    7.6060 C.ar      1 3UO         0.0068
      3 C3        -19.5950  -18.6280    6.8360 C.ar      1 3UO         0.1442
      4 N4        -20.0210  -19.1480    5.6750 N.ar      1 3UO        -0.2808
      5 C5        -21.2350  -18.7830    5.2430 C.ar      1 3UO        -0.0021
      6 C6        -22.0610  -17.9210    5.9250 C.ar      1 3UO        -0.0310
      7 C7        -22.4940  -16.4480    7.8870 C.2       1 3UO         0.2376
      8 N8        -18.2890  -19.0210    7.1630 N.am      1 3UO        -0.2175
      9 N9        -22.0680  -16.1120    9.1240 N.am      1 3UO        -0.2277
     10 O10       -23.5260  -16.0110    7.3880 O.2       1 3UO        -0.3685
     11 C11       -17.5280  -18.6240    8.2030 C.2       1 3UO         0.2163
     12 C12       -16.0970  -19.1210    8.1610 C.3       1 3UO         0.0928
     13 O13       -17.9310  -17.8940    9.1060 O.2       1 3UO        -0.3863
     14 C14       -15.0200  -18.1880    8.6560 C.2       1 3UO        -0.0566
     15 C15       -15.4000  -19.3640    9.4770 C.2       1 3UO        -0.0566
     16 C16       -22.6770  -15.1680    9.9820 C.ar      1 3UO         0.1244
     17 C17       -23.9770  -14.6620    9.9300 C.ar      1 3UO         0.0202
     18 N18       -24.4820  -13.7330   10.7450 N.ar      1 3UO        -0.3294
     19 C19       -23.6640  -13.2570   11.6810 C.ar      1 3UO        -0.0163
     20 C20       -22.3600  -13.6840   11.8480 C.ar      1 3UO        -0.0184
     21 C21       -21.8790  -14.6660   10.9950 C.ar      1 3UO         0.1332
     22 O22       -20.6830  -15.3140   11.1500 O.3       1 3UO        -0.3170
     23 C23       -20.0440  -15.2340   12.4300 C.3       1 3UO         0.0594
     24 H1        -19.9895  -17.3537    8.5437 H         1 3UO         0.0649
     25 H2        -21.5864  -19.1904    4.3020 H         1 3UO         0.0783
     26 H3        -23.0348  -17.6575    5.5284 H         1 3UO         0.0623
     27 H4        -17.8666  -19.6826    6.5434 H         1 3UO         0.2308
     28 H5        -21.2478  -16.5726    9.4634 H         1 3UO         0.2249
     29 H6        -15.9331  -19.7794    7.2952 H         1 3UO         0.0647
     30 H7        -14.4083  -17.2983    8.5140 H         1 3UO         0.0614
     31 H8        -15.2702  -19.9652   10.3757 H         1 3UO         0.0614
     32 H9        -24.6324  -15.0571    9.1623 H         1 3UO         0.0659
     33 H10       -24.0415  -12.4918   12.3496 H         1 3UO         0.0660
     34 H11       -21.7309  -13.2631   12.6240 H         1 3UO         0.0583
     35 H12       -19.1000  -15.7981   12.4044 H         1 3UO         0.0578
     36 H13       -20.7058  -15.6614   13.1976 H         1 3UO         0.0578
     37 H14       -19.8355  -14.1811   12.6706 H         1 3UO         0.0578
@<TRIPOS>BOND
     1    1    2 ar 
     2    1    6 ar 
     3    1    7 1  
     4    2    3 ar 
     5    3    4 ar 
     6    3    8 1  
     7    4    5 ar 
     8    5    6 ar 
     9    7    9 am 
    10    7   10 2  
    11    8   11 am 
    12    9   16 1  
    13   11   12 1  
    14   11   13 2  
    15   12   14 1  
    16   12   15 1  
    17   14   15 2  
    18   16   17 ar 
    19   16   21 ar 
    20   17   18 ar 
    21   18   19 ar 
    22   19   20 ar 
    23   20   21 ar 
    24   21   22 1  
    25   22   23 1  
    26    2   24 1  
    27    5   25 1  
    28    6   26 1  
    29    8   27 1  
    30    9   28 1  
    31   12   29 1  
    32   14   30 1  
    33   15   31 1  
    34   17   32 1  
    35   19   33 1  
    36   20   34 1  
    37   23   35 1  
    38   23   36 1  
    39   23   37 1  
@<TRIPOS>SUBSTRUCTURE
     1 3UO         1

