### 
### Created by X-TOOL on Mon Sep 10 21:13:29 2018
### 

@<TRIPOS>MOLECULE
5f95_ligand
   43    46     1     0     0
SMALL
GAST_HUCK


@<TRIPOS>ATOM
      1 C1         77.3150   -1.4590  140.7230 C.ar      1 3UP         0.0624
      2 C2         77.6140   -0.1620  141.1330 C.ar      1 3UP         0.0069
      3 C3         78.3760    0.6380  140.2770 C.ar      1 3UP         0.1442
      4 N4         78.8300    0.2130  139.0880 N.ar      1 3UP        -0.2808
      5 C5         78.5360   -1.0400  138.7250 C.ar      1 3UP        -0.0021
      6 C6         77.7930   -1.9020  139.4980 C.ar      1 3UP        -0.0308
      7 C7         76.4440   -2.3800  141.5120 C.2       1 3UP         0.2420
      8 N8         78.7920    1.9570  140.5240 N.am      1 3UP        -0.2175
      9 N9         76.0910   -1.9490  142.7430 N.am      1 3UP        -0.2223
     10 O10        76.0590   -3.4450  141.0360 O.2       1 3UP        -0.3661
     11 C11        78.5960    2.7430  141.6080 C.2       1 3UP         0.2163
     12 C12        78.8640    4.2130  141.3730 C.3       1 3UP         0.0928
     13 O13        78.1950    2.3290  142.6890 O.2       1 3UP        -0.3863
     14 C14        79.9400    4.8710  142.1870 C.2       1 3UP        -0.0566
     15 C15        78.5250    5.1700  142.4780 C.2       1 3UP        -0.0566
     16 C16        75.1020   -2.5080  143.5870 C.ar      1 3UP         0.1041
     17 C17        74.6210   -3.8120  143.5060 C.ar      1 3UP         0.0320
     18 N18        73.6550   -4.3140  144.2760 N.ar      1 3UP        -0.3139
     19 C19        73.1270   -3.4970  145.1840 C.ar      1 3UP        -0.0054
     20 C20        73.5220   -2.1870  145.3630 C.ar      1 3UP        -0.0402
     21 C21        74.5290   -1.6710  144.5540 C.ar      1 3UP         0.0233
     22 C22        74.9550   -0.2530  144.7150 C.ar      1 3UP        -0.0160
     23 C23        74.5140    0.7270  143.8270 C.ar      1 3UP        -0.0552
     24 C24        74.9370    2.0390  143.9550 C.ar      1 3UP        -0.0621
     25 C25        75.8050    2.3910  144.9690 C.ar      1 3UP        -0.0626
     26 C26        76.2520    1.4280  145.8570 C.ar      1 3UP        -0.0621
     27 C27        75.8300    0.1170  145.7340 C.ar      1 3UP        -0.0552
     28 H1         77.2661    0.2158  142.0876 H         1 3UP         0.0649
     29 H2         78.9033   -1.3960  137.7693 H         1 3UP         0.0783
     30 H3         77.5847   -2.9094  139.1562 H         1 3UP         0.0623
     31 H4         79.3140    2.3808  139.7838 H         1 3UP         0.2308
     32 H5         76.5801   -1.1509  143.0948 H         1 3UP         0.2304
     33 H6         78.7037    4.4771  140.3173 H         1 3UP         0.0647
     34 H7         80.9967    5.0196  142.4045 H         1 3UP         0.0614
     35 H8         77.7777    5.7000  143.0667 H         1 3UP         0.0614
     36 H9         75.0636   -4.4662  142.7636 H         1 3UP         0.0708
     37 H10        72.3397   -3.8836  145.8210 H         1 3UP         0.0689
     38 H11        73.0550   -1.5699  146.1220 H         1 3UP         0.0668
     39 H12        73.8326    0.4589  143.0277 H         1 3UP         0.0615
     40 H13        74.5860    2.7911  143.2578 H         1 3UP         0.0615
     41 H14        76.1355    3.4185  145.0695 H         1 3UP         0.0611
     42 H15        76.9357    1.7027  146.6521 H         1 3UP         0.0615
     43 H16        76.1830   -0.6293  146.4365 H         1 3UP         0.0615
@<TRIPOS>BOND
     1    1    2 ar 
     2    1    6 ar 
     3    1    7 1  
     4    2    3 ar 
     5    3    4 ar 
     6    3    8 1  
     7    4    5 ar 
     8    5    6 ar 
     9    7    9 am 
    10    7   10 2  
    11    8   11 am 
    12    9   16 1  
    13   11   12 1  
    14   11   13 2  
    15   12   14 1  
    16   12   15 1  
    17   14   15 2  
    18   16   17 ar 
    19   16   21 ar 
    20   17   18 ar 
    21   18   19 ar 
    22   19   20 ar 
    23   20   21 ar 
    24   21   22 1  
    25   22   23 ar 
    26   22   27 ar 
    27   23   24 ar 
    28   24   25 ar 
    29   25   26 ar 
    30   26   27 ar 
    31    2   28 1  
    32    5   29 1  
    33    6   30 1  
    34    8   31 1  
    35    9   32 1  
    36   12   33 1  
    37   14   34 1  
    38   15   35 1  
    39   17   36 1  
    40   19   37 1  
    41   20   38 1  
    42   23   39 1  
    43   24   40 1  
    44   25   41 1  
    45   26   42 1  
    46   27   43 1  
@<TRIPOS>SUBSTRUCTURE
     1 3UP         1

