### 
### Created by X-TOOL on Mon Sep 10 21:13:30 2018
### 

@<TRIPOS>MOLECULE
5f9b_ligand
   82    86     1     0     0
SMALL
GAST_HUCK


@<TRIPOS>ATOM
      1 C21        38.6170   -9.7070   39.9720 C.3       1 5VN        -0.1041
      2 C20        37.6110  -10.0340   41.0180 C.3       1 5VN        -0.0621
      3 C34        37.7980  -11.4680   41.2650 C.3       1 5VN        -0.0660
      4 C31        39.1160  -11.8350   42.0630 C.3       1 5VN         0.0553
      5 O33        40.3820  -11.5060   41.4280 O.3       1 5VN        -0.3930
      6 C27        38.9500  -11.1920   43.3950 C.3       1 5VN         0.0511
      7 C28        37.5790  -11.7410   43.7360 C.2       1 5VN         0.0554
      8 O30        36.6720  -10.9300   44.0140 O.co2     1 5VN        -0.5473
      9 O29        37.4140  -12.9610   43.5430 O.co2     1 5VN        -0.5473
     10 C35        39.9980  -11.6040   44.4360 C.3       1 5VN        -0.0381
     11 C36        41.3330  -10.8770   44.2550 C.3       1 5VN        -0.0475
     12 C37        41.1290   -9.3640   44.3000 C.3       1 5VN        -0.0332
     13 C38        40.5450   -8.9380   45.6270 C.3       1 5VN        -0.0597
     14 C39        42.4540   -8.6330   44.2150 C.3       1 5VN        -0.0597
     15 C40        40.2180   -8.9830   43.1510 C.3       1 5VN        -0.0370
     16 C25        38.8620   -9.6720   43.3540 C.3       1 5VN        -0.0033
     17 C22        37.8660   -9.2320   42.2940 C.2       1 5VN        -0.0636
     18 C23        37.2170   -8.0460   42.5850 C.2       1 5VN        -0.0128
     19 C24        36.2100   -7.5040   41.6290 C.3       1 5VN         0.0237
     20 C14        36.5400   -8.1130   40.2840 C.3       1 5VN        -0.0169
     21 C16        36.3010   -9.6640   40.3390 C.3       1 5VN        -0.0633
     22 C17        35.0520  -10.1550   41.1240 C.3       1 5VN        -0.0714
     23 C18        36.3170  -10.2920   38.8990 C.3       1 5VN        -0.0591
     24 C19        35.5590   -9.4630   37.8540 C.3       1 5VN        -0.0497
     25 C1         36.1500   -8.0490   37.8530 C.3       1 5VN        -0.0252
     26 C3         35.8540   -7.3460   39.2080 C.3       1 5VN        -0.0219
     27 C4         34.4080   -7.2040   39.6410 C.3       1 5VN        -0.0587
     28 C5         36.4540   -5.9770   39.1510 C.3       1 5VN        -0.0444
     29 C6         35.7850   -5.1880   38.0450 C.3       1 5VN        -0.0257
     30 C7         36.1940   -5.7910   36.7390 C.3       1 5VN         0.0630
     31 O9         35.6320   -5.0270   35.6610 O.3       1 5VN        -0.3912
     32 C10        35.6970   -7.2260   36.6350 C.3       1 5VN         0.0203
     33 C11        34.1880   -7.2300   36.4690 C.3       1 5VN        -0.0548
     34 C12        36.3070   -7.8230   35.3900 C.3       1 5VN         0.0522
     35 O13        35.8990   -7.0670   34.2470 O.3       1 5VN        -0.3944
     36 H1         39.6250   -9.9349   40.3488 H         1 5VN         0.0068
     37 H2         38.5520   -8.6377   39.7223 H         1 5VN         0.0068
     38 H3         38.4179  -10.3066   39.0716 H         1 5VN         0.0068
     39 H4         37.8316  -11.9818   40.2929 H         1 5VN         0.0128
     40 H5         36.9353  -11.8318   41.8424 H         1 5VN         0.0128
     41 H6         39.1234  -12.9258   42.2049 H         1 5VN         0.0579
     42 H7         40.4253  -10.5690   41.2773 H         1 5VN         0.2096
     43 H8         40.1729  -12.6865   44.3490 H         1 5VN         0.0265
     44 H9         39.6065  -11.3752   45.4382 H         1 5VN         0.0265
     45 H10        41.7676  -11.1548   43.2834 H         1 5VN         0.0270
     46 H11        42.0191  -11.1738   45.0620 H         1 5VN         0.0270
     47 H12        40.4081   -7.8466   45.6339 H         1 5VN         0.0235
     48 H13        41.2292   -9.2268   46.4384 H         1 5VN         0.0235
     49 H14        39.5725   -9.4304   45.7747 H         1 5VN         0.0235
     50 H15        42.9534   -8.8880   43.2686 H         1 5VN         0.0235
     51 H16        43.0928   -8.9325   45.0589 H         1 5VN         0.0235
     52 H17        42.2775   -7.5480   44.2557 H         1 5VN         0.0235
     53 H18        40.6626   -9.3123   42.2003 H         1 5VN         0.0292
     54 H19        40.0804   -7.8918   43.1329 H         1 5VN         0.0292
     55 H20        38.4772   -9.3432   44.3306 H         1 5VN         0.0436
     56 H21        37.4403   -7.5113   43.5070 H         1 5VN         0.1467
     57 H22        36.2816   -6.4075   41.5797 H         1 5VN         0.0680
     58 H23        35.1948   -7.7916   41.9397 H         1 5VN         0.0680
     59 H24        37.6181   -7.9779   40.1125 H         1 5VN         0.0353
     60 H25        35.0026  -11.2532   41.0846 H         1 5VN         0.0223
     61 H26        34.1439   -9.7306   40.6709 H         1 5VN         0.0223
     62 H27        35.1259   -9.8287   42.1719 H         1 5VN         0.0223
     63 H28        35.8568  -11.2898   38.9505 H         1 5VN         0.0258
     64 H29        37.3635  -10.3872   38.5736 H         1 5VN         0.0258
     65 H30        34.4909   -9.4211   38.1137 H         1 5VN         0.0268
     66 H31        35.6770   -9.9177   36.8594 H         1 5VN         0.0268
     67 H32        37.2423   -8.1525   37.7744 H         1 5VN         0.0313
     68 H33        34.3650   -6.6897   40.6124 H         1 5VN         0.0235
     69 H34        33.9534   -8.2013   39.7338 H         1 5VN         0.0235
     70 H35        33.8565   -6.6179   38.8911 H         1 5VN         0.0235
     71 H36        37.5321   -6.0556   38.9470 H         1 5VN         0.0272
     72 H37        36.2990   -5.4666   40.1130 H         1 5VN         0.0272
     73 H38        36.1065   -4.1369   38.0884 H         1 5VN         0.0290
     74 H39        34.6919   -5.2420   38.1557 H         1 5VN         0.0290
     75 H40        37.2914   -5.7799   36.6640 H         1 5VN         0.0599
     76 H41        35.8928   -5.4114   34.8323 H         1 5VN         0.2098
     77 H42        33.8302   -8.2675   36.3940 H         1 5VN         0.0237
     78 H43        33.9183   -6.6821   35.5541 H         1 5VN         0.0237
     79 H44        33.7221   -6.7435   37.3386 H         1 5VN         0.0237
     80 H45        35.9696   -8.8642   35.2799 H         1 5VN         0.0563
     81 H46        37.4037   -7.7996   35.4721 H         1 5VN         0.0563
     82 H47        36.1909   -6.1680   34.3427 H         1 5VN         0.2094
@<TRIPOS>BOND
     1    1    2 1  
     2    2    3 1  
     3    2   17 1  
     4    2   21 1  
     5    3    4 1  
     6    4    5 1  
     7    4    6 1  
     8    6    7 1  
     9    6   10 1  
    10    6   16 1  
    11    7    8 ar 
    12    7    9 ar 
    13   10   11 1  
    14   11   12 1  
    15   12   13 1  
    16   12   14 1  
    17   12   15 1  
    18   15   16 1  
    19   16   17 1  
    20   17   18 2  
    21   18   19 1  
    22   19   20 1  
    23   20   21 1  
    24   20   26 1  
    25   21   22 1  
    26   21   23 1  
    27   23   24 1  
    28   24   25 1  
    29   25   26 1  
    30   25   32 1  
    31   26   27 1  
    32   26   28 1  
    33   28   29 1  
    34   29   30 1  
    35   30   31 1  
    36   30   32 1  
    37   32   33 1  
    38   32   34 1  
    39   34   35 1  
    40    1   36 1  
    41    1   37 1  
    42    1   38 1  
    43    3   39 1  
    44    3   40 1  
    45    4   41 1  
    46    5   42 1  
    47   10   43 1  
    48   10   44 1  
    49   11   45 1  
    50   11   46 1  
    51   13   47 1  
    52   13   48 1  
    53   13   49 1  
    54   14   50 1  
    55   14   51 1  
    56   14   52 1  
    57   15   53 1  
    58   15   54 1  
    59   16   55 1  
    60   18   56 1  
    61   19   57 1  
    62   19   58 1  
    63   20   59 1  
    64   22   60 1  
    65   22   61 1  
    66   22   62 1  
    67   23   63 1  
    68   23   64 1  
    69   24   65 1  
    70   24   66 1  
    71   25   67 1  
    72   27   68 1  
    73   27   69 1  
    74   27   70 1  
    75   28   71 1  
    76   28   72 1  
    77   29   73 1  
    78   29   74 1  
    79   30   75 1  
    80   31   76 1  
    81   33   77 1  
    82   33   78 1  
    83   33   79 1  
    84   34   80 1  
    85   34   81 1  
    86   35   82 1  
@<TRIPOS>SUBSTRUCTURE
     1 5VN         1

