### 
### Created by X-TOOL on Mon Sep 10 21:13:28 2018
### 

@<TRIPOS>MOLECULE
5f9e_ligand
   51    55     1     0     0
SMALL
GAST_HUCK


@<TRIPOS>ATOM
      1 C5         27.5710   75.9420   26.1110 C.2       1 5VS         0.1890
      2 C7         26.7780   76.1720   27.3550 C.ar      1 5VS         0.0534
      3 C8         25.8710   75.2110   27.8380 C.ar      1 5VS        -0.0636
      4 C10        25.2790   76.6790   29.6480 C.ar      1 5VS         0.0870
      5 C15        26.7530   80.6150   27.9860 C.ar      1 5VS        -0.0212
      6 C17        25.6350   82.5460   28.8840 C.ar      1 5VS        -0.0685
      7 C20        25.7030   80.3850   27.1350 C.ar      1 5VS        -0.0584
      8 C22        24.0770   78.2130   31.2230 C.ar      1 5VS         0.1454
      9 C24        23.4980   80.5350   31.3350 C.ar      1 5VS        -0.0625
     10 C1         30.1240   77.4070   27.3080 C.3       1 5VS        -0.0178
     11 C2         28.9130   77.9240   26.5810 C.3       1 5VS         0.1300
     12 C3         29.3400   79.1220   25.6800 C.3       1 5VS        -0.0178
     13 N4         28.5360   76.7900   25.7600 N.am      1 5VS        -0.2651
     14 O6         27.3650   75.0350   25.3410 O.2       1 5VS        -0.3982
     15 C9         25.1290   75.4710   28.9660 C.ar      1 5VS        -0.0416
     16 C11        26.2020   77.6280   29.1860 C.ar      1 5VS        -0.0126
     17 C12        26.9460   77.4000   28.0420 C.ar      1 5VS         0.0537
     18 N13        27.8520   78.3460   27.5250 N.pl3     1 5VS        -0.2709
     19 C14        27.9700   79.7260   28.0140 C.3       1 5VS         0.0639
     20 C16        26.7320   81.6930   28.8700 C.ar      1 5VS        -0.0584
     21 C18        24.5820   82.3160   28.0170 C.ar      1 5VS        -0.0687
     22 C19        24.6020   81.2360   27.1450 C.ar      1 5VS        -0.0685
     23 N21        24.5650   76.9520   30.8250 N.am      1 5VS        -0.1485
     24 C23        24.0980   79.4660   30.6510 C.ar      1 5VS        -0.0286
     25 C25        22.8990   80.3080   32.5770 C.ar      1 5VS        -0.0217
     26 N26        22.8940   79.0790   33.1110 N.ar      1 5VS        -0.2988
     27 C27        23.4550   78.0400   32.4790 C.ar      1 5VS         0.1712
     28 N28        23.5710   76.6810   32.8030 N.am      1 5VS        -0.1973
     29 C30        24.2400   76.0590   31.8050 C.2       1 5VS         0.3445
     30 O31        24.5010   74.8680   31.7940 O.2       1 5VS        -0.3803
     31 H1         25.7571   74.2652   27.3207 H         1 5VS         0.0603
     32 H2         25.6047   83.3854   29.5693 H         1 5VS         0.0599
     33 H3         25.7304   79.5412   26.4551 H         1 5VS         0.0557
     34 H4         23.4993   81.5292   30.9030 H         1 5VS         0.0542
     35 H5         30.8885   77.1039   26.5775 H         1 5VS         0.0275
     36 H6         29.8403   76.5401   27.9228 H         1 5VS         0.0275
     37 H7         30.5289   78.1989   27.9553 H         1 5VS         0.0275
     38 H8         28.4612   79.5084   25.1430 H         1 5VS         0.0275
     39 H9         30.0940   78.7842   24.9539 H         1 5VS         0.0275
     40 H10        29.7660   79.9189   26.3072 H         1 5VS         0.0275
     41 H11        29.0189   76.6389   24.8975 H         1 5VS         0.1861
     42 H12        24.4228   74.7325   29.3279 H         1 5VS         0.0438
     43 H13        26.3347   78.5542   29.7333 H         1 5VS         0.0424
     44 H14        28.3051   79.6702   29.0602 H         1 5VS         0.0681
     45 H15        28.7437   80.2186   27.4068 H         1 5VS         0.0681
     46 H16        27.5654   81.8645   29.5416 H         1 5VS         0.0557
     47 H17        23.7308   82.9872   28.0185 H         1 5VS         0.0559
     48 H18        23.7669   81.0571   26.4774 H         1 5VS         0.0599
     49 H19        24.5703   79.6240   29.6882 H         1 5VS         0.0588
     50 H20        22.4362   81.1300   33.1110 H         1 5VS         0.0652
     51 H21        23.2189   76.2452   33.6313 H         1 5VS         0.2314
@<TRIPOS>BOND
     1    2    1 1  
     2   13    1 am 
     3    1   14 2  
     4    2    3 ar 
     5   17    2 ar 
     6    3   15 ar 
     7    4   15 ar 
     8   16    4 ar 
     9    4   23 1  
    10    5    7 ar 
    11   19    5 1  
    12    5   20 ar 
    13   20    6 ar 
    14    6   21 ar 
    15    7   22 ar 
    16   23    8 1  
    17    8   24 ar 
    18    8   27 ar 
    19   24    9 ar 
    20    9   25 ar 
    21   11   10 1  
    22   11   12 1  
    23   11   13 1  
    24   18   11 1  
    25   17   16 ar 
    26   18   17 1  
    27   18   19 1  
    28   21   22 ar 
    29   23   29 am 
    30   25   26 ar 
    31   26   27 ar 
    32   27   28 1  
    33   28   29 am 
    34   29   30 2  
    35    3   31 1  
    36    6   32 1  
    37    7   33 1  
    38    9   34 1  
    39   10   35 1  
    40   10   36 1  
    41   10   37 1  
    42   12   38 1  
    43   12   39 1  
    44   12   40 1  
    45   13   41 1  
    46   15   42 1  
    47   16   43 1  
    48   19   44 1  
    49   19   45 1  
    50   20   46 1  
    51   21   47 1  
    52   22   48 1  
    53   24   49 1  
    54   25   50 1  
    55   28   51 1  
@<TRIPOS>SUBSTRUCTURE
     1 5VS         1

