### 
### Created by X-TOOL on Mon Sep 10 21:13:27 2018
### 

@<TRIPOS>MOLECULE
5fa7_ligand
   40    40     1     0     0
SMALL
GAST_HUCK


@<TRIPOS>ATOM
      1 OAL        26.0250   -1.2270   20.3510 O.co2     1 5VR        -0.4578
      2 SAI        25.4520   -1.1480   21.5160 S.o2      1 5VR        -0.0327
      3 OAJ        24.1130   -1.5560   21.5210 O.co2     1 5VR        -0.4578
      4 OAK        25.7040    0.0450   22.1630 O.co2     1 5VR        -0.4578
      5 OAH        26.1690   -2.3580   22.5230 O.3       1 5VR        -0.2008
      6 NAG        26.0380   -3.5240   22.2520 N.4       1 5VR         0.4160
      7 CAE        27.0660   -4.4510   22.6510 C.3       1 5VR         0.0516
      8 CAF        28.3740   -4.1720   21.9450 C.3       1 5VR         0.0036
      9 CB         28.2330   -4.2840   20.4480 C.3       1 5VR         0.0134
     10 CAD        26.7000   -5.8760   22.2820 C.3       1 5VR         0.0176
     11 N          26.5180   -5.8590   20.8410 N.4       1 5VR         0.2774
     12 CAM        25.2110   -5.7900   20.1780 C.3       1 5VR         0.0739
     13 OAN        25.2380   -5.3100   19.1080 O.3       1 5VR        -0.3556
     14 CA         27.7280   -5.6050   20.0740 C.3       1 5VR         0.0731
     15 C          28.8520   -6.6260   20.2250 C.2       1 5VR         0.2456
     16 O          28.8090   -7.5480   20.9920 O.2       1 5VR        -0.3889
     17 NAQ        29.8740   -6.3870   19.4130 N.am      1 5VR        -0.1778
     18 NAR        31.0370   -7.1330   19.3950 N.am      1 5VR        -0.1826
     19 CAS        31.1070   -8.3350   18.8300 C.2       1 5VR         0.1939
     20 OAU        30.1700   -8.8560   18.3130 O.2       1 5VR        -0.3954
     21 CAT        32.4480   -9.0060   18.9030 C.3       1 5VR         0.0275
     22 H1         25.9555   -3.5873   21.2494 H         1 5VR         0.2384
     23 H2         25.1791   -3.8326   22.6800 H         1 5VR         0.2384
     24 H3         27.2066   -4.3722   23.7391 H         1 5VR         0.0915
     25 H4         29.1263   -4.8977   22.2877 H         1 5VR         0.0325
     26 H5         28.7053   -3.1538   22.1969 H         1 5VR         0.0325
     27 H6         29.2160   -4.1274   19.9799 H         1 5VR         0.0347
     28 H7         27.5310   -3.5152   20.0928 H         1 5VR         0.0347
     29 H8         25.7697   -6.1784   22.7851 H         1 5VR         0.0872
     30 H9         27.5091   -6.5671   22.5609 H         1 5VR         0.0872
     31 H10        26.5700   -6.8618   20.7525 H         1 5VR         0.2084
     32 H11        24.5364   -5.1911   20.8074 H         1 5VR         0.1147
     33 H12        24.8162   -6.8127   20.0871 H         1 5VR         0.1147
     34 H13        25.8086   -5.8219   18.5468 H         1 5VR         0.2151
     35 H14        27.4449   -5.5889   19.0112 H         1 5VR         0.1101
     36 H15        29.7979   -5.6204   18.7754 H         1 5VR         0.2167
     37 H16        31.8576   -6.7546   19.8233 H         1 5VR         0.2165
     38 H17        32.3944   -9.9872   18.4087 H         1 5VR         0.0467
     39 H18        32.7334   -9.1413   19.9566 H         1 5VR         0.0467
     40 H19        33.1987   -8.3812   18.3971 H         1 5VR         0.0467
@<TRIPOS>BOND
     1    1    2 ar 
     2    2    3 ar 
     3    2    4 ar 
     4    2    5 1  
     5    5    6 1  
     6    6    7 1  
     7    7    8 1  
     8    7   10 1  
     9    8    9 1  
    10    9   14 1  
    11   10   11 1  
    12   11   12 1  
    13   11   14 1  
    14   12   13 1  
    15   14   15 1  
    16   15   16 2  
    17   15   17 am 
    18   17   18 1  
    19   18   19 am 
    20   19   20 2  
    21   19   21 1  
    22    6   22 1  
    23    6   23 1  
    24    7   24 1  
    25    8   25 1  
    26    8   26 1  
    27    9   27 1  
    28    9   28 1  
    29   10   29 1  
    30   10   30 1  
    31   11   31 1  
    32   12   32 1  
    33   12   33 1  
    34   13   34 1  
    35   14   35 1  
    36   17   36 1  
    37   18   37 1  
    38   21   38 1  
    39   21   39 1  
    40   21   40 1  
@<TRIPOS>SUBSTRUCTURE
     1 5VR         1

