### 
### Created by X-TOOL on Mon Sep 10 21:13:28 2018
### 

@<TRIPOS>MOLECULE
5fah_ligand
   61    64     1     0     0
SMALL
GAST_HUCK


@<TRIPOS>ATOM
      1 C2         14.5200   14.0510   40.6290 C.3       1 5VT         0.0390
      2 C3         15.8750   13.1030   38.8180 C.2       1 5VT         0.2017
      3 C13        15.8010   12.6300   33.4560 C.3       1 5VT         0.0671
      4 C14        15.7030   14.0550   32.8790 C.ar      1 5VT        -0.0106
      5 C15        15.5500   16.6570   31.7910 C.ar      1 5VT        -0.0631
      6 C16        16.0690   16.4600   33.0720 C.ar      1 5VT        -0.0706
      7 C17        16.1630   15.1560   33.6140 C.ar      1 5VT        -0.0588
      8 C18        15.1190   15.5510   31.0250 C.ar      1 5VT        -0.0242
      9 C19        15.1860   14.2380   31.5820 C.ar      1 5VT        -0.0103
     10 C20        14.7030   13.1820   30.7900 C.ar      1 5VT        -0.0548
     11 C21        14.1470   13.3950   29.5230 C.ar      1 5VT        -0.0625
     12 C22        14.0950   14.6900   29.0040 C.ar      1 5VT        -0.0629
     13 C23        14.5420   15.7690   29.7620 C.ar      1 5VT        -0.0569
     14 C24        15.5340   14.6930   41.6000 C.3       1 5VT        -0.0040
     15 C25        14.9170   15.9630   42.1950 C.ar      1 5VT        -0.0518
     16 C26        15.1370   17.2130   41.6070 C.ar      1 5VT        -0.0687
     17 C27        13.7110   18.2570   43.2960 C.ar      1 5VT         0.0837
     18 C28        13.4870   17.0050   43.8800 C.ar      1 5VT        -0.0396
     19 C29        14.5360   18.3660   42.1600 C.ar      1 5VT        -0.0396
     20 C30        14.0910   15.8680   43.3170 C.ar      1 5VT        -0.0687
     21 N1         15.1300   12.9370   39.8940 N.am      1 5VT        -0.2833
     22 C4         16.4750   11.8500   38.2270 C.3       1 5VT         0.1340
     23 N5         16.9790   12.0730   36.8880 N.am      1 5VT        -0.2379
     24 C6         17.7430   11.4080   39.0030 C.3       1 5VT        -0.0106
     25 C7         18.3900   11.7310   36.7290 C.3       1 5VT         0.0372
     26 C8         18.6440   10.7940   37.9330 C.3       1 5VT        -0.0284
     27 O9         16.0750   14.2280   38.3170 O.2       1 5VT        -0.3946
     28 C10        16.0930   12.2820   35.8710 C.2       1 5VT         0.2642
     29 O11        14.8720   12.2330   36.0600 O.2       1 5VT        -0.4004
     30 N12        16.6160   12.5040   34.6500 N.am      1 5VT        -0.2607
     31 O31        13.1000   19.4030   43.8600 O.3       1 5VT        -0.3257
     32 C32        12.3880   19.4210   45.1120 C.3       1 5VT         0.0579
     33 H1         14.1779   14.8112   39.9113 H         1 5VT         0.0540
     34 H2         13.6601   13.6754   41.2030 H         1 5VT         0.0540
     35 H3         16.2289   11.9772   32.6809 H         1 5VT         0.0693
     36 H4         14.7836   12.2907   33.7005 H         1 5VT         0.0693
     37 H5         15.4777   17.6591   31.3840 H         1 5VT         0.0542
     38 H6         16.4020   17.3110   33.6551 H         1 5VT         0.0595
     39 H7         16.5913   15.0087   34.5988 H         1 5VT         0.0530
     40 H8         14.7630   12.1696   31.1728 H         1 5VT         0.0628
     41 H9         13.7598   12.5608   28.9493 H         1 5VT         0.0601
     42 H10        13.7049   14.8562   28.0064 H         1 5VT         0.0616
     43 H11        14.4449   16.7780   29.3778 H         1 5VT         0.0609
     44 H12        16.4546   14.9501   41.0555 H         1 5VT         0.0425
     45 H13        15.7712   13.9847   42.4075 H         1 5VT         0.0425
     46 H14        15.7672   17.2969   40.7290 H         1 5VT         0.0530
     47 H15        12.8552   16.9135   44.7561 H         1 5VT         0.0525
     48 H16        14.7103   19.3362   41.7090 H         1 5VT         0.0525
     49 H17        13.9120   14.8964   43.7631 H         1 5VT         0.0530
     50 H18        14.9733   12.0065   40.2250 H         1 5VT         0.1853
     51 H19        15.7169   11.0530   38.2301 H         1 5VT         0.0799
     52 H20        17.4895   10.6643   39.7728 H         1 5VT         0.0313
     53 H21        18.2322   12.2726   39.4753 H         1 5VT         0.0313
     54 H22        19.0250   12.6276   36.7821 H         1 5VT         0.0521
     55 H23        18.5683   11.2112   35.7761 H         1 5VT         0.0521
     56 H24        18.3473    9.7596   37.7049 H         1 5VT         0.0287
     57 H25        19.7002   10.8134   38.2396 H         1 5VT         0.0287
     58 H26        17.6088   12.5855   34.5624 H         1 5VT         0.1874
     59 H27        12.0176   20.4379   45.3085 H         1 5VT         0.0575
     60 H28        13.0647   19.1142   45.9231 H         1 5VT         0.0575
     61 H29        11.5380   18.7247   45.0605 H         1 5VT         0.0575
@<TRIPOS>BOND
     1    1   14 1  
     2   21    1 1  
     3    2   21 am 
     4   22    2 1  
     5    2   27 2  
     6    3    4 1  
     7   30    3 1  
     8    4    7 ar 
     9    4    9 ar 
    10    6    5 ar 
    11    8    5 ar 
    12    7    6 ar 
    13    9    8 ar 
    14    8   13 ar 
    15    9   10 ar 
    16   10   11 ar 
    17   11   12 ar 
    18   13   12 ar 
    19   14   15 1  
    20   15   16 ar 
    21   15   20 ar 
    22   16   19 ar 
    23   18   17 ar 
    24   19   17 ar 
    25   17   31 1  
    26   20   18 ar 
    27   23   22 1  
    28   22   24 1  
    29   23   25 1  
    30   28   23 am 
    31   26   24 1  
    32   25   26 1  
    33   28   29 2  
    34   28   30 am 
    35   31   32 1  
    36    1   33 1  
    37    1   34 1  
    38    3   35 1  
    39    3   36 1  
    40    5   37 1  
    41    6   38 1  
    42    7   39 1  
    43   10   40 1  
    44   11   41 1  
    45   12   42 1  
    46   13   43 1  
    47   14   44 1  
    48   14   45 1  
    49   16   46 1  
    50   18   47 1  
    51   19   48 1  
    52   20   49 1  
    53   21   50 1  
    54   22   51 1  
    55   24   52 1  
    56   24   53 1  
    57   25   54 1  
    58   25   55 1  
    59   26   56 1  
    60   26   57 1  
    61   30   58 1  
    62   32   59 1  
    63   32   60 1  
    64   32   61 1  
@<TRIPOS>SUBSTRUCTURE
     1 5VT         1

