### 
### Created by X-TOOL on Mon Sep 10 21:13:29 2018
### 

@<TRIPOS>MOLECULE
5fao_ligand
   44    45     1     0     0
SMALL
GAST_HUCK


@<TRIPOS>ATOM
      1 OAL       -17.0390  -11.9420   39.7190 O.co2     1 5VW        -0.4578
      2 SAI       -17.0690  -13.3750   39.7970 S.o2      1 5VW        -0.0327
      3 OAJ       -16.4780  -13.6750   41.0610 O.co2     1 5VW        -0.4578
      4 OAK       -18.4620  -13.6950   39.9690 O.co2     1 5VW        -0.4578
      5 OAH       -16.4090  -14.0770   38.6190 O.3       1 5VW        -0.2010
      6 NAG       -15.0470  -14.0690   38.8310 N.4       1 5VW         0.4138
      7 CAE       -14.4700  -15.2240   38.2500 C.3       1 5VW         0.0316
      8 CAF       -14.6780  -16.4200   39.1810 C.3       1 5VW        -0.0025
      9 CB        -13.9200  -16.2520   40.4910 C.3       1 5VW        -0.0069
     10 CAD       -12.9730  -14.9780   38.0090 C.3       1 5VW         0.0807
     11 N         -12.5350  -14.7490   39.3720 N.am      1 5VW        -0.2479
     12 CAP       -12.1940  -13.5200   39.7710 C.2       1 5VW         0.1743
     13 OAQ       -11.8180  -13.3190   40.9370 O.2       1 5VW        -0.3828
     14 CA        -12.4730  -15.8610   40.2870 C.3       1 5VW         0.1359
     15 C         -11.6460  -16.9990   39.7480 C.2       1 5VW         0.2250
     16 O         -11.7380  -17.3130   38.5910 O.2       1 5VW        -0.3944
     17 NAN       -10.7500  -17.7080   40.6120 N.am      1 5VW        -0.1589
     18 OAR        -9.9850  -18.7630   40.1080 O.3       1 5VW        -0.2477
     19 CAS        -8.6520  -18.7420   40.7070 C.3       1 5VW         0.1342
     20 CAW        -8.7720  -18.8190   42.1700 C.3       1 5VW         0.0216
     21 CAV        -8.2210  -20.2230   42.5560 C.3       1 5VW        -0.0309
     22 NAU        -7.3080  -20.5670   41.4000 N.4       1 5VW         0.2290
     23 CAT        -7.8700  -19.9040   40.2180 C.3       1 5VW        -0.0037
     24 H1        -14.8616  -14.0634   39.8218 H         1 5VW         0.2382
     25 H2        -14.6465  -13.2456   38.4095 H         1 5VW         0.2382
     26 H3        -14.9596  -15.4298   37.2867 H         1 5VW         0.0882
     27 H4        -14.3215  -17.3304   38.6770 H         1 5VW         0.0323
     28 H5        -15.7514  -16.5187   39.4003 H         1 5VW         0.0323
     29 H6        -13.9522  -17.2047   41.0400 H         1 5VW         0.0314
     30 H7        -14.4147  -15.4695   41.0851 H         1 5VW         0.0314
     31 H8        -12.8009  -14.0984   37.3714 H         1 5VW         0.0583
     32 H9        -12.4812  -15.8555   37.5638 H         1 5VW         0.0583
     33 H10       -12.2463  -12.6893   39.0687 H         1 5VW         0.1547
     34 H11       -12.0340  -15.5365   41.2420 H         1 5VW         0.0803
     35 H12       -10.6721  -17.4482   41.5745 H         1 5VW         0.2220
     36 H13        -8.1388  -17.8099   40.4283 H         1 5VW         0.0682
     37 H14        -9.8241  -18.7210   42.4757 H         1 5VW         0.0345
     38 H15        -8.1762  -18.0271   42.6474 H         1 5VW         0.0345
     39 H16        -9.0366  -20.9556   42.6457 H         1 5VW         0.0815
     40 H17        -7.6607  -20.1803   43.5016 H         1 5VW         0.0815
     41 H18        -7.2823  -21.5650   41.2608 H         1 5VW         0.2014
     42 H19        -6.3756  -20.2286   41.5793 H         1 5VW         0.2014
     43 H20        -7.0611  -19.5636   39.5548 H         1 5VW         0.0840
     44 H21        -8.5253  -20.5978   39.6709 H         1 5VW         0.0840
@<TRIPOS>BOND
     1    1    2 ar 
     2    2    3 ar 
     3    2    4 ar 
     4    2    5 1  
     5    5    6 1  
     6    6    7 1  
     7    7    8 1  
     8    7   10 1  
     9    8    9 1  
    10    9   14 1  
    11   10   11 1  
    12   11   12 am 
    13   11   14 1  
    14   12   13 2  
    15   14   15 1  
    16   15   16 2  
    17   15   17 am 
    18   17   18 1  
    19   18   19 1  
    20   19   20 1  
    21   19   23 1  
    22   20   21 1  
    23   21   22 1  
    24   22   23 1  
    25    6   24 1  
    26    6   25 1  
    27    7   26 1  
    28    8   27 1  
    29    8   28 1  
    30    9   29 1  
    31    9   30 1  
    32   10   31 1  
    33   10   32 1  
    34   12   33 1  
    35   14   34 1  
    36   17   35 1  
    37   19   36 1  
    38   20   37 1  
    39   20   38 1  
    40   21   39 1  
    41   21   40 1  
    42   22   41 1  
    43   22   42 1  
    44   23   43 1  
    45   23   44 1  
@<TRIPOS>SUBSTRUCTURE
     1 5VW         1

