### 
### Created by X-TOOL on Mon Sep 10 21:13:28 2018
### 

@<TRIPOS>MOLECULE
5fap_ligand
   44    45     1     0     0
SMALL
GAST_HUCK


@<TRIPOS>ATOM
      1 OAL        12.7750    0.3250   21.5250 O.co2     1 602        -0.4578
      2 SAI        13.4870    0.7150   22.6490 S.o2      1 602        -0.0327
      3 OAJ        13.1230   -0.0070   23.7940 O.co2     1 602        -0.4578
      4 OAK        14.8230    0.8590   22.4890 O.co2     1 602        -0.4578
      5 OAH        12.8260    2.1190   22.6880 O.3       1 602        -0.2010
      6 NAG        12.5010    2.5700   23.8320 N.4       1 602         0.4138
      7 CAE        11.7340    3.6580   23.7600 C.3       1 602         0.0316
      8 CAF        10.4500    3.3710   22.9890 C.3       1 602        -0.0025
      9 CB         10.5250    3.6890   21.4970 C.3       1 602        -0.0068
     10 CAD        12.4060    4.9720   23.4060 C.3       1 602         0.0807
     11 N          12.4910    4.9790   21.9650 N.am      1 602        -0.2478
     12 CAM        13.7050    4.9230   21.3430 C.2       1 602         0.1743
     13 OAN        13.6860    4.8150   20.2070 O.2       1 602        -0.3828
     14 CA         11.2100    4.9850   21.2350 C.3       1 602         0.1361
     15 C          10.1920    6.0680   21.5910 C.2       1 602         0.2230
     16 O          10.4840    7.0000   22.3030 O.2       1 602        -0.3925
     17 NAQ         8.9560    5.9310   21.1440 N.am      1 602        -0.1805
     18 NAR         8.4380    6.5020   20.0070 N.am      1 602        -0.1819
     19 CAS         8.0860    7.7660   19.8350 C.2       1 602         0.2104
     20 OAU         8.6530    8.4680   19.0240 O.2       1 602        -0.3944
     21 CAT         6.9010    8.2530   20.5920 C.3       1 602         0.1295
     22 CAV         6.7930    9.7470   20.9790 C.3       1 602        -0.0085
     23 NAW         5.3660    9.7320   20.5090 N.4       1 602         0.2310
     24 CAX         5.6940    8.5330   19.6660 C.3       1 602        -0.0085
     25 H1         13.3417    2.8017   24.3375 H         1 602         0.2382
     26 H2         11.9966    1.8529   24.3294 H         1 602         0.2382
     27 H3         11.4027    3.8168   24.7968 H         1 602         0.0882
     28 H4          9.6424    3.9744   23.4291 H         1 602         0.0323
     29 H5         10.2127    2.3028   23.1015 H         1 602         0.0323
     30 H6          9.5031    3.7399   21.0932 H         1 602         0.0314
     31 H7         11.0799    2.8856   20.9904 H         1 602         0.0314
     32 H8         13.4104    5.0237   23.8516 H         1 602         0.0583
     33 H9         11.8033    5.8211   23.7607 H         1 602         0.0583
     34 H10        14.6393    4.9783   21.8997 H         1 602         0.1547
     35 H11        11.4410    5.0770   20.1635 H         1 602         0.0805
     36 H12         8.3398    5.3578   21.6842 H         1 602         0.2166
     37 H13         8.3130    5.8951   19.2221 H         1 602         0.2165
     38 H14         6.7076    7.5654   21.4286 H         1 602         0.0646
     39 H15         7.4531   10.4136   20.4045 H         1 602         0.0844
     40 H16         6.9148    9.9475   22.0537 H         1 602         0.0844
     41 H17         5.0919   10.5477   19.9840 H         1 602         0.2017
     42 H18         4.6900    9.5575   21.2360 H         1 602         0.2017
     43 H19         4.9237    7.7478   19.6746 H         1 602         0.0844
     44 H20         5.9648    8.7696   18.6265 H         1 602         0.0844
@<TRIPOS>BOND
     1    1    2 ar 
     2    2    3 ar 
     3    2    4 ar 
     4    2    5 1  
     5    5    6 1  
     6    6    7 1  
     7    7    8 1  
     8    7   10 1  
     9    8    9 1  
    10    9   14 1  
    11   10   11 1  
    12   11   12 am 
    13   11   14 1  
    14   12   13 2  
    15   14   15 1  
    16   15   16 2  
    17   15   17 am 
    18   17   18 1  
    19   18   19 am 
    20   19   20 2  
    21   19   21 1  
    22   21   22 1  
    23   21   24 1  
    24   22   23 1  
    25   23   24 1  
    26    6   25 1  
    27    6   26 1  
    28    7   27 1  
    29    8   28 1  
    30    8   29 1  
    31    9   30 1  
    32    9   31 1  
    33   10   32 1  
    34   10   33 1  
    35   12   34 1  
    36   14   35 1  
    37   17   36 1  
    38   18   37 1  
    39   21   38 1  
    40   22   39 1  
    41   22   40 1  
    42   23   41 1  
    43   23   42 1  
    44   24   43 1  
    45   24   44 1  
@<TRIPOS>SUBSTRUCTURE
     1 602         1

