### 
### Created by X-TOOL on Mon Sep 10 21:13:27 2018
### 

@<TRIPOS>MOLECULE
5faq_ligand
   44    45     1     0     0
SMALL
GAST_HUCK


@<TRIPOS>ATOM
      1 OAL        12.0240   18.8360    0.2010 O.co2     1 5VW        -0.4578
      2 SAI        10.6280   19.1420    0.0290 S.o2      1 5VW        -0.0327
      3 OAJ        10.0060   19.5850    1.2710 O.co2     1 5VW        -0.4578
      4 OAK        10.4560   20.3400   -0.7460 O.co2     1 5VW        -0.4578
      5 OAH         9.8000   17.9270   -0.3580 O.3       1 5VW        -0.2010
      6 NAG         8.5290   18.0350   -0.5490 N.4       1 5VW         0.4138
      7 CAE         7.8370   17.1400   -1.4890 C.3       1 5VW         0.0316
      8 CAF         8.3570   17.3100   -2.8670 C.3       1 5VW        -0.0025
      9 CB          8.0840   18.5910   -3.4070 C.3       1 5VW        -0.0069
     10 CAD         6.3440   17.4470   -1.4560 C.3       1 5VW         0.0807
     11 N           6.2570   18.7790   -1.9040 N.am      1 5VW        -0.2479
     12 CAP         6.1080   19.7480   -0.9640 C.2       1 5VW         0.1743
     13 OAQ         6.2060   20.9040   -1.2670 O.2       1 5VW        -0.3828
     14 CA          6.6340   18.9790   -3.3070 C.3       1 5VW         0.1359
     15 C           5.8220   18.3270   -4.2990 C.2       1 5VW         0.2250
     16 O           4.6510   18.2010   -4.0960 O.2       1 5VW        -0.3944
     17 NAN         6.3660   17.9890   -5.4690 N.am      1 5VW        -0.1589
     18 OAR         5.6970   17.5380   -6.3280 O.3       1 5VW        -0.2477
     19 CAS         5.3840   16.1740   -6.1940 C.3       1 5VW         0.1342
     20 CAW         4.5160   15.7000   -7.2940 C.3       1 5VW         0.0216
     21 CAV         5.4030   15.0930   -8.2860 C.3       1 5VW        -0.0309
     22 NAU         6.7290   15.4550   -7.8550 N.4       1 5VW         0.2290
     23 CAT         6.5790   15.3000   -6.4450 C.3       1 5VW        -0.0037
     24 H1          8.3642   18.9757   -0.8715 H         1 5VW         0.2382
     25 H2          8.0899   17.9059    0.3491 H         1 5VW         0.2382
     26 H3          7.9989   16.0981   -1.1756 H         1 5VW         0.0882
     27 H4          7.8923   16.5508   -3.5133 H         1 5VW         0.0323
     28 H5          9.4467   17.1611   -2.8514 H         1 5VW         0.0323
     29 H6          8.3739   18.5923   -4.4681 H         1 5VW         0.0314
     30 H7          8.6835   19.3352   -2.8622 H         1 5VW         0.0314
     31 H8          5.9484   17.3522   -0.4340 H         1 5VW         0.0583
     32 H9          5.7918   16.7726   -2.1270 H         1 5VW         0.0583
     33 H10         5.8987   19.4740    0.0690 H         1 5VW         0.1547
     34 H11         6.5546   20.0566   -3.5132 H         1 5VW         0.0803
     35 H12         7.3463   18.1189   -5.6180 H         1 5VW         0.2220
     36 H13         4.9376   15.9923   -5.2052 H         1 5VW         0.0682
     37 H14         3.9693   16.5447   -7.7385 H         1 5VW         0.0345
     38 H15         3.7984   14.9555   -6.9189 H         1 5VW         0.0345
     39 H16         5.1972   15.4949   -9.2890 H         1 5VW         0.0815
     40 H17         5.2830   13.9996   -8.2973 H         1 5VW         0.0815
     41 H18         6.9581   16.4042   -8.1051 H         1 5VW         0.2014
     42 H19         7.4274   14.8313   -8.2281 H         1 5VW         0.2014
     43 H20         6.3802   14.2533   -6.1713 H         1 5VW         0.0840
     44 H21         7.4652   15.6592   -5.9013 H         1 5VW         0.0840
@<TRIPOS>BOND
     1    1    2 ar 
     2    2    3 ar 
     3    2    4 ar 
     4    2    5 1  
     5    5    6 1  
     6    6    7 1  
     7    7    8 1  
     8    7   10 1  
     9    8    9 1  
    10    9   14 1  
    11   10   11 1  
    12   11   12 am 
    13   11   14 1  
    14   12   13 2  
    15   14   15 1  
    16   15   16 2  
    17   15   17 am 
    18   17   18 1  
    19   18   19 1  
    20   19   20 1  
    21   19   23 1  
    22   20   21 1  
    23   21   22 1  
    24   22   23 1  
    25    6   24 1  
    26    6   25 1  
    27    7   26 1  
    28    8   27 1  
    29    8   28 1  
    30    9   29 1  
    31    9   30 1  
    32   10   31 1  
    33   10   32 1  
    34   12   33 1  
    35   14   34 1  
    36   17   35 1  
    37   19   36 1  
    38   20   37 1  
    39   20   38 1  
    40   21   39 1  
    41   21   40 1  
    42   22   41 1  
    43   22   42 1  
    44   23   43 1  
    45   23   44 1  
@<TRIPOS>SUBSTRUCTURE
     1 5VW         1

