### 
### Created by X-TOOL on Mon Sep 10 21:13:26 2018
### 

@<TRIPOS>MOLECULE
5fas_ligand
   37    37     1     0     0
SMALL
GAST_HUCK


@<TRIPOS>ATOM
      1 OAL        10.4520   20.3900   -0.9200 O.co2     1 5VR        -0.4578
      2 SAI        10.4670   19.2880   -0.0980 S.o2      1 5VR        -0.0327
      3 OAJ        11.9040   18.9090   -0.0260 O.co2     1 5VR        -0.4578
      4 OAK         9.8690   19.3960    1.2390 O.co2     1 5VR        -0.4578
      5 OAH         9.7870   17.9450   -0.7930 O.3       1 5VR        -0.2010
      6 NAG         8.4730   17.9770   -0.9090 N.4       1 5VR         0.4138
      7 CAE         7.7560   17.0830   -1.8390 C.3       1 5VR         0.0316
      8 CAF         8.2020   17.3060   -3.2740 C.3       1 5VR        -0.0025
      9 CB          7.9240   18.7270   -3.7530 C.3       1 5VR        -0.0068
     10 CAD         6.2890   17.4450   -1.6400 C.3       1 5VR         0.0807
     11 N           6.2290   18.8620   -2.0130 N.am      1 5VR        -0.2478
     12 CAM         6.2180   19.8710   -1.0740 C.2       1 5VR         0.1743
     13 OAN         6.3460   21.0260   -1.3800 O.2       1 5VR        -0.3828
     14 CA          6.5140   19.1810   -3.4170 C.3       1 5VR         0.1361
     15 C           5.5030   18.6020   -4.4080 C.2       1 5VR         0.2230
     16 O           4.6820   17.7570   -4.0600 O.2       1 5VR        -0.3925
     17 NAQ         5.8320   18.7360   -5.6980 N.am      1 5VR        -0.1805
     18 NAR         5.1000   18.2560   -6.7800 N.am      1 5VR        -0.1826
     19 CAS         3.7820   18.4370   -6.9260 C.2       1 5VR         0.1939
     20 OAU         3.1840   19.3230   -6.3150 O.2       1 5VR        -0.3954
     21 CAT         3.1710   17.7430   -8.1110 C.3       1 5VR         0.0275
     22 H1          8.2349   18.9182   -1.1799 H         1 5VR         0.2382
     23 H2          8.1024   17.7876    0.0090 H         1 5VR         0.2382
     24 H3          7.9300   16.0304   -1.5711 H         1 5VR         0.0882
     25 H4          7.6636   16.6017   -3.9252 H         1 5VR         0.0323
     26 H5          9.2832   17.1151   -3.3420 H         1 5VR         0.0323
     27 H6          8.0578   18.7654   -4.8441 H         1 5VR         0.0314
     28 H7          8.6399   19.4094   -3.2715 H         1 5VR         0.0314
     29 H8          5.9880   17.3019   -0.5917 H         1 5VR         0.0583
     30 H9          5.6431   16.8395   -2.2929 H         1 5VR         0.0583
     31 H10         6.0895   19.6138   -0.0236 H         1 5VR         0.1547
     32 H11         6.4751   20.2755   -3.5198 H         1 5VR         0.0805
     33 H12         6.6799   19.2249   -5.9031 H         1 5VR         0.2166
     34 H13         5.5870   17.7464   -7.4894 H         1 5VR         0.2165
     35 H14         2.0916   17.9527   -8.1423 H         1 5VR         0.0467
     36 H15         3.3314   16.6583   -8.0235 H         1 5VR         0.0467
     37 H16         3.6427   18.1102   -9.0344 H         1 5VR         0.0467
@<TRIPOS>BOND
     1    1    2 ar 
     2    2    3 ar 
     3    2    4 ar 
     4    2    5 1  
     5    5    6 1  
     6    6    7 1  
     7    7    8 1  
     8    7   10 1  
     9    8    9 1  
    10    9   14 1  
    11   10   11 1  
    12   11   12 am 
    13   11   14 1  
    14   12   13 2  
    15   14   15 1  
    16   15   16 2  
    17   15   17 am 
    18   17   18 1  
    19   18   19 am 
    20   19   20 2  
    21   19   21 1  
    22    6   22 1  
    23    6   23 1  
    24    7   24 1  
    25    8   25 1  
    26    8   26 1  
    27    9   27 1  
    28    9   28 1  
    29   10   29 1  
    30   10   30 1  
    31   12   31 1  
    32   14   32 1  
    33   17   33 1  
    34   18   34 1  
    35   21   35 1  
    36   21   36 1  
    37   21   37 1  
@<TRIPOS>SUBSTRUCTURE
     1 5VR         1

