### 
### Created by X-TOOL on Mon Sep 10 21:13:27 2018
### 

@<TRIPOS>MOLECULE
5fat_ligand
   44    45     1     0     0
SMALL
GAST_HUCK


@<TRIPOS>ATOM
      1 OAL        10.3910   20.3140   -0.9340 O.co2     1 602        -0.4578
      2 SAI        10.6880   19.1960   -0.0800 S.o2      1 602        -0.0327
      3 OAJ        10.0740   19.4200    1.2060 O.co2     1 602        -0.4578
      4 OAK        12.0670   18.7540   -0.1120 O.co2     1 602        -0.4578
      5 OAH         9.8280   17.7960   -0.7130 O.3       1 602        -0.2010
      6 NAG         8.5840   18.0120   -1.0920 N.4       1 602         0.4138
      7 CAE         7.8540   17.0180   -1.8570 C.3       1 602         0.0316
      8 CAF         8.1750   17.1440   -3.3340 C.3       1 602        -0.0025
      9 CB          8.0560   18.5930   -3.8090 C.3       1 602        -0.0068
     10 CAD         6.4150   17.4670   -1.6600 C.3       1 602         0.0807
     11 N           6.3880   18.8710   -2.0860 N.am      1 602        -0.2478
     12 CAM         6.4280   19.9010   -1.1470 C.2       1 602         0.1743
     13 OAN         6.4220   21.0590   -1.4320 O.2       1 602        -0.3828
     14 CA          6.6770   19.1360   -3.5030 C.3       1 602         0.1361
     15 C           5.6020   18.6350   -4.4700 C.2       1 602         0.2230
     16 O           4.6750   17.9580   -4.0490 O.2       1 602        -0.3925
     17 NAQ         5.7100   18.9050   -5.7720 N.am      1 602        -0.1805
     18 NAR         4.8600   18.4510   -6.7750 N.am      1 602        -0.1819
     19 CAS         3.7850   17.6550   -6.7360 C.2       1 602         0.2104
     20 OAU         3.3730   17.1390   -5.7020 O.2       1 602        -0.3944
     21 CAT         3.1220   17.3880   -8.0680 C.3       1 602         0.1295
     22 CAV         3.7430   16.1790   -8.8100 C.3       1 602        -0.0085
     23 NAW         4.4070   17.1710   -9.7290 N.4       1 602         0.2310
     24 CAX         3.4140   18.2320   -9.3320 C.3       1 602        -0.0085
     25 H1          8.5957   18.8515   -1.6498 H         1 602         0.2382
     26 H2          8.0521   18.1745   -0.2514 H         1 602         0.2382
     27 H3          8.0373   15.9953   -1.4959 H         1 602         0.0882
     28 H4          7.4731   16.5206   -3.9073 H         1 602         0.0323
     29 H5          9.2031   16.7936   -3.5081 H         1 602         0.0323
     30 H6          8.2292   18.6342   -4.8945 H         1 602         0.0314
     31 H7          8.8098   19.2065   -3.2939 H         1 602         0.0314
     32 H8          6.1249   17.3792   -0.6026 H         1 602         0.0583
     33 H9          5.7345   16.8632   -2.2783 H         1 602         0.0583
     34 H10         6.4670   19.6325   -0.0923 H         1 602         0.1547
     35 H11         6.7176   20.2281   -3.6283 H         1 602         0.0805
     36 H12         6.4726   19.4877   -6.0528 H         1 602         0.2166
     37 H13         5.0945   18.7785   -7.6903 H         1 602         0.2165
     38 H14         2.0419   17.2944   -7.8818 H         1 602         0.0646
     39 H15         3.0137   15.5167   -9.2994 H         1 602         0.0844
     40 H16         4.4375   15.5768   -8.2057 H         1 602         0.0844
     41 H17         4.3660   16.9167  -10.7035 H         1 602         0.2017
     42 H18         5.3589   17.3874   -9.4780 H         1 602         0.2017
     43 H19         3.8536   19.2204   -9.1325 H         1 602         0.0844
     44 H20         2.5610   18.3418  -10.0177 H         1 602         0.0844
@<TRIPOS>BOND
     1    1    2 ar 
     2    2    3 ar 
     3    2    4 ar 
     4    2    5 1  
     5    5    6 1  
     6    6    7 1  
     7    7    8 1  
     8    7   10 1  
     9    8    9 1  
    10    9   14 1  
    11   10   11 1  
    12   11   12 am 
    13   11   14 1  
    14   12   13 2  
    15   14   15 1  
    16   15   16 2  
    17   15   17 am 
    18   17   18 1  
    19   18   19 am 
    20   19   20 2  
    21   19   21 1  
    22   21   22 1  
    23   21   24 1  
    24   22   23 1  
    25   23   24 1  
    26    6   25 1  
    27    6   26 1  
    28    7   27 1  
    29    8   28 1  
    30    8   29 1  
    31    9   30 1  
    32    9   31 1  
    33   10   32 1  
    34   10   33 1  
    35   12   34 1  
    36   14   35 1  
    37   17   36 1  
    38   18   37 1  
    39   21   38 1  
    40   22   39 1  
    41   22   40 1  
    42   23   41 1  
    43   23   42 1  
    44   24   43 1  
    45   24   44 1  
@<TRIPOS>SUBSTRUCTURE
     1 602         1

