### 
### Created by X-TOOL on Mon Sep 10 21:13:28 2018
### 

@<TRIPOS>MOLECULE
5fb7_ligand
   53    52     1     0     0
SMALL
GAST_HUCK


@<TRIPOS>ATOM
      1 C1        -29.0630   12.5390  -17.6250 C.2       1 ACD         0.0349
      2 C2        -27.9920   12.1700  -16.6410 C.3       1 ACD         0.0018
      3 C3        -27.0200   13.2810  -16.3510 C.3       1 ACD        -0.0347
      4 C4        -27.4810   14.2810  -15.3270 C.3       1 ACD        -0.0345
      5 C5        -27.2610   13.5840  -14.0530 C.2       1 ACD        -0.0966
      6 C6        -26.3260   13.9020  -13.2020 C.2       1 ACD        -0.0908
      7 C7        -25.3940   15.0340  -13.3410 C.3       1 ACD        -0.0199
      8 C8        -25.9420   15.9850  -12.3600 C.2       1 ACD        -0.0890
      9 C9        -25.5310   17.2210  -12.2440 C.2       1 ACD        -0.0889
     10 C10       -24.4060   17.7760  -13.0710 C.3       1 ACD        -0.0195
     11 C11       -24.7970   19.1320  -13.5500 C.2       1 ACD        -0.0889
     12 C12       -24.4360   20.3060  -13.0700 C.2       1 ACD        -0.0890
     13 C13       -23.5940   20.5120  -11.8860 C.3       1 ACD        -0.0199
     14 C14       -24.1840   21.6550  -11.1070 C.2       1 ACD        -0.0908
     15 C15       -23.5020   22.2940  -10.1950 C.2       1 ACD        -0.0967
     16 C16       -22.1030   21.9120   -9.8200 C.3       1 ACD        -0.0360
     17 C17       -21.1390   23.0370  -10.0710 C.3       1 ACD        -0.0463
     18 C18       -19.8960   22.8710   -9.2360 C.3       1 ACD        -0.0517
     19 C19       -18.7970   23.6700   -9.8830 C.3       1 ACD        -0.0558
     20 C20       -17.9610   24.3090   -8.8230 C.3       1 ACD        -0.0653
     21 O1        -29.8140   11.6280  -18.0400 O.co2     1 ACD        -0.5690
     22 O2        -29.1310   13.7180  -17.9770 O.co2     1 ACD        -0.5690
     23 H1        -27.4300   11.3153  -17.0454 H         1 ACD         0.0432
     24 H2        -28.4751   11.8776  -15.6970 H         1 ACD         0.0432
     25 H3        -26.8278   13.8196  -17.2907 H         1 ACD         0.0303
     26 H4        -26.0845   12.8295  -15.9892 H         1 ACD         0.0303
     27 H5        -28.5449   14.5244  -15.4646 H         1 ACD         0.0391
     28 H6        -26.8840   15.2034  -15.3800 H         1 ACD         0.0391
     29 H7        -27.9181   12.7519  -13.8044 H         1 ACD         0.0458
     30 H8        -26.2257   13.2788  -12.3146 H         1 ACD         0.0463
     31 H9        -25.4152   15.4497  -14.3592 H         1 ACD         0.0513
     32 H10       -24.3649   14.7413  -13.0857 H         1 ACD         0.0513
     33 H11       -26.7325   15.6406  -11.6949 H         1 ACD         0.0471
     34 H12       -26.0219   17.8717  -11.5218 H         1 ACD         0.0471
     35 H13       -24.2185   17.1179  -13.9322 H         1 ACD         0.0515
     36 H14       -23.4950   17.8470  -12.4586 H         1 ACD         0.0515
     37 H15       -25.4678   19.1565  -14.4076 H         1 ACD         0.0471
     38 H16       -24.7907   21.1925  -13.5936 H         1 ACD         0.0471
     39 H17       -22.5667   20.7574  -12.1934 H         1 ACD         0.0513
     40 H18       -23.5845   19.6017  -11.2686 H         1 ACD         0.0513
     41 H19       -25.2100   21.9587  -11.3094 H         1 ACD         0.0463
     42 H20       -23.9683   23.1371   -9.6875 H         1 ACD         0.0458
     43 H21       -21.7982   21.0401  -10.4174 H         1 ACD         0.0390
     44 H22       -22.0778   21.6514   -8.7516 H         1 ACD         0.0390
     45 H23       -21.6223   23.9908   -9.8129 H         1 ACD         0.0285
     46 H24       -20.8607   23.0431  -11.1352 H         1 ACD         0.0285
     47 H25       -19.6120   21.8091   -9.1947 H         1 ACD         0.0267
     48 H26       -20.0778   23.2419   -8.2165 H         1 ACD         0.0267
     49 H27       -19.2370   24.4489  -10.5231 H         1 ACD         0.0263
     50 H28       -18.1697   23.0043  -10.4940 H         1 ACD         0.0263
     51 H29       -17.1567   24.8938   -9.2933 H         1 ACD         0.0230
     52 H30       -17.5216   23.5297   -8.1830 H         1 ACD         0.0230
     53 H31       -18.5889   24.9742   -8.2121 H         1 ACD         0.0230
@<TRIPOS>BOND
     1    1    2 1  
     2    1   21 ar 
     3    1   22 ar 
     4    2    3 1  
     5    3    4 1  
     6    4    5 1  
     7    5    6 2  
     8    6    7 1  
     9    7    8 1  
    10    8    9 2  
    11    9   10 1  
    12   10   11 1  
    13   11   12 2  
    14   12   13 1  
    15   13   14 1  
    16   14   15 2  
    17   15   16 1  
    18   16   17 1  
    19   17   18 1  
    20   18   19 1  
    21   19   20 1  
    22    2   23 1  
    23    2   24 1  
    24    3   25 1  
    25    3   26 1  
    26    4   27 1  
    27    4   28 1  
    28    5   29 1  
    29    6   30 1  
    30    7   31 1  
    31    7   32 1  
    32    8   33 1  
    33    9   34 1  
    34   10   35 1  
    35   10   36 1  
    36   11   37 1  
    37   12   38 1  
    38   13   39 1  
    39   13   40 1  
    40   14   41 1  
    41   15   42 1  
    42   16   43 1  
    43   16   44 1  
    44   17   45 1  
    45   17   46 1  
    46   18   47 1  
    47   18   48 1  
    48   19   49 1  
    49   19   50 1  
    50   20   51 1  
    51   20   52 1  
    52   20   53 1  
@<TRIPOS>SUBSTRUCTURE
     1 ACD         1

