### 
### Created by X-TOOL on Mon Sep 10 21:13:27 2018
### 

@<TRIPOS>MOLECULE
5fbe_ligand
   55    57     1     0     0
SMALL
GAST_HUCK


@<TRIPOS>ATOM
      1 C2          7.9290    8.5520    1.8750 C.2       1 5W5         0.2642
      2 C3          9.0350   10.7400    3.6470 C.2       1 5W5         0.2290
      3 C13         9.1840   11.3500    6.0170 C.ar      1 5W5         0.0571
      4 C14         4.6710    7.5170    1.5140 C.ar      1 5W5         0.0006
      5 C15         9.2880   10.6340    7.2000 C.ar      1 5W5        -0.0138
      6 C16         6.0980    7.0780    1.1720 C.3       1 5W5         0.0686
      7 C18         8.8150   11.1960    8.3840 C.ar      1 5W5         0.0869
      8 C22         8.9700   10.1000    0.2430 C.3       1 5W5         0.0373
      9 C24        10.6520   10.9510    1.7230 C.3       1 5W5        -0.0101
     10 C25        10.4770   10.3990    0.2880 C.3       1 5W5        -0.0284
     11 C26         8.2120   13.2480    7.1980 C.ar      1 5W5        -0.0837
     12 C27         2.3770    7.0420    2.0800 C.ar      1 5W5        -0.0471
     13 C28         8.6730   12.6650    6.0160 C.ar      1 5W5        -0.0523
     14 C29         8.2850   12.5050    8.3780 C.ar      1 5W5        -0.0481
     15 C30         4.4020    8.9010    1.6530 C.ar      1 5W5        -0.0522
     16 N1          8.8630    9.4900    1.5650 N.am      1 5W5        -0.2374
     17 C4          9.7840    9.9960    2.5740 C.3       1 5W5         0.1398
     18 C5          7.8400    9.6680   10.0500 C.3       1 5W5         0.5462
     19 N6          9.6590   10.7470    4.8350 N.am      1 5W5        -0.2345
     20 C7          3.8130    5.0300    1.6070 C.2       1 5W5         0.2580
     21 N8          7.0600    8.1390    0.9170 N.am      1 5W5        -0.2605
     22 C9          3.6560    6.5520    1.7360 C.ar      1 5W5         0.0653
     23 O10         8.9260   10.4310    9.5410 O.3       1 5W5        -0.2297
     24 O11         7.9500   11.2720    3.4140 O.2       1 5W5        -0.3823
     25 O12         7.8910    8.0750    3.0190 O.2       1 5W5        -0.4004
     26 O17         2.8180    4.3280    1.4960 O.2       1 5W5        -0.3610
     27 F19         6.7540   10.4860   10.2290 F         1 5W5        -0.1400
     28 F20         7.5200    8.7330    9.1240 F         1 5W5        -0.1400
     29 F21         8.2560    9.0350   11.1910 F         1 5W5        -0.1400
     30 O23         5.0420    4.4510    1.6020 O.3       1 5W5        -0.2820
     31 C31         5.0860    3.0050    1.6140 C.3       1 5W5         0.0645
     32 C32         2.0970    8.4130    2.1890 C.ar      1 5W5        -0.0627
     33 C33         3.1180    9.3540    1.9910 C.ar      1 5W5        -0.0639
     34 H1          9.7334    9.6457    7.2036 H         1 5W5         0.0419
     35 H2          6.0473    6.4492    0.2709 H         1 5W5         0.0695
     36 H3          6.4750    6.4807    2.0152 H         1 5W5         0.0695
     37 H4          8.7046    9.4014   -0.5642 H         1 5W5         0.0521
     38 H5          8.3635   11.0131    0.1519 H         1 5W5         0.0521
     39 H6         10.2871   11.9862    1.7952 H         1 5W5         0.0313
     40 H7         11.7058   10.9110    2.0357 H         1 5W5         0.0313
     41 H8         10.7585   11.1489   -0.4659 H         1 5W5         0.0287
     42 H9         11.0706    9.4855    0.1360 H         1 5W5         0.0287
     43 H10         7.8070   14.2535    7.1996 H         1 5W5         0.0551
     44 H11         1.5802    6.3313    2.2672 H         1 5W5         0.0654
     45 H12         8.6380   13.2274    5.0900 H         1 5W5         0.0414
     46 H13         7.9290   12.9402    9.3048 H         1 5W5         0.0418
     47 H14         5.1986    9.6192    1.4962 H         1 5W5         0.0570
     48 H15        10.3836    9.1917    3.0251 H         1 5W5         0.0804
     49 H16        10.5425   10.2814    4.8864 H         1 5W5         0.2255
     50 H17         7.0817    8.5736    0.0166 H         1 5W5         0.1874
     51 H18         6.1337    2.6700    1.6084 H         1 5W5         0.0575
     52 H19         4.5716    2.6151    0.7233 H         1 5W5         0.0575
     53 H20         4.5862    2.6304    2.5195 H         1 5W5         0.0575
     54 H21         1.0925    8.7443    2.4260 H         1 5W5         0.0572
     55 H22         2.9182   10.4141    2.0974 H         1 5W5         0.0637
@<TRIPOS>BOND
     1   16    1 am 
     2    1   21 am 
     3    1   25 2  
     4   17    2 1  
     5    2   19 am 
     6    2   24 2  
     7    3    5 ar 
     8    3   13 ar 
     9   19    3 1  
    10    6    4 1  
    11    4   15 ar 
    12    4   22 ar 
    13    5    7 ar 
    14   21    6 1  
    15    7   14 ar 
    16    7   23 1  
    17   10    8 1  
    18    8   16 1  
    19    9   10 1  
    20    9   17 1  
    21   13   11 ar 
    22   11   14 ar 
    23   22   12 ar 
    24   12   32 ar 
    25   15   33 ar 
    26   16   17 1  
    27   23   18 1  
    28   18   27 1  
    29   18   28 1  
    30   18   29 1  
    31   22   20 1  
    32   20   26 2  
    33   20   30 1  
    34   30   31 1  
    35   32   33 ar 
    36    5   34 1  
    37    6   35 1  
    38    6   36 1  
    39    8   37 1  
    40    8   38 1  
    41    9   39 1  
    42    9   40 1  
    43   10   41 1  
    44   10   42 1  
    45   11   43 1  
    46   12   44 1  
    47   13   45 1  
    48   14   46 1  
    49   15   47 1  
    50   17   48 1  
    51   19   49 1  
    52   21   50 1  
    53   31   51 1  
    54   31   52 1  
    55   31   53 1  
    56   32   54 1  
    57   33   55 1  
@<TRIPOS>SUBSTRUCTURE
     1 5W5         1

