### 
### Created by X-TOOL on Mon Sep 10 21:13:27 2018
### 

@<TRIPOS>MOLECULE
5fbi_ligand
   36    38     1     0     0
SMALL
GAST_HUCK


@<TRIPOS>ATOM
      1 C1          3.4140   10.0400    1.7940 C.ar      1 5WD         0.0785
      2 C2          2.1230    9.5940    2.2050 C.ar      1 5WD        -0.0425
      3 C3          1.7980    8.2120    2.2850 C.ar      1 5WD        -0.0454
      4 C14         5.1820   11.7900    1.9600 C.3       1 5WD         0.1024
      5 C15         5.5100   13.2240    1.5280 C.ar      1 5WD        -0.0098
      6 C16         5.9150   13.4860    0.2060 C.ar      1 5WD        -0.0552
      7 C17         6.2480   14.7970   -0.1750 C.ar      1 5WD        -0.0649
      8 C18         6.2380   15.8410    0.7680 C.ar      1 5WD        -0.0545
      9 C19         5.8840   15.5810    2.1040 C.ar      1 5WD         0.0035
     10 C20         5.5430   14.2640    2.4790 C.ar      1 5WD        -0.0437
     11 C21         5.8800   16.7040    3.1200 C.2       1 5WD         0.0613
     12 C4          4.3880    9.0770    1.4650 C.ar      1 5WD        -0.0450
     13 C5          4.0550    7.7280    1.5510 C.ar      1 5WD        -0.0275
     14 C6          2.8050    7.2810    1.9450 C.ar      1 5WD         0.0588
     15 N7          2.8040    5.9180    1.9230 N.pl3     1 5WD        -0.2716
     16 C8          3.9860    5.4530    1.5510 C.2       1 5WD         0.1295
     17 C9          4.8220    6.4680    1.3100 C.2       1 5WD        -0.0434
     18 C10         4.4390    4.0560    1.4020 C.2       1 5WD         0.2237
     19 N11         5.7180    3.7350    1.1150 N.am      1 5WD        -0.2989
     20 O12         3.6100    3.1830    1.5700 O.2       1 5WD        -0.3844
     21 O13         3.8140   11.3990    1.6930 O.3       1 5WD        -0.3134
     22 O22         6.7620   16.6850    4.1240 O.co2     1 5WD        -0.5607
     23 O23         5.0760   17.6160    3.0120 O.co2     1 5WD        -0.5607
     24 H1          1.3690   10.3287    2.4634 H         1 5WD         0.0503
     25 H2          0.8126    7.8843    2.5958 H         1 5WD         0.0534
     26 H3          5.3628   11.7034    3.0416 H         1 5WD         0.0774
     27 H4          5.8508   11.1034    1.4203 H         1 5WD         0.0774
     28 H5          5.9699   12.6793   -0.5160 H         1 5WD         0.0579
     29 H6          6.5150   15.0057   -1.2047 H         1 5WD         0.0606
     30 H7          6.5035   16.8472    0.4644 H         1 5WD         0.0593
     31 H8          5.3028   14.0488    3.5139 H         1 5WD         0.0590
     32 H9          5.3797    9.3811    1.1503 H         1 5WD         0.0449
     33 H10         1.9933    5.3298    2.1633 H         1 5WD         0.2240
     34 H11         5.8625    6.3914    0.9979 H         1 5WD         0.0386
     35 H12         5.9840    2.7755    1.0224 H         1 5WD         0.1805
     36 H13         6.3998    4.4567    0.9950 H         1 5WD         0.1805
@<TRIPOS>BOND
     1    1    2 ar 
     2    1   12 ar 
     3   21    1 1  
     4    2    3 ar 
     5    3   14 ar 
     6    4    5 1  
     7    4   21 1  
     8    5    6 ar 
     9    5   10 ar 
    10    6    7 ar 
    11    7    8 ar 
    12    8    9 ar 
    13    9   10 ar 
    14    9   11 1  
    15   11   22 ar 
    16   11   23 ar 
    17   12   13 ar 
    18   13   14 ar 
    19   13   17 1  
    20   14   15 1  
    21   15   16 1  
    22   16   17 2  
    23   16   18 1  
    24   18   19 am 
    25   18   20 2  
    26    2   24 1  
    27    3   25 1  
    28    4   26 1  
    29    4   27 1  
    30    6   28 1  
    31    7   29 1  
    32    8   30 1  
    33   10   31 1  
    34   12   32 1  
    35   15   33 1  
    36   17   34 1  
    37   19   35 1  
    38   19   36 1  
@<TRIPOS>SUBSTRUCTURE
     1 5WD         1

