### 
### Created by X-TOOL on Mon Sep 10 21:13:27 2018
### 

@<TRIPOS>MOLECULE
5fbn_ligand
   70    75     1     0     0
SMALL
GAST_HUCK


@<TRIPOS>ATOM
      1 O38       -21.8500   35.9800  -17.1610 O.2       1 5WF        -0.3439
      2 C36       -21.0530   36.8740  -17.1660 C.2       1 5WF         0.2086
      3 C37       -21.7180   38.2150  -16.8500 C.3       1 5WF         0.0948
      4 C42       -22.2250   38.9690  -18.1110 C.3       1 5WF        -0.0486
      5 C41       -21.0170   39.0970  -15.7590 C.3       1 5WF         0.0619
      6 O40       -22.2790   39.0830  -15.0160 O.3       1 5WF        -0.3808
      7 C39       -22.9230   38.0750  -15.8600 C.3       1 5WF         0.0619
      8 N34       -19.6740   36.5860  -17.4180 N.am      1 5WF        -0.2693
      9 C33       -18.5510   37.5830  -17.4750 C.3       1 5WF         0.0343
     10 C32       -18.2290   37.7060  -18.9590 C.3       1 5WF        -0.0299
     11 C31       -17.6390   36.3420  -19.3670 C.3       1 5WF        -0.0313
     12 C35       -19.2010   35.2060  -17.7490 C.3       1 5WF         0.0516
     13 C29       -18.6560   35.2120  -19.1890 C.3       1 5WF         0.0579
     14 C27       -17.9880   33.8910  -19.4720 C.2       1 5WF         0.1419
     15 N26       -18.6380   32.8300  -19.9250 N.pl3     1 5WF        -0.1941
     16 C22       -19.9340   32.6380  -20.3020 C.2       1 5WF         0.0749
     17 C21       -20.3160   31.4320  -20.7960 C.2       1 5WF         0.0053
     18 C25       -17.7350   31.8100  -20.0640 C.2       1 5WF         0.1527
     19 C23       -18.2030   30.5670  -20.5430 C.2       1 5WF         0.1435
     20 N30       -17.3500   29.5230  -20.6500 N.pl3     1 5WF        -0.3130
     21 N20       -19.4780   30.3940  -20.9010 N.2       1 5WF        -0.3055
     22 N28       -16.7260   33.5690  -19.2890 N.2       1 5WF        -0.3184
     23 C24       -16.5010   32.3170  -19.6390 C.2       1 5WF         0.0360
     24 C3        -15.1570   31.6970  -19.5960 C.ar      1 5WF        -0.0288
     25 C2        -14.5810   31.2640  -20.7920 C.ar      1 5WF        -0.0588
     26 C4        -14.4050   31.6500  -18.4300 C.ar      1 5WF        -0.0588
     27 C5        -13.1620   31.0920  -18.4780 C.ar      1 5WF        -0.0489
     28 C6        -12.5860   30.6170  -19.6870 C.ar      1 5WF         0.0489
     29 C1        -13.3070   30.7230  -20.8620 C.ar      1 5WF        -0.0489
     30 C7        -11.2310   30.0370  -19.6570 C.2       1 5WF         0.2310
     31 O8        -10.4860   30.2120  -20.6000 O.2       1 5WF        -0.3749
     32 N9        -10.9010   29.3270  -18.5420 N.am      1 5WF        -0.2132
     33 C15        -9.6890   28.6940  -18.2780 C.ar      1 5WF         0.1690
     34 N10        -9.6010   28.1090  -17.0530 N.ar      1 5WF        -0.2538
     35 C14        -8.6030   28.6610  -19.1830 C.ar      1 5WF         0.0172
     36 C13        -7.4160   28.0330  -18.8400 C.ar      1 5WF         0.0555
     37 C16        -6.2540   28.0310  -19.8420 C.3       1 5WF         0.3857
     38 F19        -6.1670   29.2430  -20.4560 F         1 5WF        -0.2116
     39 F18        -6.4970   27.0760  -20.7820 F         1 5WF        -0.2116
     40 F17        -5.0490   27.7750  -19.2530 F         1 5WF        -0.2116
     41 C12        -7.3660   27.4210  -17.5860 C.ar      1 5WF        -0.0226
     42 C11        -8.4750   27.4810  -16.7230 C.ar      1 5WF         0.0213
     43 H1        -22.6889   39.9193  -17.8082 H         1 5WF         0.0223
     44 H2        -22.9674   38.3492  -18.6351 H         1 5WF         0.0223
     45 H3        -21.3775   39.1723  -18.7822 H         1 5WF         0.0223
     46 H4        -20.7025   40.0917  -16.1077 H         1 5WF         0.0552
     47 H5        -20.1777   38.6066  -15.2442 H         1 5WF         0.0552
     48 H6        -23.0191   37.0830  -15.3945 H         1 5WF         0.0552
     49 H7        -23.8943   38.3804  -16.2762 H         1 5WF         0.0552
     50 H8        -17.6770   37.2174  -16.9160 H         1 5WF         0.0524
     51 H9        -18.8697   38.5523  -17.0642 H         1 5WF         0.0524
     52 H10       -17.4955   38.5081  -19.1280 H         1 5WF         0.0287
     53 H11       -19.1424   37.9172  -19.5343 H         1 5WF         0.0287
     54 H12       -16.7591   36.1321  -18.7412 H         1 5WF         0.0295
     55 H13       -17.3356   36.3859  -20.4234 H         1 5WF         0.0295
     56 H14       -20.0389   34.4975  -17.6718 H         1 5WF         0.0554
     57 H15       -18.4041   34.9090  -17.0514 H         1 5WF         0.0554
     58 H16       -19.4891   35.3596  -19.8920 H         1 5WF         0.0546
     59 H17       -20.6579   33.4461  -20.2077 H         1 5WF         0.1018
     60 H18       -21.3477   31.3043  -21.1203 H         1 5WF         0.0647
     61 H19       -17.6886   28.6150  -20.9991 H         1 5WF         0.1807
     62 H20       -16.3618   29.6358  -20.3824 H         1 5WF         0.1807
     63 H21       -15.1559   31.3551  -21.7065 H         1 5WF         0.0572
     64 H22       -14.7976   32.0484  -17.5014 H         1 5WF         0.0572
     65 H23       -12.5920   31.0076  -17.5598 H         1 5WF         0.0648
     66 H24       -12.8896   30.3938  -21.8067 H         1 5WF         0.0648
     67 H25       -11.6057   29.2523  -17.8365 H         1 5WF         0.2308
     68 H26        -8.6998   29.1316  -20.1547 H         1 5WF         0.0840
     69 H27        -6.4688   26.8975  -17.2763 H         1 5WF         0.0791
     70 H28        -8.4103   26.9985  -15.7545 H         1 5WF         0.0843
@<TRIPOS>BOND
     1    1    2 2  
     2    2    3 1  
     3    2    8 am 
     4    3    4 1  
     5    3    5 1  
     6    3    7 1  
     7    5    6 1  
     8    6    7 1  
     9    8    9 1  
    10    8   12 1  
    11    9   10 1  
    12   10   11 1  
    13   11   13 1  
    14   12   13 1  
    15   13   14 1  
    16   14   15 1  
    17   14   22 2  
    18   15   16 1  
    19   15   18 1  
    20   16   17 2  
    21   17   21 1  
    22   18   19 1  
    23   18   23 2  
    24   19   20 1  
    25   19   21 2  
    26   22   23 1  
    27   23   24 1  
    28   24   25 ar 
    29   24   26 ar 
    30   25   29 ar 
    31   26   27 ar 
    32   27   28 ar 
    33   28   29 ar 
    34   28   30 1  
    35   30   31 2  
    36   30   32 am 
    37   32   33 1  
    38   33   34 ar 
    39   33   35 ar 
    40   34   42 ar 
    41   35   36 ar 
    42   36   37 1  
    43   36   41 ar 
    44   37   38 1  
    45   37   39 1  
    46   37   40 1  
    47   41   42 ar 
    48    4   43 1  
    49    4   44 1  
    50    4   45 1  
    51    5   46 1  
    52    5   47 1  
    53    7   48 1  
    54    7   49 1  
    55    9   50 1  
    56    9   51 1  
    57   10   52 1  
    58   10   53 1  
    59   11   54 1  
    60   11   55 1  
    61   12   56 1  
    62   12   57 1  
    63   13   58 1  
    64   16   59 1  
    65   17   60 1  
    66   20   61 1  
    67   20   62 1  
    68   25   63 1  
    69   26   64 1  
    70   27   65 1  
    71   29   66 1  
    72   32   67 1  
    73   35   68 1  
    74   41   69 1  
    75   42   70 1  
@<TRIPOS>SUBSTRUCTURE
     1 5WF         1

