### 
### Created by X-TOOL on Mon Sep 10 21:13:29 2018
### 

@<TRIPOS>MOLECULE
5fbo_ligand
   67    72     1     0     0
SMALL
GAST_HUCK


@<TRIPOS>ATOM
      1 N01       -21.0920    4.8720  -19.5420 N.2       1 5WH        -0.3065
      2 C02       -20.1400    5.1240  -20.4480 C.2       1 5WH         0.0044
      3 C03       -18.9090    5.6240  -20.1000 C.2       1 5WH         0.0741
      4 C04       -20.8840    5.0650  -18.2430 C.2       1 5WH         0.1425
      5 C05       -19.6150    5.5590  -17.7700 C.2       1 5WH         0.1513
      6 N06       -18.6740    5.8800  -18.7520 N.pl3     1 5WH        -0.1952
      7 C07       -17.5350    6.3040  -18.1270 C.2       1 5WH         0.1412
      8 N08       -17.7590    6.3510  -16.8050 N.2       1 5WH        -0.3192
      9 C09       -19.0350    5.8980  -16.5970 C.2       1 5WH         0.0365
     10 C10       -16.2770    6.7060  -18.8320 C.3       1 5WH         0.0576
     11 N11       -21.9190    4.7680  -17.4160 N.pl3     1 5WH        -0.3132
     12 C12       -16.3840    8.1970  -19.1830 C.3       1 5WH         0.0515
     13 C13       -13.7910    7.0310  -18.6230 C.3       1 5WH        -0.0275
     14 C14       -13.9430    8.5000  -19.0020 C.3       1 5WH         0.0423
     15 N15       -15.1670    8.6540  -19.8780 N.am      1 5WH        -0.2681
     16 C16       -15.0400    6.4500  -17.9650 C.3       1 5WH        -0.0311
     17 C17       -19.4960    5.8020  -15.2730 C.ar      1 5WH         0.0062
     18 C18       -19.7550    4.5990  -14.6400 C.ar      1 5WH         0.1363
     19 C19       -20.1940    4.5000  -13.3480 C.ar      1 5WH        -0.0148
     20 C20       -20.3620    5.6660  -12.6040 C.ar      1 5WH         0.0474
     21 C21       -20.0330    6.8880  -13.1830 C.ar      1 5WH        -0.0526
     22 C22       -19.6300    6.9580  -14.5030 C.ar      1 5WH        -0.0598
     23 F23       -19.6430    3.4510  -15.3540 F         1 5WH        -0.1862
     24 C24       -20.7420    5.4920  -11.1660 C.2       1 5WH         0.2303
     25 O25       -20.7320    4.3810  -10.6470 O.2       1 5WH        -0.3748
     26 N26       -21.0390    6.6230  -10.4800 N.am      1 5WH        -0.2132
     27 C27       -21.2750    6.7720   -9.1040 C.ar      1 5WH         0.1690
     28 N28       -21.8190    7.9680   -8.8190 N.ar      1 5WH        -0.2538
     29 C29       -22.0880    8.2320   -7.5310 C.ar      1 5WH         0.0213
     30 C30       -21.8460    7.3420   -6.5100 C.ar      1 5WH        -0.0226
     31 C31       -21.2730    6.1120   -6.7970 C.ar      1 5WH         0.0555
     32 C32       -20.9820    5.8110   -8.1260 C.ar      1 5WH         0.0172
     33 C33       -20.9960    5.1110   -5.7180 C.3       1 5WH         0.3857
     34 F34       -20.9640    3.8440   -6.1480 F         1 5WH        -0.2116
     35 F35       -19.8290    5.3180   -5.1120 F         1 5WH        -0.2116
     36 F36       -21.9350    5.0880   -4.7820 F         1 5WH        -0.2116
     37 C37       -13.9790    9.4350  -17.8030 C.3       1 5WH        -0.0418
     38 C38       -15.1780    9.0510  -21.1700 C.2       1 5WH         0.1873
     39 O39       -16.1680    8.9150  -21.8510 O.2       1 5WH        -0.4001
     40 C40       -13.9240    9.6010  -21.8210 C.3       1 5WH         0.0862
     41 C41       -14.0160   10.0610  -23.2580 C.2       1 5WH        -0.0573
     42 C42       -13.3930    8.7530  -22.9540 C.2       1 5WH        -0.0573
     43 H1        -20.3486    4.9256  -21.4983 H         1 5WH         0.0645
     44 H2        -18.1442    5.8134  -20.8517 H         1 5WH         0.1014
     45 H3        -16.1825    6.1209  -19.7586 H         1 5WH         0.0545
     46 H4        -21.8188    4.8966  -16.3990 H         1 5WH         0.1807
     47 H5        -22.8044    4.4141  -17.8056 H         1 5WH         0.1807
     48 H6        -16.5119    8.7781  -18.2579 H         1 5WH         0.0551
     49 H7        -17.2543    8.3530  -19.8374 H         1 5WH         0.0551
     50 H8        -12.9492    6.9357  -17.9214 H         1 5WH         0.0289
     51 H9        -13.5754    6.4547  -19.5348 H         1 5WH         0.0289
     52 H10       -13.0634    8.7805  -19.6000 H         1 5WH         0.0555
     53 H11       -14.9084    5.3657  -17.8346 H         1 5WH         0.0295
     54 H12       -15.1836    6.9228  -16.9822 H         1 5WH         0.0295
     55 H13       -20.4074    3.5313  -12.9108 H         1 5WH         0.0632
     56 H14       -20.0935    7.7948  -12.5921 H         1 5WH         0.0616
     57 H15       -19.4151    7.9237  -14.9461 H         1 5WH         0.0562
     58 H16       -21.0976    7.4596  -11.0247 H         1 5WH         0.2308
     59 H17       -22.5179    9.1956   -7.2823 H         1 5WH         0.0843
     60 H18       -22.1013    7.6003   -5.4887 H         1 5WH         0.0791
     61 H19       -20.5406    4.8587   -8.3967 H         1 5WH         0.0840
     62 H20       -14.0897   10.4728  -18.1505 H         1 5WH         0.0252
     63 H21       -13.0431    9.3370  -17.2334 H         1 5WH         0.0252
     64 H22       -14.8302    9.1716  -17.1580 H         1 5WH         0.0252
     65 H23       -13.2697   10.1048  -21.0943 H         1 5WH         0.0640
     66 H24       -14.3199   10.8104  -23.9873 H         1 5WH         0.0613
     67 H25       -12.9058    7.8416  -23.2974 H         1 5WH         0.0613
@<TRIPOS>BOND
     1    2    1 1  
     2    4    1 2  
     3    3    2 2  
     4    6    3 1  
     5    5    4 1  
     6    4   11 1  
     7    6    5 1  
     8    9    5 2  
     9    7    6 1  
    10    7    8 2  
    11   10    7 1  
    12    8    9 1  
    13    9   17 1  
    14   10   12 1  
    15   16   10 1  
    16   12   15 1  
    17   13   14 1  
    18   13   16 1  
    19   14   15 1  
    20   14   37 1  
    21   15   38 am 
    22   17   18 ar 
    23   17   22 ar 
    24   18   19 ar 
    25   18   23 1  
    26   19   20 ar 
    27   20   21 ar 
    28   20   24 1  
    29   21   22 ar 
    30   24   25 2  
    31   24   26 am 
    32   26   27 1  
    33   27   28 ar 
    34   27   32 ar 
    35   28   29 ar 
    36   29   30 ar 
    37   30   31 ar 
    38   31   32 ar 
    39   31   33 1  
    40   33   34 1  
    41   33   35 1  
    42   33   36 1  
    43   38   39 2  
    44   38   40 1  
    45   40   41 1  
    46   40   42 1  
    47   41   42 2  
    48    2   43 1  
    49    3   44 1  
    50   10   45 1  
    51   11   46 1  
    52   11   47 1  
    53   12   48 1  
    54   12   49 1  
    55   13   50 1  
    56   13   51 1  
    57   14   52 1  
    58   16   53 1  
    59   16   54 1  
    60   19   55 1  
    61   21   56 1  
    62   22   57 1  
    63   26   58 1  
    64   29   59 1  
    65   30   60 1  
    66   32   61 1  
    67   37   62 1  
    68   37   63 1  
    69   37   64 1  
    70   40   65 1  
    71   41   66 1  
    72   42   67 1  
@<TRIPOS>SUBSTRUCTURE
     1 5WH         1

