### 
### Created by X-TOOL on Mon Sep 10 21:13:28 2018
### 

@<TRIPOS>MOLECULE
5fck_ligand
   56    60     1     0     0
SMALL
GAST_HUCK


@<TRIPOS>ATOM
      1 C1         -2.0840  -10.3960   10.8650 C.3       1 5WC        -0.0113
      2 C2         -0.6990  -10.1930   11.5590 C.3       1 5WC        -0.0072
      3 C3         -2.0260   -9.6610    9.5200 C.3       1 5WC         0.0513
      4 C11         4.6810  -10.9560   10.4480 C.ar      1 5WC         0.0160
      5 C12        -0.2660   -8.3170    8.5340 C.2       1 5WC         0.2130
      6 C13        -1.3070   -7.9980    7.5220 C.3       1 5WC         0.1600
      7 C16        -0.1140   -7.2790    5.4410 C.ar      1 5WC         0.1256
      8 C17         0.1790   -6.1300    4.7180 C.ar      1 5WC         0.0455
      9 C18        -0.4580   -5.0960    5.5800 C.2       1 5WC         0.1453
     10 C20         0.3390   -8.5750    5.0040 C.ar      1 5WC         0.0387
     11 C22         1.3680   -7.4550    3.1170 C.ar      1 5WC        -0.0024
     12 C23         0.9350   -6.1480    3.5080 C.ar      1 5WC        -0.0379
     13 C24        -0.4810   -3.6740    5.2610 C.2       1 5WC         0.2139
     14 C27         5.3110   -9.8070   10.9090 C.ar      1 5WC         0.1493
     15 C28         6.4800   -9.3650   10.3550 C.ar      1 5WC         0.0669
     16 C29         7.1070  -10.0780    9.3340 C.ar      1 5WC        -0.0566
     17 C30         6.4800  -11.2250    8.8500 C.ar      1 5WC        -0.0720
     18 N4         -0.6580   -9.1370    9.5160 N.am      1 5WC        -0.2461
     19 C5          0.2550   -9.3890   10.6160 C.3       1 5WC         0.1344
     20 C6          1.3890  -10.3340   10.2700 C.2       1 5WC         0.2039
     21 N7          2.3100  -10.4810   11.2290 N.am      1 5WC        -0.2716
     22 O8          1.3600  -10.9490    9.2250 O.2       1 5WC        -0.3944
     23 C9          3.3990  -11.4470   11.1140 C.3       1 5WC         0.0735
     24 C10         3.6320  -11.9490   12.5840 C.3       1 5WC        -0.0325
     25 N14        -0.7990   -6.9840    6.5890 N.pl3     1 5WC        -0.1622
     26 O15         0.8550   -7.7990    8.4610 O.2       1 5WC        -0.3936
     27 N19        -1.0600   -5.6620    6.5890 N.2       1 5WC        -0.1616
     28 N21         1.0600   -8.5930    3.8440 N.ar      1 5WC        -0.3083
     29 N25        -1.4390   -2.8520    5.8350 N.am      1 5WC        -0.2999
     30 O26         0.3240   -3.2930    4.4410 O.2       1 5WC        -0.3860
     31 C31         5.2650  -11.6940    9.4160 C.ar      1 5WC        -0.0596
     32 F           4.7850   -9.1140   11.9090 F         1 5WC        -0.1882
     33 CL          7.1790   -7.9020   11.0620 Cl        1 5WC        -0.0741
     34 C34        -2.9240   -9.1280   10.6380 C.3       1 5WC        -0.0241
     35 H1         -2.5376  -11.3834   11.0361 H         1 5WC         0.0326
     36 H2         -0.2533  -11.1745   11.7782 H         1 5WC         0.0316
     37 H3         -0.8391   -9.6361   12.4972 H         1 5WC         0.0316
     38 H4         -2.4138  -10.0060    8.5502 H         1 5WC         0.0563
     39 H5         -2.2032   -7.6113    8.0292 H         1 5WC         0.0872
     40 H6         -1.5661   -8.9101    6.9645 H         1 5WC         0.0872
     41 H7          0.1213   -9.4792    5.5609 H         1 5WC         0.0790
     42 H8          1.9610   -7.5584    2.2155 H         1 5WC         0.0713
     43 H9          1.1606   -5.2543    2.9375 H         1 5WC         0.0680
     44 H10         8.0566   -9.7492    8.9275 H         1 5WC         0.0555
     45 H11         6.9281  -11.7690    8.0264 H         1 5WC         0.0565
     46 H12         0.6398   -8.4583   11.0583 H         1 5WC         0.0802
     47 H13         2.2509   -9.9122   12.0494 H         1 5WC         0.1880
     48 H14         3.0394  -12.2906   10.5066 H         1 5WC         0.0708
     49 H15         4.4454  -12.6895   12.5940 H         1 5WC         0.0273
     50 H16         2.7096  -12.4125   12.9637 H         1 5WC         0.0273
     51 H17         3.9043  -11.0966   13.2237 H         1 5WC         0.0273
     52 H18        -1.4560   -1.8762    5.6171 H         1 5WC         0.1807
     53 H19        -2.1128   -3.2350    6.4669 H         1 5WC         0.1807
     54 H20         4.8010  -12.6048    9.0550 H         1 5WC         0.0548
     55 H21        -2.6612   -8.1941   11.1564 H         1 5WC         0.0291
     56 H22        -4.0177   -9.2018   10.5472 H         1 5WC         0.0291
@<TRIPOS>BOND
     1    2    1 1  
     2    3    1 1  
     3    1   34 1  
     4   19    2 1  
     5   18    3 1  
     6    3   34 1  
     7    4   14 ar 
     8   23    4 1  
     9    4   31 ar 
    10    5    6 1  
    11   18    5 am 
    12    5   26 2  
    13    6   25 1  
    14    7    8 ar 
    15    7   10 ar 
    16   25    7 1  
    17    8    9 1  
    18    8   12 ar 
    19    9   13 1  
    20    9   27 2  
    21   10   28 ar 
    22   12   11 ar 
    23   28   11 ar 
    24   13   29 am 
    25   13   30 2  
    26   14   15 ar 
    27   14   32 1  
    28   15   16 ar 
    29   15   33 1  
    30   17   16 ar 
    31   31   17 ar 
    32   19   18 1  
    33   20   19 1  
    34   21   20 am 
    35   20   22 2  
    36   21   23 1  
    37   23   24 1  
    38   25   27 1  
    39    1   35 1  
    40    2   36 1  
    41    2   37 1  
    42    3   38 1  
    43    6   39 1  
    44    6   40 1  
    45   10   41 1  
    46   11   42 1  
    47   12   43 1  
    48   16   44 1  
    49   17   45 1  
    50   19   46 1  
    51   21   47 1  
    52   23   48 1  
    53   24   49 1  
    54   24   50 1  
    55   24   51 1  
    56   29   52 1  
    57   29   53 1  
    58   31   54 1  
    59   34   55 1  
    60   34   56 1  
@<TRIPOS>SUBSTRUCTURE
     1 5WC         1

