### 
### Created by X-TOOL on Mon Sep 10 21:13:27 2018
### 

@<TRIPOS>MOLECULE
5fcw_ligand
   31    33     1     0     0
SMALL
GAST_HUCK


@<TRIPOS>ATOM
      1 C1         38.8450   17.0600  123.3070 C.ar      1 5YA        -0.0595
      2 C2         38.5040   15.7610  122.9630 C.ar      1 5YA        -0.0521
      3 C3         37.1920   15.2890  123.1180 C.ar      1 5YA        -0.0075
      4 C4         36.2040   16.1470  123.7030 C.ar      1 5YA        -0.0093
      5 C5         36.5520   17.4310  124.0360 C.ar      1 5YA        -0.0165
      6 C6         37.8850   17.9080  123.8430 C.ar      1 5YA        -0.0531
      7 C7         34.8650   15.7280  123.9190 C.ar      1 5YA        -0.0532
      8 C8         33.9240   16.6230  124.4720 C.ar      1 5YA        -0.0610
      9 O1         36.6530    8.9440  121.1100 O.2       1 5YA        -0.3179
     10 C9         34.2870   17.9200  124.8010 C.ar      1 5YA        -0.0609
     11 C10        35.5910   18.3360  124.5910 C.ar      1 5YA        -0.0537
     12 C11        37.0550   13.8340  122.7580 C.ar      1 5YA        -0.0133
     13 C12        36.6470   12.9720  123.7890 C.ar      1 5YA        -0.0487
     14 C13        36.5660   11.5980  123.5750 C.ar      1 5YA        -0.0408
     15 N1         36.9960    8.7840  123.4640 N.2       1 5YA         0.0357
     16 C14        36.8990   11.0520  122.3280 C.ar      1 5YA         0.0638
     17 C15        37.3410   11.8990  121.3010 C.ar      1 5YA        -0.0408
     18 C16        37.4340   13.2950  121.5240 C.ar      1 5YA        -0.0487
     19 C17        36.8040    9.5350  122.2170 C.2       1 5YA         0.3143
     20 O2         36.9730    7.5030  123.6120 O.2       1 5YA        -0.1746
     21 H1         39.8590   17.4129  123.1578 H         1 5YA         0.0621
     22 H2         39.2648   15.0981  122.5671 H         1 5YA         0.0633
     23 H3         38.1451   18.9251  124.1132 H         1 5YA         0.0632
     24 H4         34.5648   14.7194  123.6589 H         1 5YA         0.0624
     25 H5         32.9056   16.2924  124.6414 H         1 5YA         0.0620
     26 H6         33.5561   18.6027  125.2191 H         1 5YA         0.0618
     27 H7         35.8846   19.3476  124.8470 H         1 5YA         0.0625
     28 H8         36.3927   13.3799  124.7606 H         1 5YA         0.0633
     29 H9         36.2431   10.9463  124.3788 H         1 5YA         0.0669
     30 H10        37.6115   11.4853  120.3363 H         1 5YA         0.0669
     31 H11        37.7991   13.9459  120.7378 H         1 5YA         0.0633
@<TRIPOS>BOND
     1    2    1 ar 
     2    1    6 ar 
     3    3    2 ar 
     4    3    4 ar 
     5   12    3 1  
     6    4    5 ar 
     7    4    7 ar 
     8    5    6 ar 
     9    5   11 ar 
    10    7    8 ar 
    11    8   10 ar 
    12   19    9 2  
    13   11   10 ar 
    14   13   12 ar 
    15   12   18 ar 
    16   14   13 ar 
    17   16   14 ar 
    18   19   15 1  
    19   15   20 2  
    20   16   17 ar 
    21   16   19 1  
    22   17   18 ar 
    23    1   21 1  
    24    2   22 1  
    25    6   23 1  
    26    7   24 1  
    27    8   25 1  
    28   10   26 1  
    29   11   27 1  
    30   13   28 1  
    31   14   29 1  
    32   17   30 1  
    33   18   31 1  
@<TRIPOS>SUBSTRUCTURE
     1 5YA         1

