### 
### Created by X-TOOL on Mon Sep 10 21:13:29 2018
### 

@<TRIPOS>MOLECULE
5fd2_ligand
   47    50     1     0     0
SMALL
GAST_HUCK


@<TRIPOS>ATOM
      1 C28        11.0550   30.2140   -3.2800 C.3       1 5XJ         0.0195
      2 N26         9.7720   29.5890   -3.6350 N.am      1 5XJ        -0.2237
      3 C29         8.9230   30.6150   -4.2630 C.3       1 5XJ         0.0195
      4 S24        10.0210   28.3290   -4.6600 S.o2      1 5XJ         0.1380
      5 O25        11.3000   27.6390   -4.3090 O.2       1 5XJ        -0.1299
      6 O27        10.0950   28.7850   -6.0740 O.2       1 5XJ        -0.1299
      7 N7          8.8570   27.2160   -4.4450 N.am      1 5XJ        -0.1793
      8 C3          8.3560   26.9390   -3.2520 C.ar      1 5XJ         0.0843
      9 C2          6.9990   26.8840   -3.1170 C.ar      1 5XJ         0.1666
     10 F31         6.2670   27.1570   -4.1960 F         1 5XJ        -0.2051
     11 C4          9.1750   26.6550   -2.1720 C.ar      1 5XJ        -0.0594
     12 C5          8.6270   26.3310   -0.9460 C.ar      1 5XJ        -0.0565
     13 C6          7.2560   26.2930   -0.8100 C.ar      1 5XJ         0.1350
     14 F30         6.7810   25.9940    0.4000 F         1 5XJ        -0.2054
     15 C1          6.4190   26.5650   -1.8980 C.ar      1 5XJ         0.1157
     16 N8          5.0800   26.5580   -1.7880 N.pl3     1 5XJ        -0.2595
     17 C9          4.3090   25.5360   -2.2150 C.ar      1 5XJ         0.1458
     18 N14         4.8750   24.5840   -2.9910 N.ar      1 5XJ        -0.2766
     19 C13         4.2080   23.5320   -3.4290 C.ar      1 5XJ        -0.0000
     20 C12         2.8700   23.3890   -3.1280 C.ar      1 5XJ        -0.0435
     21 C11         2.2290   24.3400   -2.3590 C.ar      1 5XJ        -0.0396
     22 C10         2.9410   25.4340   -1.8680 C.ar      1 5XJ         0.0548
     23 C15         2.2750   26.4330   -1.1270 C.ar      1 5XJ         0.0705
     24 N16         2.9560   27.4970   -0.6840 N.ar      1 5XJ        -0.2801
     25 C17         2.3670   28.4770   -0.0280 C.ar      1 5XJ         0.0672
     26 N18         1.0720   28.4730    0.2150 N.ar      1 5XJ        -0.2547
     27 C19         0.3120   27.4600   -0.2040 C.ar      1 5XJ         0.1686
     28 C20         0.8910   26.4150   -0.9030 C.ar      1 5XJ         0.0892
     29 N23        -0.0970   25.5530   -1.1840 N.2       1 5XJ        -0.2906
     30 C22        -1.2430   26.0320   -0.7030 C.2       1 5XJ         0.1119
     31 N21        -0.9940   27.2000   -0.1020 N.pl3     1 5XJ        -0.2305
     32 H1         10.8757   31.0552   -2.5943 H         1 5XJ         0.0442
     33 H2         11.5479   30.5828   -4.1916 H         1 5XJ         0.0442
     34 H3         11.7010   29.4716   -2.7885 H         1 5XJ         0.0442
     35 H4          8.7710   31.4463   -3.5589 H         1 5XJ         0.0442
     36 H5          7.9499   30.1749   -4.5262 H         1 5XJ         0.0442
     37 H6          9.4138   30.9904   -5.1730 H         1 5XJ         0.0442
     38 H7          8.5071   26.7233   -5.2418 H         1 5XJ         0.2144
     39 H8         10.2522   26.6871   -2.2893 H         1 5XJ         0.0371
     40 H9          9.2680   26.1092   -0.1005 H         1 5XJ         0.0501
     41 H10         4.6195   27.3722   -1.3568 H         1 5XJ         0.2130
     42 H11         4.7125   22.7805   -4.0255 H         1 5XJ         0.0807
     43 H12         2.3210   22.5295   -3.4953 H         1 5XJ         0.0611
     44 H13         1.1730   24.2363   -2.1371 H         1 5XJ         0.0732
     45 H14         2.9655   29.3104    0.3217 H         1 5XJ         0.1034
     46 H15        -2.2177   25.5533   -0.7853 H         1 5XJ         0.1386
     47 H16        -1.6921   27.7987    0.3618 H         1 5XJ         0.2406
@<TRIPOS>BOND
     1    1    2 1  
     2    2    3 1  
     3    2    4 am 
     4    4    5 2  
     5    4    6 2  
     6    4    7 am 
     7    7    8 1  
     8    8    9 ar 
     9    8   11 ar 
    10    9   10 1  
    11    9   15 ar 
    12   11   12 ar 
    13   12   13 ar 
    14   13   14 1  
    15   13   15 ar 
    16   15   16 1  
    17   16   17 1  
    18   17   18 ar 
    19   17   22 ar 
    20   18   19 ar 
    21   19   20 ar 
    22   20   21 ar 
    23   21   22 ar 
    24   22   23 1  
    25   23   24 ar 
    26   23   28 ar 
    27   24   25 ar 
    28   25   26 ar 
    29   26   27 ar 
    30   27   28 ar 
    31   27   31 1  
    32   28   29 1  
    33   29   30 2  
    34   30   31 1  
    35    1   32 1  
    36    1   33 1  
    37    1   34 1  
    38    3   35 1  
    39    3   36 1  
    40    3   37 1  
    41    7   38 1  
    42   11   39 1  
    43   12   40 1  
    44   16   41 1  
    45   19   42 1  
    46   20   43 1  
    47   21   44 1  
    48   25   45 1  
    49   30   46 1  
    50   31   47 1  
@<TRIPOS>SUBSTRUCTURE
     1 5XJ         1

