### 
### Created by X-TOOL on Mon Sep 10 21:13:27 2018
### 

@<TRIPOS>MOLECULE
5fdc_ligand
   25    26     1     0     0
SMALL
GAST_HUCK


@<TRIPOS>ATOM
      1 S1         -5.4850    0.8080   16.6230 S.o2      1 5WN         0.1147
      2 O1         -6.7660    1.2500   16.1610 O.2       1 5WN        -0.1356
      3 O2         -5.2070    0.7620   18.0240 O.2       1 5WN        -0.1356
      4 N1         -5.1940   -0.6550   16.0200 N.am      1 5WN        -0.2488
      5 N2         -4.3540    1.7870   16.0160 N.am      1 5WN        -0.2279
      6 S2         -6.0350    5.6080   13.7600 S.3       1 5WN        -0.0528
      7 C1         -5.9900    3.9390   14.2090 C.2       1 5WN        -0.0091
      8 C2         -4.7630    3.4010   14.2220 C.2       1 5WN        -0.0258
      9 C3         -3.7450    4.3660   13.8520 C.ar      1 5WN        -0.0169
     10 C4         -4.3150    5.6460   13.5630 C.ar      1 5WN         0.0347
     11 C5         -2.3100    4.2300   13.7350 C.ar      1 5WN        -0.0654
     12 C6         -1.5370    5.3190   13.3550 C.ar      1 5WN        -0.0715
     13 C7         -2.1210    6.5770   13.0720 C.ar      1 5WN        -0.0704
     14 C8         -3.5300    6.7590   13.1740 C.ar      1 5WN        -0.0501
     15 C9         -4.4790    1.9650   14.5780 C.3       1 5WN         0.0515
     16 H1         -5.3301   -0.8300   15.0449 H         1 5WN         0.1648
     17 H2         -4.8770   -1.3893   16.6203 H         1 5WN         0.1648
     18 H3         -3.6443    2.2237   16.5688 H         1 5WN         0.1706
     19 H4         -6.8850    3.3719   14.4605 H         1 5WN         0.0631
     20 H5         -1.8375    3.2771   13.9441 H         1 5WN         0.0577
     21 H6         -0.4623    5.2032   13.2732 H         1 5WN         0.0555
     22 H7         -1.4913    7.4080   12.7755 H         1 5WN         0.0569
     23 H8         -3.9869    7.7186   12.9607 H         1 5WN         0.0569
     24 H9         -5.3030    1.3359   14.2103 H         1 5WN         0.0593
     25 H10        -3.5392    1.6566   14.0966 H         1 5WN         0.0593
@<TRIPOS>BOND
     1    1    2 2  
     2    1    3 2  
     3    1    4 am 
     4    5    1 am 
     5   15    5 1  
     6    7    6 1  
     7    6   10 1  
     8    8    7 2  
     9    8    9 1  
    10    8   15 1  
    11    9   10 ar 
    12    9   11 ar 
    13   10   14 ar 
    14   11   12 ar 
    15   12   13 ar 
    16   13   14 ar 
    17    4   16 1  
    18    4   17 1  
    19    5   18 1  
    20    7   19 1  
    21   11   20 1  
    22   12   21 1  
    23   13   22 1  
    24   14   23 1  
    25   15   24 1  
    26   15   25 1  
@<TRIPOS>SUBSTRUCTURE
     1 5WN         1

