### 
### Created by X-TOOL on Mon Sep 10 21:13:24 2018
### 

@<TRIPOS>MOLECULE
5fdd_ligand
   30    31     1     0     0
SMALL
GAST_HUCK


@<TRIPOS>ATOM
      1 OAP         0.3000  -25.1190  -17.1610 O.2       1 4P8        -0.3432
      2 CAO         0.7500  -25.6670  -16.1550 C.2       1 4P8         0.1758
      3 CAM         0.2420  -26.8850  -15.7130 C.ar      1 4P8         0.2045
      4 CAK         0.7740  -27.5110  -14.5840 C.ar      1 4P8         0.0978
      5 CAN        -0.7980  -27.5090  -16.3930 C.ar      1 4P8         0.3097
      6 OAQ        -1.3250  -26.9160  -17.5030 O.3       1 4P8        -0.2069
      7 CAL        -1.2940  -28.7370  -15.9820 C.ar      1 4P8         0.2569
      8 NAR        -2.3020  -29.2570  -16.6810 N.2       1 4P8        -0.1678
      9 OAT        -2.9420  -28.4340  -17.7920 O.2       1 4P8        -0.4751
     10 OAS        -2.8030  -30.4880  -16.2760 O.2       1 4P8        -0.4751
     11 CAJ        -0.7730  -29.3510  -14.8440 C.ar      1 4P8         0.1129
     12 CAI         0.2740  -28.7430  -14.1460 C.ar      1 4P8         0.1341
     13 CAH         0.8220  -29.3500  -13.0030 C.3       1 4P8         0.1083
     14 CAB         1.4010  -30.5920  -13.2970 C.ar      1 4P8         0.0616
     15 CAA         2.6960  -30.6680  -13.8050 C.ar      1 4P8         0.0907
     16 CLG         3.6300  -29.2250  -14.0940 Cl        1 4P8        -0.0482
     17 CAF         3.2540  -31.9120  -14.0900 C.ar      1 4P8        -0.0199
     18 CAE         2.5360  -33.0830  -13.8700 C.ar      1 4P8        -0.0358
     19 CAD         1.2460  -33.0130  -13.3590 C.ar      1 4P8        -0.0348
     20 CAC         0.6880  -31.7700  -13.0730 C.ar      1 4P8        -0.0145
     21 H1          1.5585  -25.1912  -15.6019 H         1 4P8         0.1422
     22 H2          1.5835  -27.0375  -14.0404 H         1 4P8         0.1217
     23 H3         -2.0211  -27.4606  -17.8513 H         1 4P8         0.3348
     24 H4         -1.1784  -30.2963  -14.5019 H         1 4P8         0.1231
     25 H5          0.0234  -29.4968  -12.2609 H         1 4P8         0.1234
     26 H6          1.5943  -28.6879  -12.5845 H         1 4P8         0.1234
     27 H7          4.2606  -31.9684  -14.4883 H         1 4P8         0.0702
     28 H8          2.9808  -34.0453  -14.0962 H         1 4P8         0.0832
     29 H9          0.6781  -33.9196  -13.1842 H         1 4P8         0.0712
     30 H10        -0.3168  -31.7166  -12.6697 H         1 4P8         0.0758
@<TRIPOS>BOND
     1    1    2 2  
     2    2    3 1  
     3    3    4 ar 
     4    3    5 ar 
     5    4   12 ar 
     6    5    6 1  
     7    5    7 ar 
     8    7    8 1  
     9    7   11 ar 
    10    8    9 2  
    11    8   10 2  
    12   11   12 ar 
    13   12   13 1  
    14   13   14 1  
    15   14   15 ar 
    16   14   20 ar 
    17   15   16 1  
    18   15   17 ar 
    19   17   18 ar 
    20   18   19 ar 
    21   19   20 ar 
    22    2   21 1  
    23    4   22 1  
    24    6   23 1  
    25   11   24 1  
    26   13   25 1  
    27   13   26 1  
    28   17   27 1  
    29   18   28 1  
    30   19   29 1  
    31   20   30 1  
@<TRIPOS>SUBSTRUCTURE
     1 4P8         1

