### 
### Created by X-TOOL on Mon Sep 10 21:13:24 2018
### 

@<TRIPOS>MOLECULE
5fdg_ligand
   55    57     1     0     0
SMALL
GAST_HUCK


@<TRIPOS>ATOM
      1 CL2        -1.4230   30.0490   20.7240 Cl        1 0N8        -0.0771
      2 C19        -1.5490   30.9820   19.2830 C.ar      1 0N8         0.0330
      3 C18        -1.3810   30.3540   18.0590 C.ar      1 0N8        -0.0546
      4 C17        -1.4860   31.0900   16.8860 C.ar      1 0N8        -0.0597
      5 C20        -1.8140   32.3490   19.3290 C.ar      1 0N8        -0.0546
      6 C21        -1.9140   33.0820   18.1470 C.ar      1 0N8        -0.0597
      7 C16        -1.7550   32.4580   16.9070 C.ar      1 0N8        -0.0421
      8 C15        -1.8270   33.1690   15.6860 C.3       1 0N8        -0.0105
      9 C11        -0.7470   34.2270   15.6990 C.3       1 0N8         0.0181
     10 C10        -1.2560   35.1720   14.5270 C.3       1 0N8        -0.0024
     11 C9         -0.3250   36.5000   14.3080 C.3       1 0N8        -0.0297
     12 C14         0.3050   33.2150   15.1820 C.3       1 0N8         0.0790
     13 O27         0.2060   32.7420   13.8920 O.3       1 0N8        -0.3887
     14 C22         1.3140   32.5520   16.1260 C.3       1 0N8         0.0574
     15 C23         2.3160   31.5540   15.5520 C.2       1 0N8         0.1739
     16 O28         2.2390   31.0580   14.4250 O.2       1 0N8        -0.3576
     17 C24         3.2410   30.9980   16.6250 C.2       1 0N8         0.1249
     18 O26         3.1930   31.5240   17.7560 O.co2     1 0N8        -0.5464
     19 O25         4.1290   30.1580   16.3530 O.co2     1 0N8        -0.5464
     20 C12        -0.3230   35.3740   16.3950 C.3       1 0N8        -0.0024
     21 C13         1.0490   35.7590   15.5430 C.3       1 0N8        -0.0297
     22 N8          0.9510   36.0320   14.0470 N.4       1 0N8         0.2472
     23 C7          2.3440   36.4270   13.7310 C.3       1 0N8         0.0019
     24 C2          3.3640   35.4900   13.9090 C.ar      1 0N8         0.0014
     25 C3          4.2890   35.7240   14.9360 C.ar      1 0N8        -0.0553
     26 C4          5.3470   34.8580   15.1970 C.ar      1 0N8        -0.0684
     27 C5          5.5020   33.7400   14.3960 C.ar      1 0N8        -0.0687
     28 C6          4.5840   33.5170   13.3690 C.ar      1 0N8        -0.0684
     29 C1          3.5160   34.3750   13.1000 C.ar      1 0N8        -0.0553
     30 H1         -1.1684   29.2919   18.0174 H         1 0N8         0.0606
     31 H2         -1.3560   30.5899   15.9331 H         1 0N8         0.0557
     32 H3         -1.9426   32.8435   20.2850 H         1 0N8         0.0606
     33 H4         -2.1170   34.1459   18.1906 H         1 0N8         0.0557
     34 H5         -2.8142   33.6441   15.5880 H         1 0N8         0.0433
     35 H6         -1.6658   32.4810   14.8430 H         1 0N8         0.0433
     36 H7         -2.2792   35.4993   14.7632 H         1 0N8         0.0325
     37 H8         -1.2628   34.5935   13.5914 H         1 0N8         0.0325
     38 H9         -0.3260   37.1215   15.2156 H         1 0N8         0.0815
     39 H10        -0.6965   37.0914   13.4582 H         1 0N8         0.0815
     40 H11         1.0092   34.0125   14.9025 H         1 0N8         0.0626
     41 H12         0.9168   32.1348   13.7231 H         1 0N8         0.2100
     42 H13         0.7350   32.0213   16.8961 H         1 0N8         0.0524
     43 H14         1.8954   33.3592   16.5955 H         1 0N8         0.0524
     44 H15        -0.0969   35.1492   17.4478 H         1 0N8         0.0325
     45 H16        -1.0711   36.1789   16.3444 H         1 0N8         0.0325
     46 H17         1.7503   34.9212   15.6701 H         1 0N8         0.0815
     47 H18         1.4703   36.6633   16.0064 H         1 0N8         0.0815
     48 H19         0.8158   35.2166   13.4700 H         1 0N8         0.2048
     49 H20         2.5863   37.2933   14.3640 H         1 0N8         0.0980
     50 H21         2.3629   36.7289   12.6734 H         1 0N8         0.0980
     51 H22         4.1763   36.6111   15.5488 H         1 0N8         0.0558
     52 H23         6.0354   35.0552   16.0108 H         1 0N8         0.0599
     53 H24         6.3214   33.0503   14.5634 H         1 0N8         0.0559
     54 H25         4.7060   32.6353   12.7504 H         1 0N8         0.0599
     55 H26         2.8287   34.1758   12.2857 H         1 0N8         0.0558
@<TRIPOS>BOND
     1    1    2 1  
     2    2    3 ar 
     3    2    5 ar 
     4    3    4 ar 
     5    4    7 ar 
     6    5    6 ar 
     7    6    7 ar 
     8    7    8 1  
     9    8    9 1  
    10    9   10 1  
    11    9   12 1  
    12    9   20 1  
    13   10   11 1  
    14   11   22 1  
    15   12   13 1  
    16   12   14 1  
    17   14   15 1  
    18   15   16 2  
    19   15   17 1  
    20   17   18 ar 
    21   17   19 ar 
    22   20   21 1  
    23   21   22 1  
    24   22   23 1  
    25   23   24 1  
    26   24   25 ar 
    27   24   29 ar 
    28   25   26 ar 
    29   26   27 ar 
    30   27   28 ar 
    31   28   29 ar 
    32    3   30 1  
    33    4   31 1  
    34    5   32 1  
    35    6   33 1  
    36    8   34 1  
    37    8   35 1  
    38   10   36 1  
    39   10   37 1  
    40   11   38 1  
    41   11   39 1  
    42   12   40 1  
    43   13   41 1  
    44   14   42 1  
    45   14   43 1  
    46   20   44 1  
    47   20   45 1  
    48   21   46 1  
    49   21   47 1  
    50   22   48 1  
    51   23   49 1  
    52   23   50 1  
    53   25   51 1  
    54   26   52 1  
    55   27   53 1  
    56   28   54 1  
    57   29   55 1  
@<TRIPOS>SUBSTRUCTURE
     1 0N8         1

