### 
### Created by X-TOOL on Mon Sep 10 21:13:26 2018
### 

@<TRIPOS>MOLECULE
5fdi_ligand
   27    28     1     0     0
SMALL
GAST_HUCK


@<TRIPOS>ATOM
      1 O1         -6.8680    1.0870   16.3020 O.2       1 5WM        -0.1356
      2 O2         -4.8070    1.2910   17.6170 O.2       1 5WM        -0.1356
      3 C1         -5.5850    3.1000   14.6960 C.3       1 5WM         0.0628
      4 C2         -4.7050    4.1260   14.0460 C.2       1 5WM        -0.0017
      5 C3         -5.2900    5.2360   13.2330 C.ar      1 5WM         0.0103
      6 C4         -6.6400    5.5330   12.9340 C.ar      1 5WM        -0.0510
      7 C5         -6.9600    6.6500   12.1270 C.ar      1 5WM        -0.0604
      8 C6         -5.9550    7.4810   11.6070 C.ar      1 5WM        -0.0594
      9 C7         -4.5860    7.2160   11.8880 C.ar      1 5WM        -0.0355
     10 C8         -4.2910    6.0930   12.6990 C.ar      1 5WM         0.0985
     11 C9         -3.3870    4.1620   14.1120 C.2       1 5WM         0.0491
     12 S1         -5.4380    0.9130   16.3830 S.o2      1 5WM         0.1151
     13 N1         -5.0650   -0.5830   16.0760 N.am      1 5WM        -0.2487
     14 N2         -4.8180    1.8680   15.1660 N.am      1 5WM        -0.2240
     15 S2         -2.7130    5.5070   13.2160 S.o2      1 5WM         0.0099
     16 O3         -2.1140    6.4700   14.1100 O.2       1 5WM        -0.1680
     17 O4         -1.9430    5.0390   12.0810 O.2       1 5WM        -0.1680
     18 H1         -6.3478    2.7820   13.9701 H         1 5WM         0.0643
     19 H2         -6.0761    3.5601   15.5661 H         1 5WM         0.0643
     20 H3         -7.4314    4.9033   13.3241 H         1 5WM         0.0631
     21 H4         -7.9987    6.8679   11.9064 H         1 5WM         0.0619
     22 H5         -6.2238    8.3293   10.9879 H         1 5WM         0.0623
     23 H6         -3.7984    7.8495   11.4963 H         1 5WM         0.0638
     24 H7         -2.7872    3.4377   14.6612 H         1 5WM         0.0616
     25 H8         -5.4149   -1.0263   15.2508 H         1 5WM         0.1648
     26 H9         -4.4778   -1.0913   16.7059 H         1 5WM         0.1648
     27 H10        -3.9425    1.6332   14.7436 H         1 5WM         0.1713
@<TRIPOS>BOND
     1   12    1 2  
     2   12    2 2  
     3    3    4 1  
     4   14    3 1  
     5    4    5 1  
     6    4   11 2  
     7    5    6 ar 
     8    5   10 ar 
     9    6    7 ar 
    10    7    8 ar 
    11    9    8 ar 
    12   10    9 ar 
    13   15   10 1  
    14   11   15 1  
    15   12   13 am 
    16   12   14 am 
    17   15   16 2  
    18   15   17 2  
    19    3   18 1  
    20    3   19 1  
    21    6   20 1  
    22    7   21 1  
    23    8   22 1  
    24    9   23 1  
    25   11   24 1  
    26   13   25 1  
    27   13   26 1  
    28   14   27 1  
@<TRIPOS>SUBSTRUCTURE
     1 5WM         1

