### 
### Created by X-TOOL on Mon Sep 10 21:13:29 2018
### 

@<TRIPOS>MOLECULE
5fdo_ligand
   61    64     1     0     0
SMALL
GAST_HUCK


@<TRIPOS>ATOM
      1 C10         6.5900   23.8180   -6.5320 C.3       1 5X2         0.0715
      2 C17         4.2030   19.3050  -10.2150 C.3       1 5X2        -0.0345
      3 C20         6.7360   21.1070   -6.8640 C.ar      1 5X2        -0.0385
      4 C21         6.7980   19.6160   -7.1380 C.ar      1 5X2        -0.0474
      5 C22         7.7000   18.7030   -6.3170 C.3       1 5X2        -0.0345
      6 C01        10.2280   25.7450   -8.4830 C.2       1 5X2         0.0475
      7 C02        11.4500   24.9770   -9.0660 C.3       1 5X2         0.0155
      8 C03        11.2120   23.6290   -9.6620 C.2       1 5X2        -0.0850
      9 C04         9.8550   23.0430   -9.7080 C.2       1 5X2        -0.0926
     10 C05         8.7000   23.8020   -9.1440 C.3       1 5X2        -0.0242
     11 C06         8.9420   25.2190   -8.5100 C.2       1 5X2        -0.0422
     12 C07         8.0900   26.1280   -7.9390 C.2       1 5X2        -0.0476
     13 C08         6.5860   25.9860   -7.7560 C.3       1 5X2        -0.0330
     14 C09         6.3010   25.3120   -6.4240 C.3       1 5X2        -0.0194
     15 O11         5.7220   23.3240   -7.4920 O.3       1 5X2        -0.3210
     16 C12         8.8730   27.2040   -7.5730 C.2       1 5X2         0.1084
     17 N13        10.1700   26.9710   -7.9040 N.pl3     1 5X2        -0.2874
     18 C14         5.9580   19.0050   -8.2300 C.ar      1 5X2         0.0295
     19 CL1         6.1070   17.2500   -8.4830 Cl        1 5X2        -0.0937
     20 C16         5.0400   19.8670   -9.0750 C.ar      1 5X2        -0.0474
     21 C18         4.9840   21.3500   -8.8100 C.ar      1 5X2        -0.0385
     22 C19         5.8210   21.9590   -7.7050 C.ar      1 5X2         0.0784
     23 C23         8.5560   28.4930   -6.8950 C.2       1 5X2         0.2174
     24 O24         7.5240   28.7390   -6.3710 O.2       1 5X2        -0.4028
     25 N25         9.7090   29.3520   -6.9360 N.am      1 5X2        -0.1585
     26 S26         9.6770   30.8880   -6.2480 S.o2      1 5X2         0.0895
     27 O27        10.9470   31.5760   -6.5210 O.2       1 5X2        -0.1457
     28 O28         9.5780   30.8210   -4.7860 O.2       1 5X2        -0.1457
     29 C29         6.0580   33.1910   -8.4320 C.ar      1 5X2        -0.0616
     30 C30         7.2790   32.7500   -9.2200 C.ar      1 5X2        -0.0599
     31 C31         8.3940   32.0240   -8.4920 C.ar      1 5X2        -0.0347
     32 C32         8.2980   31.7520   -7.0110 C.ar      1 5X2         0.1130
     33 C33         7.0930   32.1730   -6.2000 C.ar      1 5X2        -0.0347
     34 C34         5.9790   32.9060   -6.9350 C.ar      1 5X2        -0.0599
     35 H1          6.4105   23.3242   -5.5656 H         1 5X2         0.0615
     36 H2          7.6330   23.6528   -6.8401 H         1 5X2         0.0615
     37 H3          3.6216   20.1162  -10.6775 H         1 5X2         0.0390
     38 H4          3.5170   18.5394   -9.8235 H         1 5X2         0.0390
     39 H5          4.8653   18.8532  -10.9681 H         1 5X2         0.0390
     40 H6          7.3379   21.5504   -6.0790 H         1 5X2         0.0424
     41 H7          8.2413   19.2996   -5.5679 H         1 5X2         0.0390
     42 H8          8.4222   18.2067   -6.9819 H         1 5X2         0.0390
     43 H9          7.0879   17.9437   -5.8084 H         1 5X2         0.0390
     44 H10        12.1762   24.8499   -8.2496 H         1 5X2         0.0546
     45 H11        11.8888   25.6091   -9.8520 H         1 5X2         0.0546
     46 H12        12.0516   23.0679  -10.0696 H         1 5X2         0.0476
     47 H13         9.6988   22.0609  -10.1519 H         1 5X2         0.0477
     48 H14         8.2554   23.1721   -8.3595 H         1 5X2         0.0437
     49 H15         7.9756   23.9363   -9.9608 H         1 5X2         0.0437
     50 H16         6.1730   25.3750   -8.5722 H         1 5X2         0.0370
     51 H17         6.1188   26.9818   -7.7708 H         1 5X2         0.0370
     52 H18         6.9418   25.7532   -5.6464 H         1 5X2         0.0308
     53 H19         5.2445   25.4618   -6.1570 H         1 5X2         0.0308
     54 H20        10.9636   27.6080   -7.7447 H         1 5X2         0.2256
     55 H21         4.3423   21.9825   -9.4126 H         1 5X2         0.0424
     56 H22        10.5448   29.0309   -7.3813 H         1 5X2         0.2121
     57 H23         5.2455   33.7064   -8.9312 H         1 5X2         0.0618
     58 H24         7.3523   32.9503  -10.2828 H         1 5X2         0.0618
     59 H25         9.2693   31.6970   -9.0416 H         1 5X2         0.0637
     60 H26         7.0251   31.9616   -5.1390 H         1 5X2         0.0637
     61 H27         5.1072   33.2339   -6.3804 H         1 5X2         0.0618
@<TRIPOS>BOND
     1   14    1 1  
     2    1   15 1  
     3   20    2 1  
     4    3    4 ar 
     5   22    3 ar 
     6    4    5 1  
     7    4   18 ar 
     8    6    7 1  
     9    6   11 2  
    10   17    6 1  
    11    7    8 1  
    12    8    9 2  
    13   10    9 1  
    14   11   10 1  
    15   12   11 1  
    16   12   13 1  
    17   16   12 2  
    18   13   14 1  
    19   15   22 1  
    20   16   17 1  
    21   23   16 1  
    22   18   19 1  
    23   20   18 ar 
    24   21   20 ar 
    25   22   21 ar 
    26   23   24 2  
    27   25   23 am 
    28   26   25 am 
    29   26   27 2  
    30   26   28 2  
    31   32   26 1  
    32   30   29 ar 
    33   29   34 ar 
    34   31   30 ar 
    35   31   32 ar 
    36   32   33 ar 
    37   33   34 ar 
    38    1   35 1  
    39    1   36 1  
    40    2   37 1  
    41    2   38 1  
    42    2   39 1  
    43    3   40 1  
    44    5   41 1  
    45    5   42 1  
    46    5   43 1  
    47    7   44 1  
    48    7   45 1  
    49    8   46 1  
    50    9   47 1  
    51   10   48 1  
    52   10   49 1  
    53   13   50 1  
    54   13   51 1  
    55   14   52 1  
    56   14   53 1  
    57   17   54 1  
    58   21   55 1  
    59   25   56 1  
    60   29   57 1  
    61   30   58 1  
    62   31   59 1  
    63   33   60 1  
    64   34   61 1  
@<TRIPOS>SUBSTRUCTURE
     1 5X2         1

