### 
### Created by X-TOOL on Mon Sep 10 21:13:28 2018
### 

@<TRIPOS>MOLECULE
5fdp_ligand
   71    75     1     0     0
SMALL
GAST_HUCK


@<TRIPOS>ATOM
      1 CAA        -6.3390    9.9700  -46.9340 C.ar      1 5WR         0.0471
      2 CAC        -5.9260   12.1140  -47.7640 C.ar      1 5WR         0.0759
      3 CAE        -4.1150   10.7480  -47.4850 C.ar      1 5WR         0.0471
      4 CAF        -4.9730    9.6870  -46.9920 C.ar      1 5WR         0.0965
      5 CAH        -5.2130    7.7920  -45.4650 C.3       1 5WR         0.0615
      6 CAI        -4.6160    6.4550  -44.9760 C.ar      1 5WR        -0.0131
      7 CAJ        -3.7660    5.7060  -45.7870 C.ar      1 5WR        -0.0296
      8 CAK        -3.5160    6.2500  -47.2140 C.3       1 5WR         0.0098
      9 CAL        -3.3230    7.7490  -47.1380 C.3       1 5WR         0.0429
     10 CAM        -4.8880    6.0620  -43.6270 C.ar      1 5WR        -0.0447
     11 CAN        -4.2910    4.8630  -43.1290 C.ar      1 5WR         0.0422
     12 CAO        -3.4160    4.0810  -43.9420 C.ar      1 5WR        -0.0549
     13 CAP        -3.1400    4.4850  -45.2570 C.ar      1 5WR        -0.0604
     14 CAQ        -4.6550    4.4390  -41.7540 C.2       1 5WR         0.2259
     15 CAS        -4.5260    2.6330  -40.0370 C.ar      1 5WR         0.0890
     16 CAT        -5.7110    2.9810  -39.3600 C.ar      1 5WR        -0.0184
     17 CAU        -5.9500    2.4880  -38.0570 C.ar      1 5WR         0.0269
     18 CAV        -4.9990    1.6130  -37.4420 C.ar      1 5WR        -0.0391
     19 CAW        -3.8230    1.2580  -38.1280 C.ar      1 5WR         0.0192
     20 CAX        -3.6080    1.7310  -39.4560 C.ar      1 5WR        -0.0044
     21 CAY        -7.2650    2.9670  -37.3210 C.3       1 5WR         0.3708
     22 CAZ        -2.7950    0.3240  -37.4980 C.3       1 5WR         0.0057
     23 NAB        -6.7850   11.1750  -47.3110 N.ar      1 5WR        -0.2763
     24 NAD        -4.6370   11.9160  -47.8500 N.ar      1 5WR        -0.2763
     25 NAG        -4.4460    8.4220  -46.5010 N.pl3     1 5WR        -0.2856
     26 NAR        -4.2290    3.1420  -41.3010 N.am      1 5WR        -0.2297
     27 CBB        -0.6070    0.2540  -37.9510 C.3       1 5WR         0.0109
     28 CBC         0.7360    0.5280  -37.2740 C.3       1 5WR         0.0092
     29 CBE        -0.1700    2.3450  -36.1570 C.3       1 5WR         0.0092
     30 CBF        -1.4770    2.1180  -36.9060 C.3       1 5WR         0.0109
     31 CBG         1.9410    1.8960  -36.0930 C.3       1 5WR        -0.0427
     32 CBI        -2.3560    5.5460  -47.9420 C.3       1 5WR        -0.0510
     33 NBA        -1.6380    0.8110  -37.2480 N.4       1 5WR         0.2548
     34 NBD         0.8920    1.8150  -36.8250 N.4       1 5WR         0.2405
     35 OBH        -5.3520    5.1820  -41.0800 O.2       1 5WR        -0.3763
     36 F01        -7.4910    2.2000  -36.2440 F         1 5WR        -0.2213
     37 F02        -7.1340    4.2090  -36.8850 F         1 5WR        -0.2213
     38 F03        -8.3250    2.9740  -38.1510 F         1 5WR        -0.2213
     39 H1         -7.0361    9.2168  -46.5850 H         1 5WR         0.0838
     40 H2         -6.3237   13.0749  -48.0699 H         1 5WR         0.1011
     41 H3         -3.0452   10.5885  -47.5562 H         1 5WR         0.0838
     42 H4         -5.2711    8.4801  -44.6088 H         1 5WR         0.0667
     43 H5         -6.2252    7.6000  -45.8504 H         1 5WR         0.0667
     44 H6         -4.4243    6.0593  -47.8044 H         1 5WR         0.0474
     45 H7         -3.2083    8.1426  -48.1588 H         1 5WR         0.0544
     46 H8         -2.4113    7.9588  -46.5595 H         1 5WR         0.0544
     47 H9         -5.5338    6.6617  -42.9958 H         1 5WR         0.0588
     48 H10        -2.9664    3.1782  -43.5447 H         1 5WR         0.0595
     49 H11        -2.4701    3.9014  -45.8780 H         1 5WR         0.0551
     50 H12        -6.4392    3.6264  -39.8378 H         1 5WR         0.0665
     51 H13        -5.1848    1.2237  -36.4475 H         1 5WR         0.0674
     52 H14        -2.7424    1.3991  -40.0178 H         1 5WR         0.0704
     53 H15        -2.6556   -0.5251  -38.1832 H         1 5WR         0.0983
     54 H16        -3.2145   -0.0369  -36.5474 H         1 5WR         0.0983
     55 H17        -3.6914    2.5753  -41.9254 H         1 5WR         0.2252
     56 H18        -0.7618   -0.8332  -38.0139 H         1 5WR         0.0868
     57 H19        -0.5917    0.6814  -38.9644 H         1 5WR         0.0868
     58 H20         1.5361    0.3172  -37.9988 H         1 5WR         0.0868
     59 H21         0.8324   -0.1506  -36.4136 H         1 5WR         0.0868
     60 H22        -0.2400    1.8720  -35.1664 H         1 5WR         0.0868
     61 H23        -0.0114    3.4268  -36.0365 H         1 5WR         0.0868
     62 H24        -1.4748    2.7286  -37.8209 H         1 5WR         0.0868
     63 H25        -2.3150    2.4244  -36.2626 H         1 5WR         0.0868
     64 H26         2.7986    1.4679  -36.6327 H         1 5WR         0.0778
     65 H27         1.7802    1.3381  -35.1587 H         1 5WR         0.0778
     66 H28         2.1446    2.9515  -35.8595 H         1 5WR         0.0778
     67 H29        -2.5443    4.4626  -47.9699 H         1 5WR         0.0254
     68 H30        -1.4150    5.7409  -47.4067 H         1 5WR         0.0254
     69 H31        -2.2801    5.9315  -48.9694 H         1 5WR         0.0254
     70 H32        -1.4829    0.3926  -36.3442 H         1 5WR         0.2053
     71 H33         1.0376    2.3896  -37.6403 H         1 5WR         0.2035
@<TRIPOS>BOND
     1    4    1 ar 
     2    1   23 ar 
     3   23    2 ar 
     4   24    2 ar 
     5    4    3 ar 
     6    3   24 ar 
     7   25    4 1  
     8    6    5 1  
     9    5   25 1  
    10    6    7 ar 
    11   10    6 ar 
    12    7    8 1  
    13   13    7 ar 
    14    8    9 1  
    15    8   32 1  
    16   25    9 1  
    17   11   10 ar 
    18   11   12 ar 
    19   14   11 1  
    20   12   13 ar 
    21   26   14 am 
    22   14   35 2  
    23   15   16 ar 
    24   20   15 ar 
    25   15   26 1  
    26   17   16 ar 
    27   18   17 ar 
    28   17   21 1  
    29   19   18 ar 
    30   19   20 ar 
    31   22   19 1  
    32   21   36 1  
    33   21   37 1  
    34   21   38 1  
    35   33   22 1  
    36   28   27 1  
    37   27   33 1  
    38   34   28 1  
    39   29   30 1  
    40   29   34 1  
    41   30   33 1  
    42   34   31 1  
    43    1   39 1  
    44    2   40 1  
    45    3   41 1  
    46    5   42 1  
    47    5   43 1  
    48    8   44 1  
    49    9   45 1  
    50    9   46 1  
    51   10   47 1  
    52   12   48 1  
    53   13   49 1  
    54   16   50 1  
    55   18   51 1  
    56   20   52 1  
    57   22   53 1  
    58   22   54 1  
    59   26   55 1  
    60   27   56 1  
    61   27   57 1  
    62   28   58 1  
    63   28   59 1  
    64   29   60 1  
    65   29   61 1  
    66   30   62 1  
    67   30   63 1  
    68   31   64 1  
    69   31   65 1  
    70   31   66 1  
    71   32   67 1  
    72   32   68 1  
    73   32   69 1  
    74   33   70 1  
    75   34   71 1  
@<TRIPOS>SUBSTRUCTURE
     1 5WR         1

