### 
### Created by X-TOOL on Mon Sep 10 21:13:29 2018
### 

@<TRIPOS>MOLECULE
5fdr_ligand
   71    75     1     0     0
SMALL
GAST_HUCK


@<TRIPOS>ATOM
      1 C10        39.5660   -0.7550   20.0080 C.2       1 5X3         0.2350
      2 N12        37.2410   -0.1750   20.6150 N.pl3     1 5X3        -0.2780
      3 C13        36.3030    0.7370   20.3480 C.ar      1 5X3         0.0643
      4 C15        35.9880    2.6950   19.0170 C.ar      1 5X3        -0.0782
      5 C17        34.1880    1.8910   20.4050 C.ar      1 5X3         0.0228
      6 C20        34.4410   -0.1850   21.7970 C.2       1 5X3         0.0026
      7 C21        34.1440   -1.5340   21.4530 C.2       1 5X3         0.0730
      8 C22        34.3650   -2.1780   20.0840 C.3       1 5X3         0.0005
      9 C26        34.1730    1.1960   23.9990 C.3       1 5X3        -0.0288
     10 C28        39.1980    1.8700   18.2190 C.3       1 5X3        -0.0268
     11 O01        40.8440   -7.6030   16.3110 O.co2     1 5X3        -0.5620
     12 C02        41.4090   -6.8630   17.1720 C.2       1 5X3         0.0900
     13 C03        40.6710   -5.6740   17.7950 C.2       1 5X3         0.1484
     14 C04        39.5800   -4.9630   17.2630 C.2       1 5X3        -0.0494
     15 C05        39.2870   -3.9720   18.2590 C.2       1 5X3        -0.0324
     16 C06        40.2400   -4.1850   19.2700 C.2       1 5X3         0.2548
     17 S07        40.3800   -3.2710   20.8240 S.o2      1 5X3         0.1208
     18 O08        39.8740   -4.3050   22.0020 O.2       1 5X3        -0.1428
     19 N09        39.2690   -2.0170   20.6590 N.am      1 5X3        -0.1521
     20 C11        38.3370    0.1270   19.9530 C.2       1 5X3         0.1279
     21 C14        36.8160    1.6480   19.4470 C.ar      1 5X3        -0.0171
     22 C16        34.6760    2.8170   19.4970 C.ar      1 5X3        -0.0717
     23 CL2        32.5250    2.0440   21.0130 Cl        1 5X3        -0.0859
     24 C19        34.9960    0.8600   20.8360 C.ar      1 5X3        -0.0059
     25 N23        33.6630   -2.1340   22.5140 N.pl3     1 5X3        -0.2239
     26 N24        33.6300   -1.2490   23.5180 N.2       1 5X3        -0.2390
     27 C25        34.0740   -0.0660   23.1460 C.2       1 5X3         0.0050
     28 C27        38.1480    1.2470   19.1630 C.2       1 5X3        -0.0218
     29 C29        40.0050    2.9560   18.9170 C.3       1 5X3        -0.0186
     30 C30        39.1680    4.2180   18.9180 C.3       1 5X3         0.0716
     31 O31        38.6220    4.4110   17.6330 O.3       1 5X3        -0.3210
     32 C32        38.0100    5.6870   17.5350 C.ar      1 5X3         0.0784
     33 C33        37.8440    6.4280   18.6950 C.ar      1 5X3        -0.0385
     34 C34        37.2470    7.6700   18.6490 C.ar      1 5X3        -0.0474
     35 C35        37.0290    8.5160   19.9120 C.3       1 5X3        -0.0345
     36 C36        37.5940    6.1880   16.3110 C.ar      1 5X3        -0.0385
     37 C37        37.0020    7.4360   16.2610 C.ar      1 5X3        -0.0474
     38 C38        36.5230    8.0360   14.9370 C.3       1 5X3        -0.0345
     39 C39        36.8340    8.1660   17.4330 C.ar      1 5X3         0.0295
     40 CL         36.0830    9.7720   17.4090 Cl        1 5X3        -0.0937
     41 O41        40.6190   -0.4560   19.5160 O.2       1 5X3        -0.3909
     42 O42        41.8880   -2.7280   21.1710 O.2       1 5X3        -0.1428
     43 O43        41.0030   -5.1710   18.9490 O.3       1 5X3        -0.2279
     44 O44        42.5770   -7.1150   17.5720 O.co2     1 5X3        -0.5620
     45 H1         37.1250   -0.9857   21.2397 H         1 5X3         0.2205
     46 H2         36.3669    3.4190   18.3047 H         1 5X3         0.0492
     47 H3         34.0429   -3.2293   20.1171 H         1 5X3         0.0453
     48 H4         35.4328   -2.1297   19.8241 H         1 5X3         0.0453
     49 H5         33.7783   -1.6384   19.3259 H         1 5X3         0.0453
     50 H6         33.8115    0.9808   25.0154 H         1 5X3         0.0379
     51 H7         33.5576    1.9903   23.5514 H         1 5X3         0.0379
     52 H8         35.2212    1.5262   24.0450 H         1 5X3         0.0379
     53 H9         38.6827    2.3096   17.3523 H         1 5X3         0.0381
     54 H10        39.8832    1.0806   17.8766 H         1 5X3         0.0381
     55 H11        39.0736   -5.1270   16.3129 H         1 5X3         0.0394
     56 H12        38.4994   -3.2203   18.2364 H         1 5X3         0.0369
     57 H13        38.3505   -2.1498   21.0315 H         1 5X3         0.2131
     58 H14        34.0463    3.6322   19.1592 H         1 5X3         0.0503
     59 H15        33.3620   -3.1176   22.5665 H         1 5X3         0.2504
     60 H16        40.9464    3.1306   18.3755 H         1 5X3         0.0309
     61 H17        40.2274    2.6525   19.9506 H         1 5X3         0.0309
     62 H18        39.7998    5.0787   19.1827 H         1 5X3         0.0615
     63 H19        38.3551    4.1202   19.6526 H         1 5X3         0.0615
     64 H20        38.1854    6.0288   19.6432 H         1 5X3         0.0424
     65 H21        37.4145    7.9734   20.7878 H         1 5X3         0.0390
     66 H22        35.9539    8.7080   20.0437 H         1 5X3         0.0390
     67 H23        37.5624    9.4725   19.8093 H         1 5X3         0.0390
     68 H24        37.7312    5.6086   15.4052 H         1 5X3         0.0424
     69 H25        36.7317    7.3315   14.1184 H         1 5X3         0.0390
     70 H26        37.0522    8.9821   14.7504 H         1 5X3         0.0390
     71 H27        35.4408    8.2256   14.9906 H         1 5X3         0.0390
@<TRIPOS>BOND
     1    1   19 am 
     2   20    1 1  
     3    1   41 2  
     4    2    3 1  
     5   20    2 1  
     6    3   21 ar 
     7    3   24 ar 
     8   21    4 ar 
     9    4   22 ar 
    10    5   22 ar 
    11    5   23 1  
    12   24    5 ar 
    13    6    7 2  
    14   24    6 1  
    15    6   27 1  
    16    7    8 1  
    17    7   25 1  
    18   27    9 1  
    19   28   10 1  
    20   10   29 1  
    21   12   11 ar 
    22   13   12 1  
    23   12   44 ar 
    24   13   14 2  
    25   43   13 1  
    26   15   14 1  
    27   16   15 2  
    28   17   16 1  
    29   16   43 1  
    30   17   18 2  
    31   19   17 am 
    32   17   42 2  
    33   20   28 2  
    34   21   28 1  
    35   25   26 1  
    36   26   27 2  
    37   29   30 1  
    38   30   31 1  
    39   31   32 1  
    40   32   33 ar 
    41   32   36 ar 
    42   33   34 ar 
    43   34   35 1  
    44   34   39 ar 
    45   36   37 ar 
    46   37   38 1  
    47   37   39 ar 
    48   39   40 1  
    49    2   45 1  
    50    4   46 1  
    51    8   47 1  
    52    8   48 1  
    53    8   49 1  
    54    9   50 1  
    55    9   51 1  
    56    9   52 1  
    57   10   53 1  
    58   10   54 1  
    59   14   55 1  
    60   15   56 1  
    61   19   57 1  
    62   22   58 1  
    63   25   59 1  
    64   29   60 1  
    65   29   61 1  
    66   30   62 1  
    67   30   63 1  
    68   33   64 1  
    69   35   65 1  
    70   35   66 1  
    71   35   67 1  
    72   36   68 1  
    73   38   69 1  
    74   38   70 1  
    75   38   71 1  
@<TRIPOS>SUBSTRUCTURE
     1 5X3         1

