### 
### Created by X-TOOL on Mon Sep 10 21:13:29 2018
### 

@<TRIPOS>MOLECULE
5fdz_ligand
   52    54     1     0     0
SMALL
GAST_HUCK


@<TRIPOS>ATOM
      1 CAN        -0.6570    9.5680   76.3450 C.3       1 5X0         0.0013
      2 CAL        -1.7090    8.9910   77.2490 C.3       1 5X0         0.0504
      3 OAS        -2.9130    8.7500   76.5010 O.3       1 5X0        -0.3796
      4 CAM        -2.7220    7.6810   75.5920 C.3       1 5X0         0.0504
      5 CAO        -1.6080    8.0080   74.6200 C.3       1 5X0         0.0013
      6 CBB        -1.0420    9.3930   74.8550 C.3       1 5X0         0.0848
      7 OAU         0.1770    9.6760   74.0280 O.3       1 5X0        -0.3162
      8 CAZ         0.3260    9.2700   72.7000 C.ar      1 5X0         0.1019
      9 CBA         0.3710   10.2680   71.6770 C.ar      1 5X0         0.0700
     10 CAK         0.5580    9.8210   70.3510 C.ar      1 5X0        -0.0214
     11 CAW         0.2470   11.6760   71.8690 C.2       1 5X0         0.1966
     12 OAC         0.6960   12.4550   71.0320 O.2       1 5X0        -0.3909
     13 NAQ        -0.4060   12.1180   72.9580 N.am      1 5X0        -0.2912
     14 CAA        -0.5200   13.5660   73.1680 C.3       1 5X0         0.0188
     15 CAJ         0.4880    7.9110   72.3480 C.ar      1 5X0        -0.0347
     16 CAI         0.6580    7.5100   71.0170 C.ar      1 5X0        -0.0365
     17 CAY         0.7060    8.4760   70.0060 C.ar      1 5X0         0.0884
     18 OAT         0.8520    8.1890   68.6730 O.3       1 5X0        -0.3032
     19 CAP         1.4720    6.9680   68.2320 C.3       1 5X0         0.1625
     20 CAV         1.7250    7.0510   66.7110 C.2       1 5X0         0.2341
     21 OAB         2.1530    6.0730   66.0930 O.2       1 5X0        -0.3819
     22 NAR         1.4410    8.2580   66.1660 N.am      1 5X0        -0.2317
     23 CAX         1.6380    8.4810   64.8600 C.ar      1 5X0         0.0663
     24 CAG         0.7880    7.9180   63.9020 C.ar      1 5X0        -0.0413
     25 CAE         1.0030    8.1910   62.5450 C.ar      1 5X0        -0.0755
     26 CAD         2.0550    9.0290   62.1470 C.ar      1 5X0        -0.0772
     27 CAF         2.8970    9.6030   63.1040 C.ar      1 5X0        -0.0755
     28 CAH         2.6830    9.3310   64.4550 C.ar      1 5X0        -0.0413
     29 H1          0.2976    9.0543   76.5316 H         1 5X0         0.0316
     30 H2         -0.5452   10.6403   76.5631 H         1 5X0         0.0316
     31 H3         -1.9203    9.7000   78.0630 H         1 5X0         0.0561
     32 H4         -1.3465    8.0431   77.6732 H         1 5X0         0.0561
     33 H5         -3.6533    7.5105   75.0320 H         1 5X0         0.0561
     34 H6         -2.4591    6.7715   76.1520 H         1 5X0         0.0561
     35 H7         -2.0034    7.9547   73.5949 H         1 5X0         0.0316
     36 H8         -0.8021    7.2692   74.7411 H         1 5X0         0.0316
     37 H9         -1.8186   10.1275   74.5954 H         1 5X0         0.0650
     38 H10         0.5883   10.5607   69.5591 H         1 5X0         0.0563
     39 H11        -0.8053   11.4741   73.6107 H         1 5X0         0.1837
     40 H12        -1.0781   13.7591   74.0960 H         1 5X0         0.0483
     41 H13        -1.0528   14.0189   72.3189 H         1 5X0         0.0483
     42 H14         0.4853   14.0054   73.2466 H         1 5X0         0.0483
     43 H15         0.4805    7.1591   73.1288 H         1 5X0         0.0530
     44 H16         0.7518    6.4583   70.7717 H         1 5X0         0.0555
     45 H17         0.8081    6.1183   68.4492 H         1 5X0         0.0860
     46 H18         2.4284    6.8297   68.7575 H         1 5X0         0.0860
     47 H19         1.0807    8.9899   66.7444 H         1 5X0         0.2258
     48 H20        -0.0302    7.2758   64.2073 H         1 5X0         0.0502
     49 H21         0.3521    7.7518   61.7976 H         1 5X0         0.0577
     50 H22         2.2156    9.2321   61.0944 H         1 5X0         0.0487
     51 H23         3.7087   10.2535   62.7988 H         1 5X0         0.0577
     52 H24         3.3290    9.7795   65.2011 H         1 5X0         0.0502
@<TRIPOS>BOND
     1    1    2 1  
     2    1    6 1  
     3    2    3 1  
     4    3    4 1  
     5    4    5 1  
     6    5    6 1  
     7    6    7 1  
     8    7    8 1  
     9    8    9 ar 
    10    8   15 ar 
    11    9   10 ar 
    12    9   11 1  
    13   10   17 ar 
    14   11   12 2  
    15   11   13 am 
    16   13   14 1  
    17   15   16 ar 
    18   16   17 ar 
    19   17   18 1  
    20   18   19 1  
    21   19   20 1  
    22   20   21 2  
    23   20   22 am 
    24   22   23 1  
    25   23   24 ar 
    26   23   28 ar 
    27   24   25 ar 
    28   25   26 ar 
    29   26   27 ar 
    30   27   28 ar 
    31    1   29 1  
    32    1   30 1  
    33    2   31 1  
    34    2   32 1  
    35    4   33 1  
    36    4   34 1  
    37    5   35 1  
    38    5   36 1  
    39    6   37 1  
    40   10   38 1  
    41   13   39 1  
    42   14   40 1  
    43   14   41 1  
    44   14   42 1  
    45   15   43 1  
    46   16   44 1  
    47   19   45 1  
    48   19   46 1  
    49   22   47 1  
    50   24   48 1  
    51   25   49 1  
    52   26   50 1  
    53   27   51 1  
    54   28   52 1  
@<TRIPOS>SUBSTRUCTURE
     1 5X0         1

