### 
### Created by X-TOOL on Mon Sep 10 21:13:27 2018
### 

@<TRIPOS>MOLECULE
5fe6_ligand
   27    28     1     0     0
SMALL
GAST_HUCK


@<TRIPOS>ATOM
      1 C4          0.6790    7.6270   32.9760 C.3       1 5WZ         0.0106
      2 C5          0.6710   11.4090   32.8820 C.2       1 5WZ         0.1869
      3 C6         -0.4020   11.7260   33.7730 C.3       1 5WZ         0.0862
      4 N1          1.0710   10.1100   32.8090 N.am      1 5WZ        -0.2731
      5 C7         -1.1430   12.9890   33.4860 C.2       1 5WZ        -0.0573
      6 C8         -0.2040   12.9380   34.6350 C.2       1 5WZ        -0.0573
      7 O           1.1230   12.2880   32.1500 O.2       1 5WZ        -0.4001
      8 C2          2.1440    9.6130   31.9480 C.3       1 5WZ         0.0387
      9 C1          1.5950    8.6770   30.8650 C.3       1 5WZ         0.0106
     10 C3          0.4380    9.0170   33.5850 C.3       1 5WZ         0.0387
     11 C           0.6270    7.6690   31.4590 C.3       1 5WZ        -0.0206
     12 N           0.8250    6.3280   30.9020 N.4       1 5WZ         0.2208
     13 H1         -0.0959    6.9371   33.3415 H         1 5WZ         0.0339
     14 H2          1.6694    7.2657   33.2900 H         1 5WZ         0.0339
     15 H3         -0.9094   10.8227   34.1424 H         1 5WZ         0.0640
     16 H4         -1.8548   13.5443   32.8769 H         1 5WZ         0.0613
     17 H5          0.2766   13.4242   35.4827 H         1 5WZ         0.0613
     18 H6          2.8720    9.0631   32.5625 H         1 5WZ         0.0523
     19 H7          2.6421   10.4670   31.4657 H         1 5WZ         0.0523
     20 H8          2.4320    8.1391   30.3959 H         1 5WZ         0.0339
     21 H9          1.0709    9.2745   30.1046 H         1 5WZ         0.0339
     22 H10         0.8494    9.0283   34.6051 H         1 5WZ         0.0523
     23 H11        -0.6462    9.1985   33.6248 H         1 5WZ         0.0523
     24 H12        -0.3855    7.9944   31.1779 H         1 5WZ         0.0851
     25 H13         0.1660    5.6899   31.3199 H         1 5WZ         0.1997
     26 H14         1.7638    6.0178   31.0984 H         1 5WZ         0.1997
     27 H15         0.6813    6.3538   29.9046 H         1 5WZ         0.1997
@<TRIPOS>BOND
     1   10    1 1  
     2    1   11 1  
     3    2    3 1  
     4    4    2 am 
     5    2    7 2  
     6    3    5 1  
     7    3    6 1  
     8    4    8 1  
     9    4   10 1  
    10    5    6 2  
    11    8    9 1  
    12    9   11 1  
    13   11   12 1  
    14    1   13 1  
    15    1   14 1  
    16    3   15 1  
    17    5   16 1  
    18    6   17 1  
    19    8   18 1  
    20    8   19 1  
    21    9   20 1  
    22    9   21 1  
    23   10   22 1  
    24   10   23 1  
    25   11   24 1  
    26   12   25 1  
    27   12   26 1  
    28   12   27 1  
@<TRIPOS>SUBSTRUCTURE
     1 5WZ         1

