### 
### Created by X-TOOL on Mon Sep 10 21:13:27 2018
### 

@<TRIPOS>MOLECULE
5fe7_ligand
   28    29     1     0     0
SMALL
GAST_HUCK


@<TRIPOS>ATOM
      1 C4        -10.0410   39.1250   22.7750 C.2       1 5WU         0.0895
      2 C5         -9.8060   38.7560   24.0810 C.2       1 5WU         0.0493
      3 C6         -8.9880   37.6170   24.4490 C.2       1 5WU         0.1031
      4 N1        -10.8760   40.2010   22.8350 N.pl3     1 5WU        -0.2038
      5 C7         -8.3200   36.8650   23.3260 C.3       1 5WU         0.0171
      6 C8         -9.0580   36.9690   21.9810 C.3       1 5WU        -0.0232
      7 C9         -9.4310   38.4220   21.6050 C.3       1 5WU         0.0176
      8 O1         -8.8090   37.3060   25.6320 O.2       1 5WU        -0.4026
      9 C1        -10.5360   39.6920   24.8630 C.2       1 5WU         0.0119
     10 C         -10.5860   39.8530   26.3440 C.3       1 5WU        -0.0280
     11 N         -11.1950   40.5370   24.1060 N.2       1 5WU        -0.2349
     12 C2        -11.3620   41.0610   21.7550 C.3       1 5WU         0.0919
     13 C3        -10.7080   42.4370   21.7660 C.3       1 5WU         0.0730
     14 O          -9.2970   42.3720   21.4910 O.3       1 5WU        -0.3922
     15 H1         -8.2607   35.8032   23.6073 H         1 5WU         0.0478
     16 H2         -7.3045   37.2671   23.1958 H         1 5WU         0.0478
     17 H3         -9.9818   36.3749   22.0416 H         1 5WU         0.0317
     18 H4         -8.4093   36.5590   21.1930 H         1 5WU         0.0317
     19 H5         -8.5235   38.9594   21.2925 H         1 5WU         0.0501
     20 H6        -10.1526   38.4073   20.7749 H         1 5WU         0.0501
     21 H7        -11.2591   40.6845   26.5999 H         1 5WU         0.0382
     22 H8         -9.5764   40.0685   26.7237 H         1 5WU         0.0382
     23 H9        -10.9595   38.9249   26.8013 H         1 5WU         0.0382
     24 H10       -12.4492   41.1863   21.8658 H         1 5WU         0.0653
     25 H11       -11.1451   40.5750   20.7923 H         1 5WU         0.0653
     26 H12       -10.8549   42.8908   22.7572 H         1 5WU         0.0586
     27 H13       -11.1892   43.0638   21.0008 H         1 5WU         0.0586
     28 H14        -9.1601   41.9870   20.6334 H         1 5WU         0.2095
@<TRIPOS>BOND
     1    1    2 2  
     2    1    4 1  
     3    1    7 1  
     4    2    3 1  
     5    2    9 1  
     6    3    5 1  
     7    3    8 2  
     8    4   11 1  
     9    4   12 1  
    10    5    6 1  
    11    6    7 1  
    12    9   10 1  
    13    9   11 2  
    14   12   13 1  
    15   13   14 1  
    16    5   15 1  
    17    5   16 1  
    18    6   17 1  
    19    6   18 1  
    20    7   19 1  
    21    7   20 1  
    22   10   21 1  
    23   10   22 1  
    24   10   23 1  
    25   12   24 1  
    26   12   25 1  
    27   13   26 1  
    28   13   27 1  
    29   14   28 1  
@<TRIPOS>SUBSTRUCTURE
     1 5WU         1

