### 
### Created by X-TOOL on Mon Sep 10 21:13:29 2018
### 

@<TRIPOS>MOLECULE
5fe9_ligand
   32    33     1     0     0
SMALL
GAST_HUCK


@<TRIPOS>ATOM
      1 CAA       -12.2620   17.6810   76.1540 C.2       1 5WS        -0.1265
      2 CAL       -11.2730   18.3300   76.9180 C.2       1 5WS        -0.0489
      3 CAI       -10.5890   19.3730   76.3130 C.3       1 5WS         0.0723
      4 CAN        -9.6070   20.0820   76.9920 C.2       1 5WS         0.2195
      5 OAD        -9.0390   20.9960   76.4040 O.2       1 5WS        -0.3814
      6 NAQ        -9.2900   19.7830   78.2640 N.am      1 5WS        -0.2198
      7 CAB        -8.2090   20.6000   78.9250 C.3       1 5WS         0.0466
      8 CAP        -9.9430   18.7580   78.9120 C.ar      1 5WS         0.0697
      9 CAJ        -9.6320   18.4140   80.2430 C.ar      1 5WS        -0.0207
     10 CAO       -10.9500   18.0070   78.2510 C.ar      1 5WS        -0.0064
     11 CAH       -11.6020   16.9640   78.9410 C.ar      1 5WS        -0.0759
     12 CAG       -11.2710   16.6540   80.2510 C.ar      1 5WS        -0.0546
     13 CAM       -10.2820   17.3740   80.9010 C.ar      1 5WS         0.0541
     14 NAK        -9.9610   17.0800   82.1620 N.am      1 5WS        -0.1922
     15 SAR        -8.7130   15.9580   82.4560 S.o2      1 5WS         0.0583
     16 OAE        -8.9090   14.7220   81.5760 O.2       1 5WS        -0.1498
     17 OAF        -7.3360   16.5670   82.1710 O.2       1 5WS        -0.1498
     18 CAC        -8.7940   15.5680   84.1950 C.3       1 5WS         0.0791
     19 H1        -12.4494   17.9933   75.1277 H         1 5WS         0.0143
     20 H2        -12.8394   16.8668   76.5895 H         1 5WS         0.0143
     21 H3        -11.3486   20.1078   76.0079 H         1 5WS         0.0671
     22 H4        -10.1065   18.9516   75.4188 H         1 5WS         0.0671
     23 H5         -7.8366   21.3559   78.2179 H         1 5WS         0.0557
     24 H6         -7.3820   19.9397   79.2251 H         1 5WS         0.0557
     25 H7         -8.6197   21.1006   79.8142 H         1 5WS         0.0557
     26 H8         -8.8666   18.9741   80.7679 H         1 5WS         0.0363
     27 H9        -12.3755   16.3948   78.4382 H         1 5WS         0.0563
     28 H10       -11.7849   15.8501   80.7655 H         1 5WS         0.0390
     29 H11       -10.4454   17.5115   82.9230 H         1 5WS         0.2184
     30 H12        -8.0059   14.8425   84.4451 H         1 5WS         0.0488
     31 H13        -9.7781   15.1354   84.4283 H         1 5WS         0.0488
     32 H14        -8.6479   16.4856   84.7838 H         1 5WS         0.0488
@<TRIPOS>BOND
     1    1    2 2  
     2    2    3 1  
     3    2   10 1  
     4    3    4 1  
     5    4    5 2  
     6    4    6 am 
     7    6    7 1  
     8    6    8 1  
     9    8    9 ar 
    10    8   10 ar 
    11    9   13 ar 
    12   10   11 ar 
    13   11   12 ar 
    14   12   13 ar 
    15   13   14 1  
    16   14   15 am 
    17   15   16 2  
    18   15   17 2  
    19   15   18 1  
    20    1   19 1  
    21    1   20 1  
    22    3   21 1  
    23    3   22 1  
    24    7   23 1  
    25    7   24 1  
    26    7   25 1  
    27    9   26 1  
    28   11   27 1  
    29   12   28 1  
    30   14   29 1  
    31   18   30 1  
    32   18   31 1  
    33   18   32 1  
@<TRIPOS>SUBSTRUCTURE
     1 5WS         1

