### 
### Created by X-TOOL on Mon Sep 10 21:13:30 2018
### 

@<TRIPOS>MOLECULE
5fgk_ligand
   49    53     1     0     0
SMALL
GAST_HUCK


@<TRIPOS>ATOM
      1 C2         -4.0010  -21.3190  140.4010 C.2       1 5XG         0.1088
      2 C5         -5.3150  -21.3730  142.2840 C.ar      1 5XG         0.0803
      3 C6         -6.0270  -22.0240  143.3250 C.ar      1 5XG        -0.0316
      4 C7         -6.0560  -23.4110  143.3870 C.ar      1 5XG        -0.0259
      5 C8         -5.3560  -24.1970  142.4460 C.ar      1 5XG        -0.0664
      6 C11        -6.7710  -24.1050  144.4950 C.ar      1 5XG         0.0260
      7 C12        -7.9610  -24.7850  144.2380 C.ar      1 5XG         0.0046
      8 N13        -8.6100  -25.4180  145.2040 N.ar      1 5XG        -0.3149
      9 C15        -6.9900  -24.7910  146.8030 C.ar      1 5XG         0.0853
     10 C17        -6.2510  -24.1100  145.8270 C.ar      1 5XG         0.0849
     11 C19        -3.7960  -23.8040  145.4930 C.3       1 5XG         0.0300
     12 C21        -2.5800  -22.4370  147.2190 C.3       1 5XG         0.0568
     13 C23        -1.3750  -20.3710  147.2560 C.3       1 5XG         0.0306
     14 O26        -1.1740  -23.4640  148.8830 O.2       1 5XG        -0.3443
     15 C27        -3.8760  -22.2470  147.9970 C.3       1 5XG        -0.0201
     16 N1         -3.2250  -21.6560  139.2990 N.pl3     1 5XG        -0.3316
     17 N3         -4.3030  -20.0710  140.8020 N.2       1 5XG        -0.2155
     18 N4         -5.1060  -20.1100  141.9400 N.pl3     1 5XG        -0.2335
     19 C9         -4.6620  -23.6240  141.4210 C.ar      1 5XG        -0.0626
     20 C10        -4.6050  -22.2100  141.2920 C.ar      1 5XG         0.0329
     21 C14        -8.1570  -25.4300  146.4450 C.ar      1 5XG         0.0103
     22 CL1        -6.4980  -24.8710  148.4650 Cl        1 5XG        -0.0720
     23 N18        -5.0650  -23.4340  146.1510 N.pl3     1 5XG        -0.2982
     24 C20        -2.6090  -23.7510  146.4420 C.3       1 5XG        -0.0201
     25 C22        -2.2600  -21.2260  146.3130 C.3       1 5XG        -0.0202
     26 N24        -0.7810  -21.3210  148.2030 N.am      1 5XG        -0.2859
     27 C25        -1.4430  -22.4960  148.1980 C.2       1 5XG         0.2020
     28 C28        -5.1030  -22.2840  147.0780 C.3       1 5XG         0.0300
     29 H1         -6.5489  -21.4377  144.0727 H         1 5XG         0.0542
     30 H2         -5.3703  -25.2768  142.5399 H         1 5XG         0.0519
     31 H3         -8.3618  -24.7958  143.2309 H         1 5XG         0.0784
     32 H4         -3.6138  -23.1072  144.6616 H         1 5XG         0.0521
     33 H5         -3.8879  -24.8274  145.1004 H         1 5XG         0.0521
     34 H6         -1.9868  -19.6283  147.7891 H         1 5XG         0.0520
     35 H7         -0.5891  -19.8561  146.6839 H         1 5XG         0.0520
     36 H8         -3.8443  -21.2742  148.5094 H         1 5XG         0.0277
     37 H9         -3.9651  -23.0512  148.7422 H         1 5XG         0.0277
     38 H10        -3.0512  -22.6462  139.0750 H         1 5XG         0.1702
     39 H11        -2.8235  -20.9156  138.7060 H         1 5XG         0.1702
     40 H12        -5.4784  -19.2874  142.4356 H         1 5XG         0.2333
     41 H13        -4.1506  -24.2515  140.7000 H         1 5XG         0.0598
     42 H14        -8.7208  -25.9588  147.2050 H         1 5XG         0.0781
     43 H15        -1.6802  -23.8440  145.8601 H         1 5XG         0.0277
     44 H16        -2.6812  -24.5868  147.1535 H         1 5XG         0.0277
     45 H17        -3.1741  -20.6884  146.0206 H         1 5XG         0.0277
     46 H18        -1.7098  -21.5316  145.4108 H         1 5XG         0.0277
     47 H19         0.0126  -21.1228  148.7782 H         1 5XG         0.1857
     48 H20        -5.1347  -21.3548  146.4902 H         1 5XG         0.0521
     49 H21        -6.0089  -22.3570  147.6976 H         1 5XG         0.0521
@<TRIPOS>BOND
     1    1   16 1  
     2    1   17 2  
     3   20    1 1  
     4    3    2 ar 
     5    2   18 1  
     6    2   20 ar 
     7    4    3 ar 
     8    4    5 ar 
     9    6    4 1  
    10    5   19 ar 
    11    6    7 ar 
    12   10    6 ar 
    13    7    8 ar 
    14   21    8 ar 
    15   10    9 ar 
    16    9   21 ar 
    17    9   22 1  
    18   23   10 1  
    19   11   23 1  
    20   24   11 1  
    21   12   15 1  
    22   12   24 1  
    23   12   25 1  
    24   12   27 1  
    25   25   13 1  
    26   13   26 1  
    27   27   14 2  
    28   15   28 1  
    29   17   18 1  
    30   19   20 ar 
    31   23   28 1  
    32   26   27 am 
    33    3   29 1  
    34    5   30 1  
    35    7   31 1  
    36   11   32 1  
    37   11   33 1  
    38   13   34 1  
    39   13   35 1  
    40   15   36 1  
    41   15   37 1  
    42   16   38 1  
    43   16   39 1  
    44   18   40 1  
    45   19   41 1  
    46   21   42 1  
    47   24   43 1  
    48   24   44 1  
    49   25   45 1  
    50   25   46 1  
    51   26   47 1  
    52   28   48 1  
    53   28   49 1  
@<TRIPOS>SUBSTRUCTURE
     1 5XG         1

