### 
### Created by X-TOOL on Mon Sep 10 21:13:30 2018
### 

@<TRIPOS>MOLECULE
5fh6_ligand
   44    47     1     0     0
SMALL
GAST_HUCK


@<TRIPOS>ATOM
      1 CAQ        15.6060   30.9060   18.2840 C.3       1 5XM        -0.0316
      2 CAR        15.9870   31.5500   16.9610 C.3       1 5XM        -0.0123
      3 CAS        15.2140   32.8400   16.7800 C.3       1 5XM        -0.0434
      4 CAT        13.7510   32.4830   16.7990 C.3       1 5XM        -0.0123
      5 CAU        13.3900   31.8190   18.1390 C.3       1 5XM        -0.0316
      6 NAP        14.1670   30.5850   18.3670 N.4       1 5XM         0.2384
      7 CAO        13.8260   30.0240   19.5390 C.3       1 5XM        -0.0030
      8 CAN        14.1660   28.7750   19.9190 C.3       1 5XM         0.1195
      9 CAM        15.3290   28.0610   19.7670 C.3       1 5XM        -0.0026
     10 CAL        14.6840   26.7270   19.7930 C.3       1 5XM         0.0361
     11 NAG        14.1170   26.9550   21.1340 N.2       1 5XM        -0.2630
     12 CAH        13.8130   28.2770   21.1110 C.2       1 5XM         0.2351
     13 NAI        13.1190   28.7980   22.1950 N.am      1 5XM        -0.1427
     14 CAJ        12.8740   27.9900   23.3060 C.2       1 5XM         0.3140
     15 OAK        12.3250   28.4700   24.2910 O.2       1 5XM        -0.3200
     16 CAE        13.2230   26.6470   23.2670 C.ar      1 5XM         0.1270
     17 CAD        13.8450   26.1320   22.1350 C.ar      1 5XM         0.1037
     18 CAC        14.1970   24.7770   22.1020 C.ar      1 5XM         0.0002
     19 CAB        13.9240   23.9470   23.1930 C.ar      1 5XM        -0.0243
     20 CAA        13.2990   24.4850   24.3130 C.ar      1 5XM        -0.0253
     21 CAF        12.9490   25.8290   24.3550 C.ar      1 5XM        -0.0070
     22 H1         15.8595   31.5996   19.0992 H         1 5XM         0.0814
     23 H2         16.1815   29.9760   18.4015 H         1 5XM         0.0814
     24 H3         15.7478   30.8617   16.1370 H         1 5XM         0.0317
     25 H4         17.0655   31.7663   16.9568 H         1 5XM         0.0317
     26 H5         15.4766   33.3061   15.8189 H         1 5XM         0.0269
     27 H6         15.4436   33.5362   17.6001 H         1 5XM         0.0269
     28 H7         13.5354   31.7850   15.9766 H         1 5XM         0.0317
     29 H8         13.1513   33.3963   16.6716 H         1 5XM         0.0317
     30 H9         12.3187   31.5694   18.1354 H         1 5XM         0.0814
     31 H10        13.5988   32.5268   18.9547 H         1 5XM         0.0814
     32 H11        13.9489   29.9274   17.6349 H         1 5XM         0.2036
     33 H12        12.7269   30.0533   19.5714 H         1 5XM         0.0864
     34 H13        14.2336   30.6894   20.3143 H         1 5XM         0.0864
     35 H14        13.5014   28.2441   19.2216 H         1 5XM         0.0739
     36 H15        16.0332   28.2106   20.5986 H         1 5XM         0.0328
     37 H16        15.8369   28.2707   18.8141 H         1 5XM         0.0328
     38 H17        15.3996   25.8925   19.7550 H         1 5XM         0.0472
     39 H18        13.9220   26.5925   19.0112 H         1 5XM         0.0472
     40 H19        12.7973   29.7447   22.1796 H         1 5XM         0.3019
     41 H20        14.6847   24.3689   21.2241 H         1 5XM         0.0854
     42 H21        14.1958   22.8980   23.1666 H         1 5XM         0.0745
     43 H22        13.0824   23.8483   25.1631 H         1 5XM         0.0892
     44 H23        12.4637   26.2375   25.2341 H         1 5XM         0.0774
@<TRIPOS>BOND
     1    1    2 1  
     2    1    6 1  
     3    2    3 1  
     4    3    4 1  
     5    4    5 1  
     6    5    6 1  
     7    6    7 1  
     8    7    8 1  
     9    8    9 1  
    10    8   12 1  
    11    9   10 1  
    12   10   11 1  
    13   11   12 2  
    14   11   17 1  
    15   12   13 1  
    16   13   14 am 
    17   14   15 2  
    18   14   16 1  
    19   16   17 ar 
    20   16   21 ar 
    21   17   18 ar 
    22   18   19 ar 
    23   19   20 ar 
    24   20   21 ar 
    25    1   22 1  
    26    1   23 1  
    27    2   24 1  
    28    2   25 1  
    29    3   26 1  
    30    3   27 1  
    31    4   28 1  
    32    4   29 1  
    33    5   30 1  
    34    5   31 1  
    35    6   32 1  
    36    7   33 1  
    37    7   34 1  
    38    8   35 1  
    39    9   36 1  
    40    9   37 1  
    41   10   38 1  
    42   10   39 1  
    43   13   40 1  
    44   18   41 1  
    45   19   42 1  
    46   20   43 1  
    47   21   44 1  
@<TRIPOS>SUBSTRUCTURE
     1 5XM         1

