### 
### Created by X-TOOL on Mon Sep 10 21:13:28 2018
### 

@<TRIPOS>MOLECULE
5fh7_ligand
   32    34     1     0     0
SMALL
GAST_HUCK


@<TRIPOS>ATOM
      1 C4         12.7200    7.4780   29.7930 C.2       1 5XL         0.0170
      2 C5         12.7730    6.6800   28.5100 C.2       1 5XL         0.1117
      3 C6         11.4470    4.6300   27.8100 C.ar      1 5XL         0.1395
      4 C11        10.5790    3.6060   28.2600 C.ar      1 5XL         0.1191
      5 C7         11.9010    4.6900   26.4920 C.ar      1 5XL        -0.0189
      6 C8         11.4840    3.7530   25.5820 C.ar      1 5XL        -0.0608
      7 C9         10.6150    2.7570   25.9610 C.ar      1 5XL        -0.0488
      8 C10        10.1490    2.7080   27.2660 C.ar      1 5XL         0.0589
      9 C12        10.2080    3.5600   29.7040 C.2       1 5XL         0.2841
     10 C13        11.4410    5.5320   30.0660 C.2       1 5XL         0.3181
     11 N1         11.8480    5.5640   28.7550 N.pl3     1 5XL        -0.1153
     12 N2         10.6510    4.5900   30.5260 N.am      1 5XL        -0.1373
     13 C3         11.9780    6.6260   30.7770 C.2       1 5XL         0.1241
     14 CL          8.9310    1.5140   27.5760 Cl        1 5XL        -0.0663
     15 O           9.6260    2.5720   30.2090 O.2       1 5XL        -0.3503
     16 C2         11.8060    6.8070   32.1050 C.2       1 5XL         0.0243
     17 N          12.1480    7.7920   32.9300 N.2       1 5XL        -0.3921
     18 C1         12.7790    9.0680   32.4990 C.3       1 5XL        -0.0127
     19 C          11.8780    7.7370   34.3470 C.3       1 5XL        -0.0127
     20 H1         13.1361    8.4693   29.9665 H         1 5XL         0.0640
     21 H2         13.3587    6.8839   27.6148 H         1 5XL         0.1416
     22 H3         12.5824    5.4763   26.1879 H         1 5XL         0.0601
     23 H4         11.8409    3.7976   24.5594 H         1 5XL         0.0636
     24 H5         10.2951    2.0121   25.2414 H         1 5XL         0.0578
     25 H6         10.3631    4.6136   31.4834 H         1 5XL         0.3001
     26 H7         11.2856    5.9856   32.5953 H         1 5XL         0.1101
     27 H8         12.9566    9.7045   33.3784 H         1 5XL         0.0368
     28 H9         12.1104    9.5893   31.7981 H         1 5XL         0.0368
     29 H10        13.7366    8.8540   32.0019 H         1 5XL         0.0368
     30 H11        11.4139    6.7709   34.5946 H         1 5XL         0.0368
     31 H12        11.1940    8.5534   34.6219 H         1 5XL         0.0368
     32 H13        12.8202    7.8446   34.9043 H         1 5XL         0.0368
@<TRIPOS>BOND
     1    2    1 2  
     2    1   13 1  
     3   11    2 1  
     4    3    4 ar 
     5    3    5 ar 
     6    3   11 1  
     7    4    8 ar 
     8    4    9 1  
     9    5    6 ar 
    10    6    7 ar 
    11    7    8 ar 
    12    8   14 1  
    13    9   12 am 
    14    9   15 2  
    15   11   10 1  
    16   10   12 1  
    17   10   13 2  
    18   13   16 1  
    19   16   17 2  
    20   17   18 1  
    21   17   19 1  
    22    1   20 1  
    23    2   21 1  
    24    5   22 1  
    25    6   23 1  
    26    7   24 1  
    27   12   25 1  
    28   16   26 1  
    29   18   27 1  
    30   18   28 1  
    31   18   29 1  
    32   19   30 1  
    33   19   31 1  
    34   19   32 1  
@<TRIPOS>SUBSTRUCTURE
     1 5XL         1

