### 
### Created by X-TOOL on Mon Sep 10 21:13:28 2018
### 

@<TRIPOS>MOLECULE
5fh8_ligand
   40    42     1     0     0
SMALL
GAST_HUCK


@<TRIPOS>ATOM
      1 C4          0.4560   28.1270   13.4240 C.3       1 5XK        -0.0649
      2 C14         3.4270   26.9190    7.0740 C.ar      1 5XK         0.1013
      3 C5          0.6170   29.3710   10.6340 C.3       1 5XK        -0.0444
      4 C6          0.6040   28.3480    9.7860 C.2       1 5XK        -0.0468
      5 C11         2.7930   24.4430    5.8660 C.ar      1 5XK        -0.0620
      6 C7         -0.4720   27.3140    9.6390 C.2       1 5XK        -0.1013
      7 C8          0.0890   26.2500    8.7090 C.2       1 5XK         0.0085
      8 C9          2.2060   26.2500    7.3140 C.ar      1 5XK         0.1114
      9 C10         1.8950   25.0310    6.7270 C.ar      1 5XK        -0.0226
     10 C12         4.0080   25.0610    5.5970 C.ar      1 5XK        -0.0500
     11 C13         4.3250   26.2600    6.2110 C.ar      1 5XK         0.0564
     12 N1          2.7470   28.6920    8.6460 N.am      1 5XK        -0.2193
     13 C3          0.1270   29.5660   13.0520 C.3       1 5XK        -0.0524
     14 CL          5.9800   26.7950    6.0030 Cl        1 5XK        -0.0669
     15 C15         3.6910   28.2170    7.7430 C.2       1 5XK         0.2253
     16 O           4.6450   28.9210    7.4320 O.2       1 5XK        -0.3866
     17 C16         1.6450   28.0290    8.8560 C.2       1 5XK         0.1687
     18 N           1.3250   26.8530    8.2130 N.pl3     1 5XK        -0.2212
     19 C2         -0.4170   29.7250   11.6580 C.3       1 5XK        -0.0404
     20 C1         -0.7870   31.2000   11.3840 C.3       1 5XK        -0.0524
     21 C          -1.5950   31.3670   10.1310 C.3       1 5XK        -0.0649
     22 H1          0.8461   28.0941   14.4520 H         1 5XK         0.0230
     23 H2          1.2144   27.7334   12.7313 H         1 5XK         0.0230
     24 H3         -0.4547   27.5137   13.3576 H         1 5XK         0.0230
     25 H4          0.6952   30.2631    9.9952 H         1 5XK         0.0306
     26 H5          1.5477   29.2477   11.2072 H         1 5XK         0.0306
     27 H6          2.5521   23.4960    5.3968 H         1 5XK         0.0632
     28 H7         -1.4565   27.3233   10.1044 H         1 5XK         0.0212
     29 H8         -0.3293   25.2734    8.4698 H         1 5XK         0.0607
     30 H9          0.9508   24.5455    6.9455 H         1 5XK         0.0591
     31 H10         4.7075   24.6041    4.9063 H         1 5XK         0.0570
     32 H11         2.9144   29.5469    9.1370 H         1 5XK         0.2268
     33 H12         1.0462   30.1644   13.1356 H         1 5XK         0.0266
     34 H13        -0.6230   29.9447   13.7620 H         1 5XK         0.0266
     35 H14        -1.3022   29.0826   11.5403 H         1 5XK         0.0310
     36 H15         0.1401   31.7838   11.2861 H         1 5XK         0.0266
     37 H16        -1.3721   31.5806   12.2342 H         1 5XK         0.0266
     38 H17        -1.8295   32.4318    9.9852 H         1 5XK         0.0230
     39 H18        -2.5300   30.7943   10.2186 H         1 5XK         0.0230
     40 H19        -1.0179   30.9975    9.2705 H         1 5XK         0.0230
@<TRIPOS>BOND
     1   13    1 1  
     2    2    8 ar 
     3    2   11 ar 
     4   15    2 1  
     5    3    4 1  
     6   19    3 1  
     7    4    6 1  
     8    4   17 2  
     9    9    5 ar 
    10   10    5 ar 
    11    6    7 2  
    12    7   18 1  
    13    8    9 ar 
    14   18    8 1  
    15   11   10 ar 
    16   11   14 1  
    17   12   15 am 
    18   17   12 1  
    19   13   19 1  
    20   15   16 2  
    21   17   18 1  
    22   19   20 1  
    23   20   21 1  
    24    1   22 1  
    25    1   23 1  
    26    1   24 1  
    27    3   25 1  
    28    3   26 1  
    29    5   27 1  
    30    6   28 1  
    31    7   29 1  
    32    9   30 1  
    33   10   31 1  
    34   12   32 1  
    35   13   33 1  
    36   13   34 1  
    37   19   35 1  
    38   20   36 1  
    39   20   37 1  
    40   21   38 1  
    41   21   39 1  
    42   21   40 1  
@<TRIPOS>SUBSTRUCTURE
     1 5XK         1

