### 
### Created by X-TOOL on Mon Sep 10 21:13:25 2018
### 

@<TRIPOS>MOLECULE
5fhm_ligand
   44    46     1     0     0
SMALL
GAST_HUCK


@<TRIPOS>ATOM
      1 C1         -8.4470  -12.9890   22.6030 C.2       1 5XP         0.0574
      2 C2         -8.0300  -12.5180   21.4160 C.2       1 5XP         0.1747
      3 O3         -8.6910  -13.1350   20.3790 O.3       1 5XP        -0.1802
      4 N4         -9.6120  -14.0870   20.9550 N.am      1 5XP        -0.1387
      5 C5         -9.4000  -13.9250   22.2580 C.2       1 5XP         0.2049
      6 C6         -7.0480  -11.5270   21.1500 C.2       1 5XP         0.1822
      7 N7         -6.9530  -10.9220   19.9330 N.2       1 5XP        -0.1717
      8 N8         -5.9750  -10.0950   20.0920 N.2       1 5XP        -0.0465
      9 N9         -5.5180  -10.2500   21.3560 N.pl3     1 5XP        -0.0781
     10 N10        -6.2010  -11.1550   22.0870 N.2       1 5XP        -0.1361
     11 C11        -4.3990   -9.4870   21.8570 C.3       1 5XP         0.1300
     12 C12        -1.9590   -8.0370   18.5340 C.ar      1 5XP        -0.0622
     13 C13        -1.6990   -9.3290   19.0500 C.ar      1 5XP        -0.0054
     14 C14        -2.4730   -9.8240   20.1410 C.ar      1 5XP        -0.0512
     15 C15        -3.5130   -9.0330   20.6920 C.ar      1 5XP        -0.0141
     16 C16        -3.7670   -7.7670   20.1520 C.ar      1 5XP        -0.0643
     17 C17        -3.0000   -7.2610   19.0900 C.ar      1 5XP        -0.0749
     18 O23       -10.0380  -14.6050   23.2140 O.2       1 5XP        -0.4137
     19 C24        -8.0800  -12.7260   24.0470 C.3       1 5XP         0.0326
     20 C25        -9.0120  -11.6840   24.7220 C.3       1 5XP         0.0338
     21 C26        -9.2610  -11.9800   26.1970 C.2       1 5XP         0.0860
     22 O27        -9.2140  -11.0360   27.0120 O.co2     1 5XP        -0.5641
     23 O28        -9.5590  -13.1460   26.4920 O.co2     1 5XP        -0.5641
     24 N29        -8.4390  -10.3180   24.6270 N.4       1 5XP         0.2338
     25 C39        -0.5810  -10.1400   18.4080 C.3       1 5XP        -0.0032
     26 N1          0.6490  -10.1030   19.2050 N.4       1 5XP         0.2307
     27 H1        -10.2456  -14.7078   20.4932 H         1 5XP         0.2316
     28 H2         -3.8082  -10.1130   22.5419 H         1 5XP         0.0841
     29 H3         -4.7721   -8.6042   22.3968 H         1 5XP         0.0841
     30 H4         -1.3631   -7.6456   17.7174 H         1 5XP         0.0501
     31 H5         -2.2659  -10.8064   20.5496 H         1 5XP         0.0497
     32 H6         -4.5708   -7.1658   20.5612 H         1 5XP         0.0500
     33 H7         -3.2074   -6.2726   18.6961 H         1 5XP         0.0582
     34 H8         -7.0468  -12.3505   24.0847 H         1 5XP         0.0446
     35 H9         -8.1471  -13.6716   24.6050 H         1 5XP         0.0446
     36 H10        -9.9770  -11.7027   24.1944 H         1 5XP         0.1043
     37 H11        -9.0611   -9.6611   25.0714 H         1 5XP         0.2011
     38 H12        -8.3240  -10.0685   23.6572 H         1 5XP         0.2011
     39 H13        -7.5428  -10.2967   25.0880 H         1 5XP         0.2011
     40 H14        -0.3705   -9.7277   17.4102 H         1 5XP         0.0978
     41 H15        -0.9104  -11.1850   18.3110 H         1 5XP         0.0978
     42 H16         1.3620  -10.6496   18.7480 H         1 5XP         0.2008
     43 H17         0.4680  -10.4847   20.1202 H         1 5XP         0.2008
     44 H18         0.9627   -9.1493   19.2947 H         1 5XP         0.2008
@<TRIPOS>BOND
     1    2    1 2  
     2    1    5 1  
     3    1   19 1  
     4    2    3 1  
     5    6    2 1  
     6    3    4 1  
     7    4    5 am 
     8    5   18 2  
     9    6    7 1  
    10   10    6 2  
    11    8    7 2  
    12    9    8 1  
    13    9   10 1  
    14   11    9 1  
    15   15   11 1  
    16   13   12 ar 
    17   12   17 ar 
    18   14   13 ar 
    19   13   25 1  
    20   14   15 ar 
    21   15   16 ar 
    22   16   17 ar 
    23   19   20 1  
    24   20   21 1  
    25   20   24 1  
    26   21   22 ar 
    27   21   23 ar 
    28   25   26 1  
    29    4   27 1  
    30   11   28 1  
    31   11   29 1  
    32   12   30 1  
    33   14   31 1  
    34   16   32 1  
    35   17   33 1  
    36   19   34 1  
    37   19   35 1  
    38   20   36 1  
    39   24   37 1  
    40   24   38 1  
    41   24   39 1  
    42   25   40 1  
    43   25   41 1  
    44   26   42 1  
    45   26   43 1  
    46   26   44 1  
@<TRIPOS>SUBSTRUCTURE
     1 5XP         1

