### 
### Created by X-TOOL on Mon Sep 10 21:13:26 2018
### 

@<TRIPOS>MOLECULE
5fhn_ligand
   41    43     1     0     0
SMALL
GAST_HUCK


@<TRIPOS>ATOM
      1 C1        -16.1390  -11.2640    8.5770 C.2       1 5XO         0.0574
      2 C2        -16.5350  -10.7010    9.7270 C.2       1 5XO         0.1747
      3 O3        -16.3060  -11.5010   10.7990 O.3       1 5XO        -0.1802
      4 N4        -15.7100  -12.7300   10.1990 N.am      1 5XO        -0.1387
      5 C5        -15.6090  -12.5500    8.8620 C.2       1 5XO         0.2049
      6 C6        -17.0800   -9.3700    9.9000 C.2       1 5XO         0.1822
      7 N7        -17.2640   -8.8940   11.1640 N.2       1 5XO        -0.1717
      8 N8        -17.7010   -7.6940   10.9950 N.2       1 5XO        -0.0465
      9 N9        -17.7670   -7.5140    9.6560 N.pl3     1 5XO        -0.0781
     10 N10       -17.3790   -8.5620    8.8840 N.2       1 5XO        -0.1361
     11 C11       -18.2230   -6.2880    9.0580 C.3       1 5XO         0.1300
     12 C12       -21.3690   -4.3710   11.2850 C.ar      1 5XO        -0.0675
     13 C13       -20.0530   -3.8960   11.3740 C.ar      1 5XO        -0.0528
     14 C14       -19.0300   -4.5480   10.6480 C.ar      1 5XO        -0.0565
     15 C15       -19.3480   -5.6320    9.8340 C.ar      1 5XO        -0.0143
     16 C16       -20.6680   -6.1280    9.7460 C.ar      1 5XO        -0.0643
     17 C17       -21.6880   -5.4890   10.4920 C.ar      1 5XO        -0.0751
     18 O23       -15.1600  -13.2810    7.9530 O.2       1 5XO        -0.4137
     19 C24       -16.1660  -10.7530    7.1360 C.3       1 5XO         0.0326
     20 C25       -14.8730  -10.0460    6.6660 C.3       1 5XO         0.0338
     21 C26       -14.4600  -10.4170    5.2310 C.2       1 5XO         0.0860
     22 O27       -14.0650   -9.5030    4.4780 O.co2     1 5XO        -0.5641
     23 O28       -14.5350  -11.6250    4.9200 O.co2     1 5XO        -0.5641
     24 N29       -14.8900   -8.5580    6.7750 N.4       1 5XO         0.2338
     25 C18       -19.7160   -2.6950   12.2460 C.3       1 5XO        -0.0327
     26 H1        -15.4319  -13.5491   10.7007 H         1 5XO         0.2316
     27 H2        -18.5798   -6.5059    8.0406 H         1 5XO         0.0841
     28 H3        -17.3769   -5.5869    9.0075 H         1 5XO         0.0841
     29 H4        -22.1549   -3.8681   11.8369 H         1 5XO         0.0499
     30 H5        -18.0042   -4.2061   10.7246 H         1 5XO         0.0495
     31 H6        -20.8958   -6.9822    9.1188 H         1 5XO         0.0500
     32 H7        -22.7065   -5.8581   10.4526 H         1 5XO         0.0582
     33 H8        -16.9977  -10.0391    7.0431 H         1 5XO         0.0446
     34 H9        -16.3447  -11.6124    6.4730 H         1 5XO         0.0446
     35 H10       -14.0766  -10.4042    7.3349 H         1 5XO         0.1043
     36 H11       -14.0115   -8.1871    6.4482 H         1 5XO         0.2011
     37 H12       -15.0292   -8.2932    7.7376 H         1 5XO         0.2011
     38 H13       -15.6407   -8.1884    6.2129 H         1 5XO         0.2011
     39 H14       -20.6320   -2.3240   12.7290 H         1 5XO         0.0390
     40 H15       -19.2823   -1.8993   11.6225 H         1 5XO         0.0390
     41 H16       -18.9902   -2.9936   13.0168 H         1 5XO         0.0390
@<TRIPOS>BOND
     1    2    1 2  
     2    1    5 1  
     3    1   19 1  
     4    2    3 1  
     5    6    2 1  
     6    3    4 1  
     7    4    5 am 
     8    5   18 2  
     9    6    7 1  
    10   10    6 2  
    11    8    7 2  
    12    9    8 1  
    13    9   10 1  
    14   11    9 1  
    15   15   11 1  
    16   13   12 ar 
    17   12   17 ar 
    18   14   13 ar 
    19   13   25 1  
    20   14   15 ar 
    21   15   16 ar 
    22   16   17 ar 
    23   19   20 1  
    24   20   21 1  
    25   20   24 1  
    26   21   22 ar 
    27   21   23 ar 
    28    4   26 1  
    29   11   27 1  
    30   11   28 1  
    31   12   29 1  
    32   14   30 1  
    33   16   31 1  
    34   17   32 1  
    35   19   33 1  
    36   19   34 1  
    37   20   35 1  
    38   24   36 1  
    39   24   37 1  
    40   24   38 1  
    41   25   39 1  
    42   25   40 1  
    43   25   41 1  
@<TRIPOS>SUBSTRUCTURE
     1 5XO         1

