### 
### Created by X-TOOL on Mon Sep 10 21:13:27 2018
### 

@<TRIPOS>MOLECULE
5fho_ligand
   38    40     1     0     0
SMALL
GAST_HUCK


@<TRIPOS>ATOM
      1 C1         93.2970   16.9610   29.1280 C.2       1 5XN         0.0574
      2 C2         93.5990   16.6690   30.4050 C.2       1 5XN         0.1747
      3 O3         92.6670   17.1750   31.2800 O.3       1 5XN        -0.1802
      4 N4         91.7160   17.8400   30.4640 N.am      1 5XN        -0.1387
      5 C5         92.0800   17.7190   29.1610 C.2       1 5XN         0.2049
      6 C6         94.7450   15.8990   30.9270 C.2       1 5XN         0.1822
      7 N7         94.8430   15.6310   32.2580 N.2       1 5XN        -0.1717
      8 N8         95.9320   14.9460   32.3790 N.2       1 5XN        -0.0466
      9 N9         96.4520   14.8260   31.1330 N.pl3     1 5XN        -0.0779
     10 N10        95.7190   15.4230   30.1630 N.2       1 5XN        -0.1361
     11 C11        97.6940   14.1090   30.9020 C.3       1 5XN         0.1315
     12 C12       100.1700   14.2980   34.4680 C.ar      1 5XN        -0.0548
     13 C13        99.4270   13.1380   34.1900 C.ar      1 5XN         0.0339
     14 C14        98.6230   13.0770   33.0340 C.ar      1 5XN        -0.0435
     15 C15        98.5680   14.1750   32.1490 C.ar      1 5XN        -0.0070
     16 C16        99.3130   15.3400   32.4360 C.ar      1 5XN        -0.0572
     17 C17       100.1140   15.4000   33.5920 C.ar      1 5XN        -0.0679
     18 O23        91.4770   18.1810   28.1720 O.2       1 5XN        -0.4137
     19 C24        94.0280   16.6100   27.8360 C.3       1 5XN         0.0326
     20 C25        93.5370   15.3040   27.1570 C.3       1 5XN         0.0338
     21 C26        93.5530   15.4100   25.6170 C.2       1 5XN         0.0860
     22 O27        94.1010   14.4950   24.9680 O.co2     1 5XN        -0.5641
     23 O28        93.0280   16.3950   25.0590 O.co2     1 5XN        -0.5641
     24 N29        94.3290   14.1220   27.5340 N.4       1 5XN         0.2338
     25 CL1        99.5060   11.7960   35.2730 Cl        1 5XN        -0.0725
     26 H1         90.9051   18.3220   30.7959 H         1 5XN         0.2316
     27 H2         98.2285   14.5673   30.0569 H         1 5XN         0.0842
     28 H3         97.4706   13.0577   30.6679 H         1 5XN         0.0842
     29 H4        100.7872   14.3450   35.3579 H         1 5XN         0.0565
     30 H5         98.0452   12.1842   32.8240 H         1 5XN         0.0563
     31 H6         99.2679   16.1899   31.7646 H         1 5XN         0.0559
     32 H7        100.6877   16.2940   33.8082 H         1 5XN         0.0599
     33 H8         95.0978   16.4973   28.0656 H         1 5XN         0.0446
     34 H9         93.8906   17.4393   27.1266 H         1 5XN         0.0446
     35 H10        92.4992   15.1376   27.4815 H         1 5XN         0.1043
     36 H11        93.9637   13.3088   27.0635 H         1 5XN         0.2011
     37 H12        94.2752   13.9856   28.5313 H         1 5XN         0.2011
     38 H13        95.2904   14.2621   27.2654 H         1 5XN         0.2011
@<TRIPOS>BOND
     1    2    1 2  
     2    1    5 1  
     3    1   19 1  
     4    2    3 1  
     5    6    2 1  
     6    3    4 1  
     7    4    5 am 
     8    5   18 2  
     9    6    7 1  
    10   10    6 2  
    11    8    7 2  
    12    9    8 1  
    13    9   10 1  
    14   11    9 1  
    15   15   11 1  
    16   13   12 ar 
    17   12   17 ar 
    18   14   13 ar 
    19   13   25 1  
    20   14   15 ar 
    21   15   16 ar 
    22   16   17 ar 
    23   19   20 1  
    24   20   21 1  
    25   20   24 1  
    26   21   22 ar 
    27   21   23 ar 
    28    4   26 1  
    29   11   27 1  
    30   11   28 1  
    31   12   29 1  
    32   14   30 1  
    33   16   31 1  
    34   17   32 1  
    35   19   33 1  
    36   19   34 1  
    37   20   35 1  
    38   24   36 1  
    39   24   37 1  
    40   24   38 1  
@<TRIPOS>SUBSTRUCTURE
     1 5XN         1

