### 
### Created by X-TOOL on Mon Sep 10 21:13:29 2018
### 

@<TRIPOS>MOLECULE
5fi2_ligand
   59    63     1     0     0
SMALL
GAST_HUCK


@<TRIPOS>ATOM
      1 C10       122.6410  302.5390  173.4430 C.2       1 5XX         0.2123
      2 C13       119.7410  305.1180  172.6890 C.3       1 5XX         0.0779
      3 C15       117.8130  306.3720  173.7130 C.ar      1 5XX        -0.0579
      4 C17       115.9500  305.2490  174.7470 C.ar      1 5XX        -0.0684
      5 C22       129.5620  302.0130  176.8410 C.2       1 5XX         0.2441
      6 C28       131.2410  306.1620  177.4480 C.3       1 5XX         0.0895
      7 C01       126.8790  299.3890  176.1350 C.3       1 5XX         0.0090
      8 C02       127.6910  300.1860  177.1950 C.3       1 5XX         0.0285
      9 N03       128.4140  301.2860  176.4020 N.2       1 5XX        -0.2740
     10 C04       128.0420  301.1160  175.1600 C.2       1 5XX         0.0728
     11 C05       126.6590  300.2630  175.2390 C.3       1 5XX         0.1239
     12 N06       125.5910  301.0750  175.7240 N.pl3     1 5XX        -0.2588
     13 C07       124.5920  301.5110  174.7730 C.2       1 5XX         0.1882
     14 N08       124.5070  301.1910  173.4730 N.2       1 5XX        -0.2909
     15 N09       123.4850  301.7290  172.7700 N.2       1 5XX        -0.2899
     16 N11       121.4960  303.2300  172.8770 N.am      1 5XX        -0.1967
     17 C12       120.9260  304.4520  173.3910 C.2       1 5XX         0.2240
     18 C14       118.4050  305.1480  173.4260 C.ar      1 5XX        -0.0236
     19 C16       116.5910  306.4200  174.3740 C.ar      1 5XX        -0.0681
     20 C18       116.5290  304.0220  174.4590 C.ar      1 5XX        -0.0681
     21 C19       117.7480  303.9760  173.7890 C.ar      1 5XX        -0.0579
     22 O20       121.3830  304.9600  174.3820 O.2       1 5XX        -0.3783
     23 S21       123.2570  302.5720  175.0550 S.3       1 5XX         0.0829
     24 N23       130.0670  302.0940  178.0870 N.2       1 5XX        -0.1293
     25 N24       131.1840  302.8500  178.2240 N.2       1 5XX        -0.1049
     26 C25       131.6590  303.4210  177.1080 C.2       1 5XX         0.3350
     27 N26       132.8200  304.2550  177.0140 N.am      1 5XX        -0.1376
     28 C27       132.6590  305.6620  177.1730 C.2       1 5XX         0.2721
     29 C29       130.4880  307.0240  176.4220 C.ar      1 5XX        -0.0225
     30 C30       130.5730  308.4100  176.4510 C.ar      1 5XX        -0.0579
     31 C31       129.8570  309.1670  175.5250 C.ar      1 5XX        -0.0681
     32 C32       129.0480  308.5330  174.5880 C.ar      1 5XX        -0.0684
     33 C33       128.9530  307.1510  174.5690 C.ar      1 5XX        -0.0681
     34 C34       129.6680  306.3930  175.4900 C.ar      1 5XX        -0.0579
     35 O35       133.6200  306.4000  177.1270 O.2       1 5XX        -0.3486
     36 S36       130.5860  302.9490  175.8350 S.3       1 5XX         0.1494
     37 H1        119.5805  304.5862  171.7396 H         1 5XX         0.0666
     38 H2        120.0253  306.1602  172.4820 H         1 5XX         0.0666
     39 H3        118.3056  307.2923  173.4205 H         1 5XX         0.0561
     40 H4        114.9977  305.2921  175.2630 H         1 5XX         0.0561
     41 H5        131.2930  306.7535  178.3739 H         1 5XX         0.0678
     42 H6        130.6227  305.2683  177.6180 H         1 5XX         0.0678
     43 H7        125.9376  299.0095  176.5590 H         1 5XX         0.0350
     44 H8        127.4657  298.5491  175.7347 H         1 5XX         0.0350
     45 H9        128.4180  299.5308  177.6971 H         1 5XX         0.0428
     46 H10       127.0180  300.6289  177.9439 H         1 5XX         0.0428
     47 H11       128.5497  301.4699  174.2639 H         1 5XX         0.1580
     48 H12       126.4058  299.8138  174.2673 H         1 5XX         0.0962
     49 H13       125.5332  301.3417  176.7172 H         1 5XX         0.1929
     50 H14       121.0689  302.8273  172.0674 H         1 5XX         0.2379
     51 H15       116.1370  307.3783  174.5989 H         1 5XX         0.0600
     52 H16       116.0346  303.1036  174.7542 H         1 5XX         0.0600
     53 H17       118.1907  303.0165  173.5472 H         1 5XX         0.0561
     54 H18       133.7219  303.8593  176.8409 H         1 5XX         0.3004
     55 H19       131.1940  308.9014  177.1912 H         1 5XX         0.0561
     56 H20       129.9307  310.2485  175.5352 H         1 5XX         0.0600
     57 H21       128.4896  309.1225  173.8698 H         1 5XX         0.0561
     58 H22       128.3217  306.6608  173.8367 H         1 5XX         0.0600
     59 H23       129.5871  305.3120  175.4824 H         1 5XX         0.0561
@<TRIPOS>BOND
     1    1   15 2  
     2    1   16 1  
     3   23    1 1  
     4   17    2 1  
     5    2   18 1  
     6   18    3 ar 
     7    3   19 ar 
     8   19    4 ar 
     9   20    4 ar 
    10    5    9 1  
    11    5   24 2  
    12   36    5 1  
    13   28    6 1  
    14    6   29 1  
    15    8    7 1  
    16   11    7 1  
    17    9    8 1  
    18    9   10 2  
    19   10   11 1  
    20   11   12 1  
    21   12   13 1  
    22   13   14 2  
    23   13   23 1  
    24   14   15 1  
    25   16   17 am 
    26   17   22 2  
    27   18   21 ar 
    28   21   20 ar 
    29   25   24 1  
    30   26   25 2  
    31   27   26 1  
    32   26   36 1  
    33   27   28 am 
    34   28   35 2  
    35   29   30 ar 
    36   29   34 ar 
    37   30   31 ar 
    38   31   32 ar 
    39   32   33 ar 
    40   33   34 ar 
    41    2   37 1  
    42    2   38 1  
    43    3   39 1  
    44    4   40 1  
    45    6   41 1  
    46    6   42 1  
    47    7   43 1  
    48    7   44 1  
    49    8   45 1  
    50    8   46 1  
    51   10   47 1  
    52   11   48 1  
    53   12   49 1  
    54   16   50 1  
    55   19   51 1  
    56   20   52 1  
    57   21   53 1  
    58   27   54 1  
    59   30   55 1  
    60   31   56 1  
    61   32   57 1  
    62   33   58 1  
    63   34   59 1  
@<TRIPOS>SUBSTRUCTURE
     1 5XX         1

