### 
### Created by X-TOOL on Mon Sep 10 21:13:29 2018
### 

@<TRIPOS>MOLECULE
5fi6_ligand
   60    64     1     0     0
SMALL
GAST_HUCK


@<TRIPOS>ATOM
      1 C10       118.6560  157.6460   42.3960 C.3       1 5XY        -0.0068
      2 N12       119.6370  159.4470   43.3410 N.pl3     1 5XY        -0.2730
      3 C13       118.0280  159.6090   43.3820 C.3       1 5XY         0.0574
      4 C17       121.9880  162.1150   45.0710 C.2       1 5XY         0.2123
      5 C20       124.6160  164.4760   46.6560 C.3       1 5XY         0.0779
      6 C21       124.3140  165.9510   46.5380 C.ar      1 5XY        -0.0236
      7 C22       123.1780  166.4880   47.1420 C.ar      1 5XY        -0.0579
      8 C24       123.7870  168.6640   46.2990 C.ar      1 5XY        -0.0684
      9 C26       125.1860  166.7590   45.8150 C.ar      1 5XY        -0.0579
     10 C01       112.3710  165.1420   39.8250 C.3       1 5XY         0.0779
     11 C02       113.1180  164.1410   40.6770 C.2       1 5XY         0.2240
     12 N03       113.7230  163.0340   40.0300 N.am      1 5XY        -0.1967
     13 C04       114.4630  162.0540   40.7430 C.2       1 5XY         0.2123
     14 N05       114.6440  161.9110   42.0650 N.2       1 5XY        -0.2899
     15 N06       115.4190  160.8800   42.4510 N.2       1 5XY        -0.2912
     16 C07       115.9480  160.1170   41.4840 C.2       1 5XY         0.1842
     17 N08       116.7840  158.9720   41.5630 N.pl3     1 5XY        -0.2840
     18 C09       117.4680  158.5390   42.7850 C.3       1 5XY         0.0647
     19 C11       119.7550  158.1400   43.4060 C.3       1 5XY         0.0364
     20 C14       120.5110  160.4530   43.8240 C.2       1 5XY         0.1864
     21 N15       121.0000  161.4690   43.1040 N.2       1 5XY        -0.2910
     22 N16       121.7850  162.3440   43.7560 N.2       1 5XY        -0.2899
     23 N18       122.7550  162.8860   45.9850 N.am      1 5XY        -0.1967
     24 C19       123.8720  163.6830   45.6150 C.2       1 5XY         0.2240
     25 C23       122.9180  167.8500   47.0180 C.ar      1 5XY        -0.0681
     26 C25       124.9210  168.1190   45.7000 C.ar      1 5XY        -0.0681
     27 O27       124.2460  163.7410   44.4660 O.2       1 5XY        -0.3783
     28 S28       121.1010  160.6770   45.4350 S.3       1 5XY         0.0828
     29 S29       115.3760  160.7980   40.0170 S.3       1 5XY         0.0826
     30 O30       113.2010  164.2880   41.8860 O.2       1 5XY        -0.3783
     31 C31       110.9810  165.4370   40.3470 C.ar      1 5XY        -0.0236
     32 C32       109.9730  164.4770   40.2270 C.ar      1 5XY        -0.0579
     33 C33       108.6860  164.7400   40.6890 C.ar      1 5XY        -0.0681
     34 C34       108.4140  165.9670   41.2770 C.ar      1 5XY        -0.0684
     35 C35       109.4210  166.9260   41.3980 C.ar      1 5XY        -0.0681
     36 C36       110.7100  166.6680   40.9350 C.ar      1 5XY        -0.0579
     37 H1        118.9623  157.8148   41.3531 H         1 5XY         0.0308
     38 H2        118.4241  156.5807   42.5423 H         1 5XY         0.0308
     39 H3        117.7351  160.5252   42.8485 H         1 5XY         0.0550
     40 H4        117.6890  159.6687   44.4268 H         1 5XY         0.0550
     41 H5        124.3159  164.1271   47.6551 H         1 5XY         0.0666
     42 H6        125.6965  164.3191   46.5221 H         1 5XY         0.0666
     43 H7        122.5036  165.8511   47.7028 H         1 5XY         0.0561
     44 H8        123.5817  169.7242   46.2045 H         1 5XY         0.0561
     45 H9        126.0646  166.3317   45.3453 H         1 5XY         0.0561
     46 H10       112.2850  164.7399   38.8048 H         1 5XY         0.0666
     47 H11       112.9440  166.0807   39.8021 H         1 5XY         0.0666
     48 H12       113.6254  162.9403   39.0392 H         1 5XY         0.2379
     49 H13       116.9180  158.4114   40.7094 H         1 5XY         0.1871
     50 H14       116.7713  158.0182   43.4583 H         1 5XY         0.0581
     51 H15       120.7580  157.8157   43.0915 H         1 5XY         0.0527
     52 H16       119.5532  157.7732   44.4232 H         1 5XY         0.0527
     53 H17       122.4924  162.8667   46.9497 H         1 5XY         0.2379
     54 H18       122.0366  168.2770   47.4827 H         1 5XY         0.0600
     55 H19       125.5980  168.7567   45.1432 H         1 5XY         0.0600
     56 H20       110.1947  163.5192   39.7703 H         1 5XY         0.0561
     57 H21       107.9053  163.9945   40.5904 H         1 5XY         0.0600
     58 H22       107.4166  166.1814   41.6435 H         1 5XY         0.0561
     59 H23       109.1980  167.8822   41.8573 H         1 5XY         0.0600
     60 H24       111.4893  167.4152   41.0317 H         1 5XY         0.0561
@<TRIPOS>BOND
     1    1   18 1  
     2   19    1 1  
     3    2    3 1  
     4    2   19 1  
     5   20    2 1  
     6    3   18 1  
     7    4   22 2  
     8   23    4 1  
     9    4   28 1  
    10    5    6 1  
    11   24    5 1  
    12    6    7 ar 
    13    6    9 ar 
    14    7   25 ar 
    15   25    8 ar 
    16   26    8 ar 
    17    9   26 ar 
    18   11   10 1  
    19   10   31 1  
    20   12   11 am 
    21   11   30 2  
    22   13   12 1  
    23   13   14 2  
    24   29   13 1  
    25   15   14 1  
    26   16   15 2  
    27   17   16 1  
    28   16   29 1  
    29   18   17 1  
    30   20   21 2  
    31   28   20 1  
    32   22   21 1  
    33   23   24 am 
    34   24   27 2  
    35   31   32 ar 
    36   31   36 ar 
    37   32   33 ar 
    38   33   34 ar 
    39   34   35 ar 
    40   35   36 ar 
    41    1   37 1  
    42    1   38 1  
    43    3   39 1  
    44    3   40 1  
    45    5   41 1  
    46    5   42 1  
    47    7   43 1  
    48    8   44 1  
    49    9   45 1  
    50   10   46 1  
    51   10   47 1  
    52   12   48 1  
    53   17   49 1  
    54   18   50 1  
    55   19   51 1  
    56   19   52 1  
    57   23   53 1  
    58   25   54 1  
    59   26   55 1  
    60   32   56 1  
    61   33   57 1  
    62   34   58 1  
    63   35   59 1  
    64   36   60 1  
@<TRIPOS>SUBSTRUCTURE
     1 5XY         1

