### 
### Created by X-TOOL on Mon Sep 10 21:13:29 2018
### 

@<TRIPOS>MOLECULE
5fi7_ligand
   59    63     1     0     0
SMALL
GAST_HUCK


@<TRIPOS>ATOM
      1 C10        28.9420  -47.0620   -0.4480 C.3       1 5XZ         0.0017
      2 C17        33.7730  -43.3680    0.5870 C.2       1 5XZ         0.2153
      3 C20        36.5250  -40.7220    1.2180 C.3       1 5XZ         0.0779
      4 C21        37.5740  -41.2700    0.2550 C.ar      1 5XZ        -0.0236
      5 C22        37.9410  -42.6140    0.2910 C.ar      1 5XZ        -0.0579
      6 C24        39.4990  -42.2830   -1.5000 C.ar      1 5XZ        -0.0684
      7 C26        38.1780  -40.4370   -0.6780 C.ar      1 5XZ        -0.0579
      8 C01        21.4850  -41.6060   -3.5240 C.3       1 5XZ         0.0779
      9 C02        22.8710  -42.1020   -3.1650 C.2       1 5XZ         0.2240
     10 N03        23.1490  -43.4940   -3.2760 N.am      1 5XZ        -0.1967
     11 C04        24.4170  -44.0710   -2.9620 C.2       1 5XZ         0.2123
     12 N05        25.2500  -44.7200   -3.7990 N.2       1 5XZ        -0.2899
     13 N06        26.3960  -45.1800   -3.2580 N.2       1 5XZ        -0.2910
     14 C07        26.5820  -44.9460   -1.9480 C.2       1 5XZ         0.1865
     15 N08        27.6870  -45.3330   -1.1430 N.pl3     1 5XZ        -0.2723
     16 C09        27.6330  -46.2870   -0.2570 C.3       1 5XZ         0.0371
     17 C11        29.9440  -45.9360   -0.7780 C.3       1 5XZ         0.1126
     18 C12        29.2520  -45.1240   -1.5180 C.3       1 5XZ         0.0659
     19 O13        30.3600  -45.3180    0.5140 O.3       1 5XZ        -0.2715
     20 C14        31.5820  -44.6330    0.3820 C.2       1 5XZ         0.2400
     21 N15        32.1740  -44.2760   -0.7660 N.2       1 5XZ        -0.2751
     22 N16        33.3330  -43.6140   -0.6550 N.2       1 5XZ        -0.2845
     23 N18        34.9900  -42.6980    0.8850 N.am      1 5XZ        -0.1958
     24 C19        35.1480  -41.2840    0.9210 C.2       1 5XZ         0.2244
     25 C23        38.8920  -43.1240   -0.5810 C.ar      1 5XZ        -0.0681
     26 C25        39.1370  -40.9430   -1.5520 C.ar      1 5XZ        -0.0681
     27 O27        34.2070  -40.5420    0.7270 O.2       1 5XZ        -0.3782
     28 S28        32.6010  -44.0550    1.6480 S.3       1 5XZ         0.0952
     29 S29        25.1880  -44.0920   -1.4240 S.3       1 5XZ         0.0828
     30 O30        23.7310  -41.3350   -2.7910 O.2       1 5XZ        -0.3783
     31 C31        21.2340  -40.1220   -3.3320 C.ar      1 5XZ        -0.0236
     32 C32        20.2940  -39.7120   -2.3950 C.ar      1 5XZ        -0.0579
     33 C33        20.0380  -38.3600   -2.2090 C.ar      1 5XZ        -0.0681
     34 C34        20.7160  -37.4160   -2.9640 C.ar      1 5XZ        -0.0684
     35 C35        21.6510  -37.8190   -3.9050 C.ar      1 5XZ        -0.0681
     36 C36        21.9080  -39.1710   -4.0910 C.ar      1 5XZ        -0.0579
     37 H1         28.8625  -47.7804   -1.2772 H         1 5XZ         0.0315
     38 H2         29.2284  -47.5935    0.4715 H         1 5XZ         0.0315
     39 H3         36.4915  -39.6265    1.1240 H         1 5XZ         0.0666
     40 H4         36.8074  -40.9934    2.2459 H         1 5XZ         0.0666
     41 H5         37.4746  -43.2734    1.0140 H         1 5XZ         0.0561
     42 H6         40.2534  -42.6694   -2.1757 H         1 5XZ         0.0561
     43 H7         37.9021  -39.3898   -0.7260 H         1 5XZ         0.0561
     44 H8         20.7613  -42.1521   -2.9011 H         1 5XZ         0.0666
     45 H9         21.3082  -41.8419   -4.5837 H         1 5XZ         0.0666
     46 H10        22.4179  -44.0995   -3.5904 H         1 5XZ         0.2379
     47 H11        27.5722  -45.8708    0.7594 H         1 5XZ         0.0527
     48 H12        26.7654  -46.9382   -0.4391 H         1 5XZ         0.0527
     49 H13        30.8240  -46.3113   -1.3209 H         1 5XZ         0.0685
     50 H14        29.5509  -44.0849   -1.3156 H         1 5XZ         0.0557
     51 H15        29.4169  -45.3525   -2.5813 H         1 5XZ         0.0557
     52 H16        35.7929  -43.2601    1.0836 H         1 5XZ         0.2384
     53 H17        39.1586  -44.1740   -0.5436 H         1 5XZ         0.0600
     54 H18        39.6040  -40.2868   -2.2776 H         1 5XZ         0.0600
     55 H19        19.7590  -40.4494   -1.8075 H         1 5XZ         0.0561
     56 H20        19.3078  -38.0428   -1.4732 H         1 5XZ         0.0600
     57 H21        20.5149  -36.3608   -2.8185 H         1 5XZ         0.0561
     58 H22        22.1808  -37.0797   -4.4948 H         1 5XZ         0.0600
     59 H23        22.6360  -39.4861   -4.8298 H         1 5XZ         0.0561
@<TRIPOS>BOND
     1    1   16 1  
     2   17    1 1  
     3    2   22 2  
     4   23    2 1  
     5    2   28 1  
     6    3    4 1  
     7   24    3 1  
     8    4    5 ar 
     9    4    7 ar 
    10    5   25 ar 
    11   25    6 ar 
    12   26    6 ar 
    13    7   26 ar 
    14    9    8 1  
    15    8   31 1  
    16   10    9 am 
    17    9   30 2  
    18   11   10 1  
    19   11   12 2  
    20   29   11 1  
    21   13   12 1  
    22   14   13 2  
    23   15   14 1  
    24   14   29 1  
    25   15   16 1  
    26   18   15 1  
    27   17   18 1  
    28   19   17 1  
    29   20   19 1  
    30   20   21 2  
    31   28   20 1  
    32   22   21 1  
    33   23   24 am 
    34   24   27 2  
    35   31   32 ar 
    36   31   36 ar 
    37   32   33 ar 
    38   33   34 ar 
    39   34   35 ar 
    40   35   36 ar 
    41    1   37 1  
    42    1   38 1  
    43    3   39 1  
    44    3   40 1  
    45    5   41 1  
    46    6   42 1  
    47    7   43 1  
    48    8   44 1  
    49    8   45 1  
    50   10   46 1  
    51   16   47 1  
    52   16   48 1  
    53   17   49 1  
    54   18   50 1  
    55   18   51 1  
    56   23   52 1  
    57   25   53 1  
    58   26   54 1  
    59   32   55 1  
    60   33   56 1  
    61   34   57 1  
    62   35   58 1  
    63   36   59 1  
@<TRIPOS>SUBSTRUCTURE
     1 5XZ         1

