### 
### Created by X-TOOL on Mon Sep 10 21:13:29 2018
### 

@<TRIPOS>MOLECULE
5fky_ligand
   27    28     1     0     0
SMALL
GAST_HUCK


@<TRIPOS>ATOM
      1 O6          4.7550  -12.8640    0.6710 O.3       1 2J4        -0.3924
      2 C6          4.2460  -11.6670    1.2490 C.3       1 2J4         0.0730
      3 C5          5.3120  -11.2060    2.2890 C.3       1 2J4         0.1116
      4 O5          5.5020  -12.2130    3.2630 O.3       1 2J4        -0.3534
      5 C4          6.6890  -10.8830    1.6130 C.3       1 2J4         0.1138
      6 O4          6.4950   -9.8770    0.6480 O.3       1 2J4        -0.3864
      7 C3          7.6430  -10.3280    2.6880 C.3       1 2J4         0.1306
      8 O3          8.8740   -9.8750    2.1020 O.3       1 2J4        -0.3843
      9 C2          7.7990  -11.3950    3.7900 C.3       1 2J4         0.1616
     10 C1          6.4110  -11.9350    4.3080 C.3       1 2J4         0.1530
     11 S1          5.9610  -10.6590    5.5050 S.3       1 2J4        -0.0509
     12 N2          8.3780  -10.8380    5.0340 N.pl3     1 2J4        -0.2459
     13 C7          7.5760  -10.3240    5.9960 C.cat     1 2J4         0.2695
     14 N1          8.0210   -9.6390    7.1940 N.pl3     1 2J4        -0.2666
     15 H1          4.8764  -13.5160    1.3512 H         1 2J4         0.2095
     16 H2          3.2849  -11.8616    1.7473 H         1 2J4         0.0584
     17 H3          4.1087  -10.8971    0.4754 H         1 2J4         0.0584
     18 H4          4.9428  -10.2955    2.7836 H         1 2J4         0.0646
     19 H5          7.1110  -11.7870    1.1497 H         1 2J4         0.0648
     20 H6          5.8780  -10.1824   -0.0066 H         1 2J4         0.2100
     21 H7          7.1673   -9.4490    3.1475 H         1 2J4         0.0669
     22 H8          8.6899   -9.1868    1.4736 H         1 2J4         0.2101
     23 H9          8.4191  -12.2163    3.4016 H         1 2J4         0.0897
     24 H10         6.5617  -12.8821    4.8467 H         1 2J4         0.0759
     25 H11         9.3992  -10.8417    5.1684 H         1 2J4         0.3216
     26 H12         9.0275   -9.5046    7.3666 H         1 2J4         0.3186
     27 H13         7.3306   -9.2868    7.8724 H         1 2J4         0.3186
@<TRIPOS>BOND
     1    1    2 1  
     2    2    3 1  
     3    3    4 1  
     4    3    5 1  
     5    4   10 1  
     6    5    6 1  
     7    5    7 1  
     8    7    8 1  
     9    7    9 1  
    10    9   10 1  
    11    9   12 1  
    12   10   11 1  
    13   11   13 1  
    14   12   13 ar 
    15   13   14 ar 
    16    1   15 1  
    17    2   16 1  
    18    2   17 1  
    19    3   18 1  
    20    5   19 1  
    21    6   20 1  
    22    7   21 1  
    23    8   22 1  
    24    9   23 1  
    25   10   24 1  
    26   12   25 1  
    27   14   26 1  
    28   14   27 1  
@<TRIPOS>SUBSTRUCTURE
     1 2J4         1

