### 
### Created by X-TOOL on Mon Sep 10 21:13:28 2018
### 

@<TRIPOS>MOLECULE
5fl0_ligand
   38    39     1     0     0
SMALL
GAST_HUCK


@<TRIPOS>ATOM
      1 O1         26.5130   50.8720  251.3460 O.3       1 71I        -0.3924
      2 C1         26.0700   50.5380  250.0110 C.3       1 71I         0.0730
      3 C2         27.1770   50.9210  249.0440 C.3       1 71I         0.1116
      4 O2         27.4460   52.3130  249.1720 O.3       1 71I        -0.3538
      5 C3         28.4470   50.1690  249.3630 C.3       1 71I         0.1098
      6 O3         28.2530   48.7530  249.4060 O.3       1 71I        -0.3866
      7 C4         29.4360   50.5040  248.2720 C.3       1 71I         0.0928
      8 O4         30.6500   49.7930  248.4930 O.3       1 71I        -0.3886
      9 C5         29.7010   51.9880  248.2550 C.3       1 71I         0.0547
     10 C6         28.4150   52.8090  248.2410 C.3       1 71I         0.1369
     11 N1         30.3080   52.2600  246.9480 N.2       1 71I        -0.3555
     12 C7         29.4990   52.5670  246.0140 C.2       1 71I         0.1595
     13 S1         27.9120   52.7920  246.5160 S.3       1 71I         0.0009
     14 N2         29.9360   52.7020  244.7740 N.pl3     1 71I        -0.2799
     15 C8         29.1470   53.0650  243.6370 C.3       1 71I         0.0357
     16 C9         30.0840   52.9650  242.4360 C.3       1 71I        -0.0319
     17 C10        29.2860   52.9490  241.1400 C.3       1 71I        -0.0540
     18 C11        28.8790   54.3440  240.7820 C.3       1 71I        -0.0652
     19 H1         26.6872   51.8046  251.3966 H         1 71I         0.2095
     20 H2         25.1534   51.0965  249.7704 H         1 71I         0.0584
     21 H3         25.8703   49.4585  249.9423 H         1 71I         0.0584
     22 H4         26.8602   50.6925  248.0157 H         1 71I         0.0646
     23 H5         28.8333   50.5039  250.3369 H         1 71I         0.0646
     24 H6         27.6131   48.5424  250.0758 H         1 71I         0.2100
     25 H7         29.0156   50.2042  247.3007 H         1 71I         0.0626
     26 H8         30.4748   48.8594  248.4852 H         1 71I         0.2099
     27 H9         30.3505   52.2805  249.0932 H         1 71I         0.0398
     28 H10        28.6409   53.8456  248.5316 H         1 71I         0.0757
     29 H11        30.9383   52.5298  244.6109 H         1 71I         0.1940
     30 H12        28.7693   54.0925  243.7443 H         1 71I         0.0533
     31 H13        28.2998   52.3731  243.5212 H         1 71I         0.0533
     32 H14        30.6718   52.0383  242.5111 H         1 71I         0.0286
     33 H15        30.7628   53.8305  242.4329 H         1 71I         0.0286
     34 H16        28.3875   52.3282  241.2713 H         1 71I         0.0263
     35 H17        29.9062   52.5306  240.3336 H         1 71I         0.0263
     36 H18        28.3027   54.3288  239.8452 H         1 71I         0.0230
     37 H19        29.7769   54.9655  240.6500 H         1 71I         0.0230
     38 H20        28.2582   54.7630  241.5876 H         1 71I         0.0230
@<TRIPOS>BOND
     1    1    2 1  
     2    2    3 1  
     3    3    4 1  
     4    3    5 1  
     5    4   10 1  
     6    5    6 1  
     7    5    7 1  
     8    7    8 1  
     9    7    9 1  
    10    9   10 1  
    11    9   11 1  
    12   10   13 1  
    13   11   12 2  
    14   12   13 1  
    15   12   14 1  
    16   14   15 1  
    17   15   16 1  
    18   16   17 1  
    19   17   18 1  
    20    1   19 1  
    21    2   20 1  
    22    2   21 1  
    23    3   22 1  
    24    5   23 1  
    25    6   24 1  
    26    7   25 1  
    27    8   26 1  
    28    9   27 1  
    29   10   28 1  
    30   14   29 1  
    31   15   30 1  
    32   15   31 1  
    33   16   32 1  
    34   16   33 1  
    35   17   34 1  
    36   17   35 1  
    37   18   36 1  
    38   18   37 1  
    39   18   38 1  
@<TRIPOS>SUBSTRUCTURE
     1 71I         1

