### 
### Created by X-TOOL on Mon Sep 10 21:13:28 2018
### 

@<TRIPOS>MOLECULE
5fl1_ligand
   33    34     1     0     0
SMALL
GAST_HUCK


@<TRIPOS>ATOM
      1 O1         30.6250   49.7660  247.8880 O.3       1 DV1        -0.3886
      2 C1         29.4100   50.5020  247.7240 C.3       1 DV1         0.0928
      3 C2         28.4440   50.1680  248.8540 C.3       1 DV1         0.1098
      4 O2         28.1700   48.7660  248.8350 O.3       1 DV1        -0.3866
      5 C3         29.7030   51.9940  247.6920 C.3       1 DV1         0.0547
      6 C4         28.4190   52.8240  247.7450 C.3       1 DV1         0.1369
      7 O3         27.4420   52.3370  248.6820 O.3       1 DV1        -0.3538
      8 C5         27.1670   50.9370  248.6310 C.3       1 DV1         0.1116
      9 C6         26.1370   50.5650  249.7060 C.3       1 DV1         0.0730
     10 O4         26.6500   50.9110  250.9970 O.3       1 DV1        -0.3924
     11 N1         30.2710   52.2990  246.3640 N.2       1 DV1        -0.3553
     12 C7         29.4340   52.6160  245.4600 C.2       1 DV1         0.1616
     13 S1         27.8840   52.8520  246.0480 S.3       1 DV1         0.0011
     14 N2         29.7530   52.7630  244.1800 N.pl3     1 DV1        -0.2678
     15 C8         28.7910   53.1950  243.1930 C.3       1 DV1         0.0637
     16 C9         29.5200   53.6740  241.9540 C.2       1 DV1        -0.0662
     17 C10        28.9080   53.7450  240.7870 C.2       1 DV1        -0.1155
     18 H1         30.4347   48.8353  247.8732 H         1 DV1         0.2099
     19 H2         28.9475   50.2140  246.7684 H         1 DV1         0.0626
     20 H3         28.8854   50.4478  249.8219 H         1 DV1         0.0646
     21 H4         27.5678   48.5526  249.5381 H         1 DV1         0.2100
     22 H5         30.3876   52.2699  248.5076 H         1 DV1         0.0398
     23 H6         28.6690   53.8496  248.0543 H         1 DV1         0.0757
     24 H7         26.7605   50.6841  247.6407 H         1 DV1         0.0646
     25 H8         25.9405   49.4834  249.6672 H         1 DV1         0.0584
     26 H9         25.2016   51.1144  249.5237 H         1 DV1         0.0584
     27 H10        26.0121   50.6805  251.6622 H         1 DV1         0.2095
     28 H11        30.7180   52.5625  243.8808 H         1 DV1         0.1971
     29 H12        28.1875   54.0175  243.6044 H         1 DV1         0.0714
     30 H13        28.1331   52.3538  242.9292 H         1 DV1         0.0714
     31 H14        30.5669   53.9646  242.0278 H         1 DV1         0.0693
     32 H15        29.4497   54.0919  239.9083 H         1 DV1         0.0290
     33 H16        27.8613   53.4567  240.7027 H         1 DV1         0.0290
@<TRIPOS>BOND
     1    1    2 1  
     2    2    3 1  
     3    2    5 1  
     4    3    4 1  
     5    3    8 1  
     6    5    6 1  
     7    5   11 1  
     8    6    7 1  
     9    6   13 1  
    10    7    8 1  
    11    8    9 1  
    12    9   10 1  
    13   11   12 2  
    14   12   13 1  
    15   12   14 1  
    16   14   15 1  
    17   15   16 1  
    18   16   17 2  
    19    1   18 1  
    20    2   19 1  
    21    3   20 1  
    22    4   21 1  
    23    5   22 1  
    24    6   23 1  
    25    8   24 1  
    26    9   25 1  
    27    9   26 1  
    28   10   27 1  
    29   14   28 1  
    30   15   29 1  
    31   15   30 1  
    32   16   31 1  
    33   17   32 1  
    34   17   33 1  
@<TRIPOS>SUBSTRUCTURE
     1 DV1         1

