### 
### Created by X-TOOL on Mon Sep 10 21:13:24 2018
### 

@<TRIPOS>MOLECULE
5fl4_ligand
   36    39     1     0     0
SMALL
GAST_HUCK


@<TRIPOS>ATOM
      1 O22         9.0410  -24.6990   59.5870 O.2       1 9FK        -0.1507
      2 S21         8.9870  -26.1470   59.6370 S.o2      1 9FK         0.0722
      3 O23         8.6000  -26.5610   60.9520 O.2       1 9FK        -0.1507
      4 N24         7.9810  -26.8370   58.6000 N.am      1 9FK        -0.2610
      5 C19        10.5160  -26.7450   59.3650 C.2       1 9FK         0.1549
      6 S20        11.9280  -25.7510   59.4290 S.3       1 9FK        -0.0183
      7 C16        12.9150  -27.1290   59.1360 C.2       1 9FK         0.0355
      8 C17        12.1960  -28.3160   59.0370 C.2       1 9FK        -0.0756
      9 C18        10.8010  -28.0940   59.1720 C.2       1 9FK        -0.0567
     10 C14        14.3810  -26.8690   59.1260 C.2       1 9FK         0.0807
     11 C15        15.4710  -27.7270   58.9540 C.2       1 9FK         0.1021
     12 N11        16.5040  -26.8760   59.1330 N.pl3     1 9FK        -0.1221
     13 N12        16.1060  -25.5750   59.4360 N.2       1 9FK        -0.0768
     14 N13        14.7060  -25.5990   59.4400 N.2       1 9FK        -0.2140
     15 C10        17.8490  -27.0340   59.0900 C.ar      1 9FK         0.1326
     16 C9         18.7110  -26.1380   58.4340 C.ar      1 9FK        -0.0232
     17 C8         20.1100  -26.2270   58.4350 C.ar      1 9FK        -0.0665
     18 C7         20.7590  -27.2390   59.1210 C.ar      1 9FK        -0.0619
     19 C4         20.0210  -28.1800   59.8270 C.ar      1 9FK        -0.0204
     20 C3         18.5250  -28.1170   59.8670 C.ar      1 9FK         0.0246
     21 C5         20.6920  -29.1860   60.5000 C.ar      1 9FK        -0.0565
     22 C6         19.9690  -30.1280   61.2190 C.ar      1 9FK        -0.0627
     23 C1         18.5690  -30.0810   61.2570 C.ar      1 9FK        -0.0623
     24 C2         17.8530  -29.0850   60.6050 C.ar      1 9FK        -0.0516
     25 H1          8.0836  -26.6724   57.6190 H         1 9FK         0.1634
     26 H2          7.2501  -27.4325   58.9333 H         1 9FK         0.1634
     27 H3         12.6476  -29.2938   58.8759 H         1 9FK         0.0359
     28 H4         10.0482  -28.8798   59.1299 H         1 9FK         0.0420
     29 H5         15.4837  -28.7936   58.7348 H         1 9FK         0.1061
     30 H6         18.2606  -25.3177   57.8870 H         1 9FK         0.0572
     31 H7         20.6922  -25.4924   57.8905 H         1 9FK         0.0598
     32 H8         21.8414  -27.2969   59.1072 H         1 9FK         0.0551
     33 H9         21.7742  -29.2380   60.4660 H         1 9FK         0.0610
     34 H10        20.4936  -30.9091   61.7574 H         1 9FK         0.0616
     35 H11        18.0304  -30.8421   61.8099 H         1 9FK         0.0603
     36 H12        16.7713  -29.0625   60.6715 H         1 9FK         0.0628
@<TRIPOS>BOND
     1    1    2 2  
     2    2    3 2  
     3    2    4 am 
     4    2    5 1  
     5    5    6 1  
     6    5    9 2  
     7    6    7 1  
     8    7    8 2  
     9    7   10 1  
    10    8    9 1  
    11   10   11 2  
    12   10   14 1  
    13   11   12 1  
    14   12   13 1  
    15   12   15 1  
    16   13   14 2  
    17   15   16 ar 
    18   15   20 ar 
    19   16   17 ar 
    20   17   18 ar 
    21   18   19 ar 
    22   19   20 ar 
    23   19   21 ar 
    24   20   24 ar 
    25   21   22 ar 
    26   22   23 ar 
    27   23   24 ar 
    28    4   25 1  
    29    4   26 1  
    30    8   27 1  
    31    9   28 1  
    32   11   29 1  
    33   16   30 1  
    34   17   31 1  
    35   18   32 1  
    36   21   33 1  
    37   22   34 1  
    38   23   35 1  
    39   24   36 1  
@<TRIPOS>SUBSTRUCTURE
     1 9FK         1

