### 
### Created by X-TOOL on Mon Sep 10 21:13:21 2018
### 

@<TRIPOS>MOLECULE
5fl5_ligand
   34    36     1     0     0
SMALL
GAST_HUCK


@<TRIPOS>ATOM
      1 N1        -27.3240   -6.3810   -0.7270 N.am      1 82E        -0.2610
      2 S2        -27.2570   -5.1820   -1.7780 S.o2      1 82E         0.0721
      3 O5        -26.0130   -4.4750   -1.7520 O.2       1 82E        -0.1507
      4 O6        -27.4720   -5.7370   -3.1010 O.2       1 82E        -0.1507
      5 C7        -28.5550   -4.1680   -1.5510 C.2       1 82E         0.1546
      6 C8        -29.8910   -4.5730   -1.3570 C.2       1 82E        -0.0570
      7 C9        -30.7670   -3.4690   -1.2530 C.2       1 82E        -0.0759
      8 C10       -30.0670   -2.2610   -1.3730 C.2       1 82E         0.0349
      9 S11       -28.3810   -2.4670   -1.5890 S.3       1 82E        -0.0185
     10 C12       -30.5930   -0.8640   -1.3700 C.2       1 82E         0.0790
     11 N13       -29.7320    0.1760   -1.3090 N.2       1 82E        -0.2162
     12 N14       -30.5160    1.3250   -1.4090 N.2       1 82E        -0.0806
     13 N15       -31.8170    0.8410   -1.5290 N.pl3     1 82E        -0.1305
     14 C16       -31.9020   -0.5020   -1.5580 C.2       1 82E         0.0989
     15 C17       -32.8250    1.7190   -1.6890 C.ar      1 82E         0.1119
     16 C18       -33.9520    1.4030   -2.4520 C.ar      1 82E        -0.0310
     17 C19       -34.9920    2.2900   -2.6750 C.ar      1 82E        -0.0352
     18 C20       -34.9520    3.5760   -2.1450 C.ar      1 82E         0.0854
     19 C21       -33.8430    3.9390   -1.3740 C.ar      1 82E        -0.0352
     20 C22       -32.8040    3.0250   -1.1650 C.ar      1 82E        -0.0310
     21 O23       -35.9810    4.4740   -2.3410 O.3       1 82E        -0.3246
     22 C24       -37.2290    4.1140   -2.9720 C.3       1 82E         0.0583
     23 H1        -27.1984   -6.1987    0.2482 H         1 82E         0.1634
     24 H2        -27.4916   -7.3146   -1.0436 H         1 82E         0.1634
     25 H3        -30.2100   -5.6124   -1.2947 H         1 82E         0.0419
     26 H4        -31.8424   -3.5466   -1.1000 H         1 82E         0.0357
     27 H5        -32.7784   -1.1338   -1.6946 H         1 82E         0.1056
     28 H6        -34.0155    0.4141   -2.8914 H         1 82E         0.0571
     29 H7        -35.8449    1.9796   -3.2678 H         1 82E         0.0531
     30 H8        -33.7881    4.9298   -0.9377 H         1 82E         0.0531
     31 H9        -31.9487    3.3355   -0.5758 H         1 82E         0.0571
     32 H10       -37.8863    4.9951   -3.0138 H         1 82E         0.0575
     33 H11       -37.7182    3.3189   -2.3901 H         1 82E         0.0575
     34 H12       -37.0333    3.7539   -3.9928 H         1 82E         0.0575
@<TRIPOS>BOND
     1    1    2 am 
     2    2    3 2  
     3    2    4 2  
     4    2    5 1  
     5    5    6 2  
     6    5    9 1  
     7    6    7 1  
     8    7    8 2  
     9    8    9 1  
    10    8   10 1  
    11   10   11 1  
    12   10   14 2  
    13   11   12 2  
    14   12   13 1  
    15   13   14 1  
    16   13   15 1  
    17   15   16 ar 
    18   15   20 ar 
    19   16   17 ar 
    20   17   18 ar 
    21   18   19 ar 
    22   18   21 1  
    23   19   20 ar 
    24   21   22 1  
    25    1   23 1  
    26    1   24 1  
    27    6   25 1  
    28    7   26 1  
    29   14   27 1  
    30   16   28 1  
    31   17   29 1  
    32   19   30 1  
    33   20   31 1  
    34   22   32 1  
    35   22   33 1  
    36   22   34 1  
@<TRIPOS>SUBSTRUCTURE
     1 82E         1

