### 
### Created by X-TOOL on Mon Sep 10 21:13:22 2018
### 

@<TRIPOS>MOLECULE
5fl6_ligand
   33    35     1     0     0
SMALL
GAST_HUCK


@<TRIPOS>ATOM
      1 S1        -27.3540   -5.2740   -1.6650 S.o2      1 Y0R         0.0721
      2 N2        -27.3980   -6.5030   -0.6130 N.am      1 Y0R        -0.2610
      3 O5        -27.5290   -5.7810   -3.0210 O.2       1 Y0R        -0.1507
      4 O6        -26.0730   -4.6350   -1.6180 O.2       1 Y0R        -0.1507
      5 C7        -28.6490   -4.2380   -1.4650 C.2       1 Y0R         0.1547
      6 S8        -28.4520   -2.5230   -1.5250 S.3       1 Y0R        -0.0185
      7 C9        -30.1610   -2.2740   -1.3630 C.2       1 Y0R         0.0351
      8 C10       -30.8760   -3.4780   -1.2960 C.2       1 Y0R        -0.0758
      9 C11       -30.0070   -4.6090   -1.3760 C.2       1 Y0R        -0.0570
     10 C12       -30.6780   -0.8670   -1.3500 C.2       1 Y0R         0.0796
     11 C13       -31.9960   -0.4810   -1.5590 C.2       1 Y0R         0.0999
     12 N14       -31.9000    0.8630   -1.4920 N.pl3     1 Y0R        -0.1281
     13 N15       -30.5810    1.3270   -1.2870 N.2       1 Y0R        -0.0795
     14 N16       -29.8010    0.1690   -1.2190 N.2       1 Y0R        -0.2155
     15 C23       -36.0340    4.8250   -1.9380 C.3       1 Y0R        -0.0337
     16 C24       -32.9150    1.7540   -1.6170 C.ar      1 Y0R         0.1157
     17 C25       -34.0460    1.5740   -2.4310 C.ar      1 Y0R        -0.0293
     18 C26       -35.0580    2.5390   -2.5490 C.ar      1 Y0R        -0.0629
     19 C27       -34.9690    3.7550   -1.8570 C.ar      1 Y0R        -0.0514
     20 C28       -33.8560    3.9600   -1.0430 C.ar      1 Y0R        -0.0629
     21 C29       -32.8650    2.9830   -0.9350 C.ar      1 Y0R        -0.0293
     22 H1        -28.2272   -7.0546   -0.5230 H         1 Y0R         0.1634
     23 H2        -26.5960   -6.7108   -0.0530 H         1 Y0R         0.1634
     24 H3        -31.9584   -3.5430   -1.1955 H         1 Y0R         0.0357
     25 H4        -30.3539   -5.6413   -1.3691 H         1 Y0R         0.0419
     26 H5        -32.8751   -1.1002   -1.7315 H         1 Y0R         0.1059
     27 H6        -36.8317    4.4974   -2.6210 H         1 Y0R         0.0381
     28 H7        -35.5889    5.7577   -2.3148 H         1 Y0R         0.0381
     29 H8        -36.4564    4.9984   -0.9373 H         1 Y0R         0.0381
     30 H9        -34.1408    0.6509   -2.9914 H         1 Y0R         0.0580
     31 H10       -35.9165    2.3424   -3.1810 H         1 Y0R         0.0544
     32 H11       -33.7593    4.8866   -0.4889 H         1 Y0R         0.0544
     33 H12       -32.0142    3.1814   -0.2933 H         1 Y0R         0.0580
@<TRIPOS>BOND
     1    1    2 am 
     2    1    3 2  
     3    1    4 2  
     4    5    1 1  
     5    6    5 1  
     6    9    5 2  
     7    7    6 1  
     8    7    8 2  
     9   10    7 1  
    10    8    9 1  
    11   11   10 2  
    12   14   10 1  
    13   12   11 1  
    14   12   13 1  
    15   16   12 1  
    16   13   14 2  
    17   19   15 1  
    18   17   16 ar 
    19   16   21 ar 
    20   18   17 ar 
    21   18   19 ar 
    22   19   20 ar 
    23   20   21 ar 
    24    2   22 1  
    25    2   23 1  
    26    8   24 1  
    27    9   25 1  
    28   11   26 1  
    29   15   27 1  
    30   15   28 1  
    31   15   29 1  
    32   17   30 1  
    33   18   31 1  
    34   20   32 1  
    35   21   33 1  
@<TRIPOS>SUBSTRUCTURE
     1 Y0R         1

