### 
### Created by X-TOOL on Mon Sep 10 21:13:26 2018
### 

@<TRIPOS>MOLECULE
5flo_ligand
   21    22     1     0     0
SMALL
GAST_HUCK


@<TRIPOS>ATOM
      1 C1         -5.0290    3.3550   14.5780 C.ar      1 J4K        -0.0321
      2 C2         -5.5660    4.5560   14.2630 C.ar      1 J4K        -0.0567
      3 C3         -6.0330    4.7680   13.0080 C.ar      1 J4K         0.0285
      4 C4         -5.9540    3.7850   12.0640 C.ar      1 J4K        -0.0567
      5 C5         -5.4210    2.5820   12.4260 C.ar      1 J4K        -0.0321
      6 C6         -4.9490    2.3310   13.6780 C.ar      1 J4K         0.0954
      7 O7         -4.3950    1.0560   13.9100 O.3       1 J4K        -0.2958
      8 C8         -3.7350    0.9840   15.1700 C.3       1 J4K         0.1565
      9 C9         -4.7530    1.0660   16.1750 C.2       1 J4K         0.1936
     10 N10        -4.7830    1.7640   17.2700 N.2       1 J4K        -0.2202
     11 N11        -5.9640    1.4610   17.8780 N.2       1 J4K        -0.1531
     12 N12        -6.5920    0.5680   17.0990 N.2       1 J4K        -0.0729
     13 N13        -5.8180    0.2960   15.9960 N.pl3     1 J4K        -0.1490
     14 CL1        -6.7870    6.2810   12.5530 Cl        1 J4K        -0.0810
     15 H1         -4.6484    3.1998   15.5811 H         1 J4K         0.0543
     16 H2         -5.6224    5.3419   15.0074 H         1 J4K         0.0595
     17 H3         -6.3056    3.9556   11.0529 H         1 J4K         0.0595
     18 H4         -5.3713    1.7925   11.6849 H         1 J4K         0.0543
     19 H5         -3.0294    1.8211   15.2764 H         1 J4K         0.0885
     20 H6         -3.1909    0.0322   15.2588 H         1 J4K         0.0885
     21 H7         -6.0170   -0.3496   15.2185 H         1 J4K         0.2710
@<TRIPOS>BOND
     1    1    2 ar 
     2    1    6 ar 
     3    2    3 ar 
     4    3    4 ar 
     5    3   14 1  
     6    4    5 ar 
     7    5    6 ar 
     8    6    7 1  
     9    7    8 1  
    10    8    9 1  
    11    9   10 2  
    12    9   13 1  
    13   10   11 1  
    14   11   12 2  
    15   12   13 1  
    16    1   15 1  
    17    2   16 1  
    18    4   17 1  
    19    5   18 1  
    20    8   19 1  
    21    8   20 1  
    22   13   21 1  
@<TRIPOS>SUBSTRUCTURE
     1 J4K         1

