### 
### Created by X-TOOL on Mon Sep 10 21:13:26 2018
### 

@<TRIPOS>MOLECULE
5flp_ligand
   21    22     1     0     0
SMALL
GAST_HUCK


@<TRIPOS>ATOM
      1 CL1        -6.0250    5.6420   13.9750 Cl        1 6J5        -0.0788
      2 C2         -4.2930    5.8190   13.7720 C.ar      1 6J5         0.0681
      3 C3         -3.7300    6.9080   13.1360 C.ar      1 6J5        -0.0566
      4 C4         -2.3640    6.9990   12.9930 C.ar      1 6J5        -0.0723
      5 C5         -1.5700    6.0030   13.5020 C.ar      1 6J5        -0.0704
      6 C6         -2.1220    4.9160   14.1440 C.ar      1 6J5        -0.0321
      7 C7         -3.4850    4.8280   14.2680 C.ar      1 6J5         0.1093
      8 O8         -4.2030    3.8050   14.8720 O.3       1 6J5        -0.2952
      9 C9         -3.4400    2.7310   15.3940 C.3       1 6J5         0.1566
     10 C10        -4.3920    1.7680   16.0600 C.2       1 6J5         0.1937
     11 N11        -4.8290    1.7660   17.3270 N.2       1 6J5        -0.2202
     12 N12        -5.7010    0.7160   17.4860 N.2       1 6J5        -0.1531
     13 N13        -5.7300    0.1050   16.2820 N.2       1 6J5        -0.0729
     14 N14        -4.9230    0.7550   15.3740 N.pl3     1 6J5        -0.1490
     15 H1         -4.3667    7.6947   12.7477 H         1 6J5         0.0595
     16 H2         -1.9211    7.8476   12.4843 H         1 6J5         0.0523
     17 H3         -0.4932    6.0720   13.3977 H         1 6J5         0.0591
     18 H4         -1.4847    4.1374   14.5474 H         1 6J5         0.0542
     19 H5         -2.7157    3.1099   16.1300 H         1 6J5         0.0885
     20 H6         -2.9033    2.2229   14.5793 H         1 6J5         0.0885
     21 H7         -4.7650    0.5126   14.3855 H         1 6J5         0.2710
@<TRIPOS>BOND
     1    1    2 1  
     2    2    3 ar 
     3    2    7 ar 
     4    3    4 ar 
     5    4    5 ar 
     6    5    6 ar 
     7    6    7 ar 
     8    7    8 1  
     9    8    9 1  
    10    9   10 1  
    11   10   11 2  
    12   10   14 1  
    13   11   12 1  
    14   12   13 2  
    15   13   14 1  
    16    3   15 1  
    17    4   16 1  
    18    5   17 1  
    19    6   18 1  
    20    9   19 1  
    21    9   20 1  
    22   14   21 1  
@<TRIPOS>SUBSTRUCTURE
     1 6J5         1

