### 
### Created by X-TOOL on Mon Sep 10 21:13:26 2018
### 

@<TRIPOS>MOLECULE
5flq_ligand
   31    32     1     0     0
SMALL
GAST_HUCK


@<TRIPOS>ATOM
      1 C1         -0.4400    9.2610   14.4440 C.ar      1 IO2        -0.0687
      2 C2         -0.1850    8.5990   13.2600 C.ar      1 IO2        -0.0685
      3 C3         -1.0970    7.6930   12.7660 C.ar      1 IO2        -0.0578
      4 C4         -2.2740    7.4270   13.4370 C.ar      1 IO2        -0.0131
      5 C5         -2.5150    8.0950   14.6170 C.ar      1 IO2        -0.0578
      6 C6         -1.6060    9.0020   15.1230 C.ar      1 IO2        -0.0685
      7 C7         -3.2210    6.4380   12.8260 C.3       1 IO2         0.1029
      8 O8         -4.5040    6.3250   13.4750 O.3       1 IO2        -0.3098
      9 C9         -4.7120    5.2610   14.3430 C.ar      1 IO2         0.0870
     10 C10        -3.7880    4.2860   14.6580 C.ar      1 IO2        -0.0391
     11 C11        -4.1360    3.2870   15.5430 C.ar      1 IO2        -0.0671
     12 C12        -5.3750    3.2230   16.1380 C.ar      1 IO2        -0.0409
     13 C13        -6.2970    4.2000   15.8190 C.ar      1 IO2        -0.0671
     14 C14        -5.9600    5.2010   14.9220 C.ar      1 IO2        -0.0391
     15 C15        -5.6520    2.1060   17.1250 C.3       1 IO2         0.0285
     16 C16        -6.3420    0.9770   16.4380 C.2       1 IO2         0.0446
     17 O17        -5.6280    0.0120   15.9630 O.co2     1 IO2        -0.5667
     18 O18        -7.5800    1.1730   16.4480 O.co2     1 IO2        -0.5667
     19 H1          0.2728    9.9783   14.8344 H         1 IO2         0.0559
     20 H2          0.7339    8.7924   12.7185 H         1 IO2         0.0599
     21 H3         -0.8872    7.1799   11.8344 H         1 IO2         0.0557
     22 H4         -3.4350    7.9051   15.1580 H         1 IO2         0.0557
     23 H5         -1.8124    9.5108   16.0576 H         1 IO2         0.0599
     24 H6         -2.7405    5.4488   12.8504 H         1 IO2         0.0776
     25 H7         -3.3946    6.7356   11.7814 H         1 IO2         0.0776
     26 H8         -2.7990    4.3049   14.2146 H         1 IO2         0.0526
     27 H9         -3.4048    2.5224   15.7790 H         1 IO2         0.0533
     28 H10        -7.2828    4.1840   16.2695 H         1 IO2         0.0533
     29 H11        -6.6967    5.9552   14.6699 H         1 IO2         0.0526
     30 H12        -6.2927    2.4858   17.9344 H         1 IO2         0.0567
     31 H13        -4.7011    1.7488   17.5470 H         1 IO2         0.0567
@<TRIPOS>BOND
     1    1    2 ar 
     2    1    6 ar 
     3    2    3 ar 
     4    3    4 ar 
     5    4    5 ar 
     6    4    7 1  
     7    5    6 ar 
     8    7    8 1  
     9    8    9 1  
    10    9   10 ar 
    11    9   14 ar 
    12   10   11 ar 
    13   11   12 ar 
    14   12   13 ar 
    15   12   15 1  
    16   13   14 ar 
    17   15   16 1  
    18   16   17 ar 
    19   16   18 ar 
    20    1   19 1  
    21    2   20 1  
    22    3   21 1  
    23    5   22 1  
    24    6   23 1  
    25    7   24 1  
    26    7   25 1  
    27   10   26 1  
    28   11   27 1  
    29   13   28 1  
    30   14   29 1  
    31   15   30 1  
    32   15   31 1  
@<TRIPOS>SUBSTRUCTURE
     1 IO2         1

