### 
### Created by X-TOOL on Mon Sep 10 21:13:27 2018
### 

@<TRIPOS>MOLECULE
5fls_ligand
   21    21     1     0     0
SMALL
GAST_HUCK


@<TRIPOS>ATOM
      1 C8         -3.1060    7.1450   14.6570 C.ar      1 6ZX        -0.0498
      2 C13        -2.0070    5.6040   13.2100 C.ar      1 6ZX        -0.0498
      3 C9         -2.2180    8.1340   14.2800 C.ar      1 6ZX        -0.0447
      4 C12        -1.1130    6.5860   12.8150 C.ar      1 6ZX        -0.0447
      5 C7         -3.0110    5.8750   14.1230 C.ar      1 6ZX        -0.0110
      6 C10        -1.2330    7.8420   13.3650 C.ar      1 6ZX         0.0430
      7 C4         -3.4300    3.7040   15.0530 C.2       1 6ZX        -0.0377
      8 C5         -3.9760    4.8410   14.5750 C.2       1 6ZX        -0.0322
      9 C2         -4.2060    2.5180   15.6070 C.2       1 6ZX         0.0374
     10 C6         -5.4260    5.1700   14.5340 C.3       1 6ZX        -0.0264
     11 O3         -5.3040    2.1850   15.0590 O.co2     1 6ZX        -0.5702
     12 O1         -3.6180    1.9320   16.5740 O.co2     1 6ZX        -0.5702
     13 CL11       -0.1450    9.0960   12.9240 Cl        1 6ZX        -0.0681
     14 H1         -3.8840    7.3678   15.3782 H         1 6ZX         0.0646
     15 H2         -1.9184    4.6058   12.7966 H         1 6ZX         0.0646
     16 H3         -2.2966    9.1299   14.7009 H         1 6ZX         0.0629
     17 H4         -0.3370    6.3701   12.0896 H         1 6ZX         0.0629
     18 H5         -2.3437    3.6285   15.0415 H         1 6ZX         0.0441
     19 H6         -5.5634    6.1667   14.0893 H         1 6ZX         0.0418
     20 H7         -5.8321    5.1655   15.5563 H         1 6ZX         0.0418
     21 H8         -5.9549    4.4212   13.9261 H         1 6ZX         0.0418
@<TRIPOS>BOND
     1    1    3 ar 
     2    5    1 ar 
     3    2    4 ar 
     4    2    5 ar 
     5    3    6 ar 
     6    4    6 ar 
     7    5    8 1  
     8    6   13 1  
     9    8    7 2  
    10    7    9 1  
    11    8   10 1  
    12    9   11 ar 
    13    9   12 ar 
    14    1   14 1  
    15    2   15 1  
    16    3   16 1  
    17    4   17 1  
    18    7   18 1  
    19   10   19 1  
    20   10   20 1  
    21   10   21 1  
@<TRIPOS>SUBSTRUCTURE
     1 6ZX         1

