### 
### Created by X-TOOL on Mon Sep 10 21:13:26 2018
### 

@<TRIPOS>MOLECULE
5flt_ligand
   25    26     1     0     0
SMALL
GAST_HUCK


@<TRIPOS>ATOM
      1 OAA        -3.5490    2.0350   15.9330 O.co2     1 VJJ        -0.5607
      2 OAB        -5.7800    2.2340   15.6930 O.co2     1 VJJ        -0.5607
      3 CAC        -0.5090    9.9360   13.9620 C.ar      1 VJJ        -0.0723
      4 CAD        -1.4960    9.5290   14.8020 C.ar      1 VJJ        -0.0697
      5 CAE         0.0220    9.0720   13.0260 C.ar      1 VJJ        -0.0697
      6 CAF        -5.4590    5.7880   13.6540 C.ar      1 VJJ        -0.0661
      7 CAG        -1.9930    8.2530   14.7300 C.ar      1 VJJ        -0.0285
      8 CAH        -0.4780    7.7900   12.9320 C.ar      1 VJJ        -0.0285
      9 CAI        -4.2230    6.3270   13.4230 C.ar      1 VJJ        -0.0259
     10 CAJ        -5.5900    4.5680   14.2960 C.ar      1 VJJ        -0.0581
     11 CAK        -3.2480    4.4410   14.5600 C.ar      1 VJJ        -0.0144
     12 OAL        -1.8850    6.0940   13.6830 O.3       1 VJJ        -0.2573
     13 CAM        -4.6000    2.5870   15.4630 C.2       1 VJJ         0.0605
     14 CAN        -1.4880    7.4130   13.7880 C.ar      1 VJJ         0.1161
     15 CAO        -3.1450    5.6320   13.8900 C.ar      1 VJJ         0.1195
     16 CAP        -4.4850    3.9000   14.7720 C.ar      1 VJJ         0.0024
     17 H1         -0.1342   10.9510   14.0277 H         1 VJJ         0.0528
     18 H2         -1.8946   10.2196   15.5363 H         1 VJJ         0.0590
     19 H3          0.8230    9.3972   12.3720 H         1 VJJ         0.0590
     20 H4         -6.3455    6.3217   13.3310 H         1 VJJ         0.0597
     21 H5         -2.7707    7.9217   15.4086 H         1 VJJ         0.0552
     22 H6         -0.0841    7.0943   12.1999 H         1 VJJ         0.0552
     23 H7         -4.1049    7.2649   12.8924 H         1 VJJ         0.0573
     24 H8         -6.5749    4.1339   14.4252 H         1 VJJ         0.0562
     25 H9         -2.3590    3.9341   14.9175 H         1 VJJ         0.0585
@<TRIPOS>BOND
     1   13    1 ar 
     2   13    2 ar 
     3    4    3 ar 
     4    5    3 ar 
     5    7    4 ar 
     6    8    5 ar 
     7    6    9 ar 
     8   10    6 ar 
     9   14    7 ar 
    10   14    8 ar 
    11   15    9 ar 
    12   16   10 ar 
    13   11   15 ar 
    14   16   11 ar 
    15   12   14 1  
    16   15   12 1  
    17   13   16 1  
    18    3   17 1  
    19    4   18 1  
    20    5   19 1  
    21    6   20 1  
    22    7   21 1  
    23    8   22 1  
    24    9   23 1  
    25   10   24 1  
    26   11   25 1  
@<TRIPOS>SUBSTRUCTURE
     1 VJJ         1

