### 
### Created by X-TOOL on Mon Sep 10 21:13:28 2018
### 

@<TRIPOS>MOLECULE
5fnc_ligand
   30    31     1     0     0
SMALL
GAST_HUCK


@<TRIPOS>ATOM
      1 C16         0.6860   10.1820   26.1050 C.ar      1 IEE         0.0083
      2 C2         -0.6390   10.1620   26.5130 C.ar      1 IEE         0.1059
      3 CL1        -1.0330    9.5030   28.0320 Cl        1 IEE        -0.0371
      4 N3         -1.6170   10.6290   25.7320 N.ar      1 IEE        -0.2585
      5 C4         -1.2640   11.0940   24.5130 C.ar      1 IEE         0.1671
      6 N17        -2.2480   11.5290   23.7680 N.pl3     1 IEE        -0.3070
      7 N5          0.0230   11.1950   24.0730 N.ar      1 IEE        -0.2466
      8 C6          0.9850   10.7230   24.8500 C.ar      1 IEE         0.1116
      9 N7          2.2690   10.6870   24.4930 N.pl3     1 IEE        -0.2942
     10 C8          3.1350   11.7760   23.9680 C.3       1 IEE         0.0594
     11 C9          4.4260   11.2440   23.6570 C.ar      1 IEE        -0.0275
     12 C10         4.6020    9.8660   23.3230 C.ar      1 IEE        -0.0649
     13 C11         5.8480    9.3040   23.0010 C.ar      1 IEE        -0.0670
     14 C12         6.9550   10.1110   23.0070 C.ar      1 IEE        -0.0528
     15 C15         8.1890    9.5570   22.7110 C.3       1 IEE        -0.0343
     16 C13         6.8000   11.4790   23.3530 C.ar      1 IEE        -0.0670
     17 C14         5.5620   12.0460   23.6780 C.ar      1 IEE        -0.0649
     18 H1          1.4699    9.7886   26.7420 H         1 IEE         0.0543
     19 H2         -3.2195   11.4521   24.1016 H         1 IEE         0.1823
     20 H3         -2.0510   11.9483   22.8481 H         1 IEE         0.1823
     21 H4          2.7284    9.7709   24.5959 H         1 IEE         0.1865
     22 H5          3.2358   12.5644   24.7284 H         1 IEE         0.0673
     23 H6          2.6830   12.1991   23.0588 H         1 IEE         0.0673
     24 H7          3.7300    9.2221   23.3179 H         1 IEE         0.0540
     25 H8          5.9322    8.2522   22.7526 H         1 IEE         0.0540
     26 H9          8.9626   10.3375   22.7603 H         1 IEE         0.0378
     27 H10         8.1650    9.1280   21.6984 H         1 IEE         0.0378
     28 H11         8.4198    8.7655   23.4392 H         1 IEE         0.0378
     29 H12         7.6794   12.1127   23.3661 H         1 IEE         0.0540
     30 H13         5.4899   13.0948   23.9422 H         1 IEE         0.0540
@<TRIPOS>BOND
     1    1    2 ar 
     2    1    8 ar 
     3    2    3 1  
     4    2    4 ar 
     5    4    5 ar 
     6    5    6 1  
     7    5    7 ar 
     8    7    8 ar 
     9    8    9 1  
    10    9   10 1  
    11   10   11 1  
    12   11   12 ar 
    13   11   17 ar 
    14   12   13 ar 
    15   13   14 ar 
    16   14   15 1  
    17   14   16 ar 
    18   16   17 ar 
    19    1   18 1  
    20    6   19 1  
    21    6   20 1  
    22    9   21 1  
    23   10   22 1  
    24   10   23 1  
    25   12   24 1  
    26   13   25 1  
    27   15   26 1  
    28   15   27 1  
    29   15   28 1  
    30   16   29 1  
    31   17   30 1  
@<TRIPOS>SUBSTRUCTURE
     1 IEE         1

