### 
### Created by X-TOOL on Mon Sep 10 21:13:29 2018
### 

@<TRIPOS>MOLECULE
5fnd_ligand
   26    27     1     0     0
SMALL
GAST_HUCK


@<TRIPOS>ATOM
      1 C4         34.0820    7.6630   28.0380 C.3       1 IQ5        -0.0389
      2 C3         32.9150    8.1890   27.5910 C.ar      1 IQ5        -0.0344
      3 C2         32.8980    8.8200   26.3450 C.ar      1 IQ5        -0.0623
      4 C1         31.7660    9.3900   25.8670 C.ar      1 IQ5         0.0290
      5 S          31.5270   10.2220   24.3280 S.3       1 IQ5         0.0153
      6 C13        29.7530   10.4560   24.7710 C.2       1 IQ5         0.1772
      7 N14        28.8280   11.0270   24.0400 N.pl3     1 IQ5        -0.2950
      8 N12        29.5160   10.0030   26.0140 N.2       1 IQ5        -0.3171
      9 C11        30.5910    9.3760   26.5990 C.ar      1 IQ5        -0.0098
     10 C10        30.5830    8.7360   27.7880 C.ar      1 IQ5        -0.0492
     11 C5         31.7200    8.1140   28.3200 C.ar      1 IQ5         0.0556
     12 N6         31.6910    7.6140   29.5850 N.am      1 IQ5        -0.2420
     13 C7         31.8820    6.3130   29.9880 C.2       1 IQ5         0.1971
     14 O8         32.0770    5.3730   29.2400 O.2       1 IQ5        -0.3868
     15 C9         31.7590    6.0890   31.4960 C.3       1 IQ5         0.0309
     16 H1         34.8742    7.8459   27.2971 H         1 IQ5         0.0351
     17 H2         33.9626    6.5797   28.1872 H         1 IQ5         0.0351
     18 H3         34.3560    8.1366   28.9922 H         1 IQ5         0.0351
     19 H4         33.8045    8.8541   25.7515 H         1 IQ5         0.0461
     20 H5         27.8639   11.1009   24.3948 H         1 IQ5         0.1888
     21 H6         29.0648   11.4020   23.1104 H         1 IQ5         0.1888
     22 H7         29.6591    8.7021   28.3540 H         1 IQ5         0.0387
     23 H8         31.5079    8.2751   30.3127 H         1 IQ5         0.2213
     24 H9         31.9261    5.0259   31.7236 H         1 IQ5         0.0471
     25 H10        30.7523    6.3814   31.8293 H         1 IQ5         0.0471
     26 H11        32.5101    6.6985   32.0197 H         1 IQ5         0.0471
@<TRIPOS>BOND
     1    1    2 1  
     2    2    3 ar 
     3    2   11 ar 
     4    3    4 ar 
     5    4    5 1  
     6    4    9 ar 
     7    5    6 1  
     8    6    7 1  
     9    6    8 2  
    10    8    9 1  
    11    9   10 ar 
    12   10   11 ar 
    13   11   12 1  
    14   12   13 am 
    15   13   14 2  
    16   13   15 1  
    17    1   16 1  
    18    1   17 1  
    19    1   18 1  
    20    3   19 1  
    21    7   20 1  
    22    7   21 1  
    23   10   22 1  
    24   12   23 1  
    25   15   24 1  
    26   15   25 1  
    27   15   26 1  
@<TRIPOS>SUBSTRUCTURE
     1 IQ5         1

