### 
### Created by X-TOOL on Mon Sep 10 21:13:29 2018
### 

@<TRIPOS>MOLECULE
5fnf_ligand
   27    28     1     0     0
SMALL
GAST_HUCK


@<TRIPOS>ATOM
      1 CAM         1.8710    8.3730   26.5620 C.ar      1 TQL        -0.0359
      2 CAN         2.6400    7.2150   26.3450 C.ar      1 TQL        -0.0354
      3 CAO         2.3980    6.3950   25.2420 C.ar      1 TQL         0.0094
      4 NAP         1.2960    6.7980   24.3680 N.ar      1 TQL        -0.2979
      5 CAQ         0.5460    7.9800   24.6180 C.ar      1 TQL         0.0179
      6 CAL         0.7940    8.7930   25.7360 C.ar      1 TQL         0.0200
      7 CAI         0.0230    9.9860   25.9650 C.2       1 TQL         0.0832
      8 NAJ        -0.6960   10.1380   27.0560 N.2       1 TQL        -0.1540
      9 OAK        -0.4710    9.1350   27.9570 O.3       1 TQL        -0.2518
     10 CAH        -0.0560   10.8910   24.8950 C.ar      1 TQL         0.0180
     11 CAG         1.1610   11.1740   24.2800 C.ar      1 TQL        -0.0685
     12 CAF         1.1890   11.9740   23.1400 C.ar      1 TQL        -0.0427
     13 CAD         0.0160   12.4700   22.6100 C.ar      1 TQL         0.0806
     14 OAE         0.0340   13.2260   21.5060 O.3       1 TQL        -0.3349
     15 CAC        -1.2000   12.2220   23.2170 C.ar      1 TQL        -0.0034
     16 CAB        -1.2420   11.4360   24.3440 C.ar      1 TQL         0.0913
     17 OAA        -2.4290   11.2850   24.9530 O.3       1 TQL        -0.3329
     18 H1          2.1176    8.9881   27.4198 H         1 TQL         0.0729
     19 H2          3.4290    6.9569   27.0421 H         1 TQL         0.0704
     20 H3          2.9923    5.5103   25.0441 H         1 TQL         0.0807
     21 H4         -0.2395    8.2615   23.9260 H         1 TQL         0.0821
     22 H5         -1.0058    9.2784   28.7290 H         1 TQL         0.2837
     23 H6          2.0825   10.7735   24.6867 H         1 TQL         0.0565
     24 H7          2.1362   12.2077   22.6675 H         1 TQL         0.0461
     25 H8         -0.8539   13.4794   21.2826 H         1 TQL         0.2487
     26 H9         -2.1117   12.6429   22.8087 H         1 TQL         0.0465
     27 H10        -2.3249   10.7241   25.7126 H         1 TQL         0.2496
@<TRIPOS>BOND
     1    1    2 ar 
     2    1    6 ar 
     3    2    3 ar 
     4    3    4 ar 
     5    4    5 ar 
     6    5    6 ar 
     7    6    7 1  
     8    7    8 2  
     9    7   10 1  
    10    8    9 1  
    11   10   11 ar 
    12   10   16 ar 
    13   11   12 ar 
    14   12   13 ar 
    15   13   14 1  
    16   13   15 ar 
    17   15   16 ar 
    18   16   17 1  
    19    1   18 1  
    20    2   19 1  
    21    3   20 1  
    22    5   21 1  
    23    9   22 1  
    24   11   23 1  
    25   12   24 1  
    26   14   25 1  
    27   15   26 1  
    28   17   27 1  
@<TRIPOS>SUBSTRUCTURE
     1 TQL         1

