### 
### Created by X-TOOL on Mon Sep 10 21:13:27 2018
### 

@<TRIPOS>MOLECULE
5fng_ligand
   20    21     1     0     0
SMALL
GAST_HUCK


@<TRIPOS>ATOM
      1 CL1        -6.8500    6.4070   12.4530 Cl        1 YIE        -0.0767
      2 C2         -6.1380    5.0150   13.1600 C.ar      1 YIE         0.0334
      3 C5         -6.0310    4.8880   14.5260 C.ar      1 YIE        -0.0540
      4 C6         -5.4660    3.7660   15.0580 C.ar      1 YIE        -0.0568
      5 C7         -4.9710    2.7650   14.2210 C.ar      1 YIE        -0.0228
      6 C4         -5.0720    2.9150   12.8550 C.ar      1 YIE        -0.0568
      7 C3         -5.6620    4.0380   12.3180 C.ar      1 YIE        -0.0540
      8 C8         -4.2920    1.5040   14.7400 C.3       1 YIE         0.0673
      9 C9         -4.8160    1.1850   16.0770 C.2       1 YIE         0.1738
     10 N10        -5.7770    0.2820   16.1730 N.2       1 YIE        -0.2202
     11 N11        -6.0630    0.2270   17.5000 N.2       1 YIE        -0.1525
     12 N12        -5.2810    1.1230   18.1370 N.2       1 YIE        -0.0726
     13 N13        -4.4800    1.7450   17.2400 N.pl3     1 YIE        -0.1501
     14 H1         -6.3939    5.6757   15.1763 H         1 YIE         0.0607
     15 H2         -5.4014    3.6517   16.1340 H         1 YIE         0.0563
     16 H3         -4.6846    2.1442   12.1986 H         1 YIE         0.0563
     17 H4         -5.7500    4.1501   11.2434 H         1 YIE         0.0607
     18 H5         -3.2063    1.6697   14.8008 H         1 YIE         0.0685
     19 H6         -4.4976    0.6677   14.0557 H         1 YIE         0.0685
     20 H7         -3.7772    2.4775   17.4145 H         1 YIE         0.2710
@<TRIPOS>BOND
     1    1    2 1  
     2    2    3 ar 
     3    2    7 ar 
     4    3    4 ar 
     5    4    5 ar 
     6    5    6 ar 
     7    5    8 1  
     8    6    7 ar 
     9    8    9 1  
    10    9   10 2  
    11    9   13 1  
    12   10   11 1  
    13   11   12 2  
    14   12   13 1  
    15    3   14 1  
    16    4   15 1  
    17    6   16 1  
    18    7   17 1  
    19    8   18 1  
    20    8   19 1  
    21   13   20 1  
@<TRIPOS>SUBSTRUCTURE
     1 YIE         1

