### 
### Created by X-TOOL on Mon Sep 10 21:13:26 2018
### 

@<TRIPOS>MOLECULE
5fni_ligand
   21    22     1     0     0
SMALL
GAST_HUCK


@<TRIPOS>ATOM
      1 C6         -5.5070    2.5130   12.5060 C.ar      1 YIH        -0.0320
      2 C5         -6.0710    3.7130   12.1320 C.ar      1 YIH        -0.0562
      3 C15        -5.0460    3.4080   14.6060 C.ar      1 YIH        -0.0184
      4 C7         -4.9540    2.3370   13.7450 C.ar      1 YIH         0.0958
      5 C3         -6.1770    4.7270   13.0070 C.ar      1 YIH         0.0424
      6 C2         -5.6350    4.5710   14.2160 C.ar      1 YIH         0.0457
      7 C10        -4.9390    0.9310   16.3520 C.2       1 YIH         0.1936
      8 C9         -3.8810    0.8760   15.3190 C.3       1 YIH         0.1565
      9 N12        -5.8810    1.5540   18.1410 N.2       1 YIH        -0.0729
     10 N11        -4.7800    1.7540   17.3880 N.pl3     1 YIH        -0.1490
     11 N14        -6.0890    0.2550   16.4070 N.2       1 YIH        -0.2202
     12 N13        -6.6990    0.6510   17.5620 N.2       1 YIH        -0.1531
     13 O8         -4.4060    1.0780   14.0070 O.3       1 YIH        -0.2959
     14 CL4        -6.9370    6.2320   12.4920 Cl        1 YIH        -0.0803
     15 CL1        -5.7200    5.8580   15.3700 Cl        1 YIH        -0.0728
     16 H1         -5.5012    1.6888   11.8020 H         1 YIH         0.0545
     17 H2         -6.4340    3.8407   11.1186 H         1 YIH         0.0596
     18 H3         -4.6434    3.3232   15.6089 H         1 YIH         0.0548
     19 H4         -3.3955   -0.1102   15.3596 H         1 YIH         0.0885
     20 H5         -3.1380    1.6595   15.5290 H         1 YIH         0.0885
     21 H6         -3.9957    2.3960   17.5717 H         1 YIH         0.2710
@<TRIPOS>BOND
     1    1    2 ar 
     2    4    1 ar 
     3    2    5 ar 
     4    4    3 ar 
     5    3    6 ar 
     6   13    4 1  
     7    6    5 ar 
     8    5   14 1  
     9    6   15 1  
    10    8    7 1  
    11    7   10 1  
    12    7   11 2  
    13    8   13 1  
    14   10    9 1  
    15    9   12 2  
    16   11   12 1  
    17    1   16 1  
    18    2   17 1  
    19    3   18 1  
    20    8   19 1  
    21    8   20 1  
    22   10   21 1  
@<TRIPOS>SUBSTRUCTURE
     1 YIH         1

