### 
### Created by X-TOOL on Mon Sep 10 21:13:25 2018
### 

@<TRIPOS>MOLECULE
5fnj_ligand
   24    24     1     0     0
SMALL
GAST_HUCK


@<TRIPOS>ATOM
      1 C12        -6.3240    4.9430   15.1810 C.ar      1 YI6        -0.0393
      2 C13        -5.6520    3.8880   15.7390 C.ar      1 YI6        -0.0671
      3 C5         -4.9140    3.0520   14.9480 C.ar      1 YI6        -0.0409
      4 C6         -4.9050    3.2620   13.5730 C.ar      1 YI6        -0.0671
      5 C7         -5.6040    4.3370   12.9890 C.ar      1 YI6        -0.0393
      6 C8         -6.3130    5.1620   13.8190 C.ar      1 YI6         0.0842
      7 C2         -4.9150    0.5430   15.3500 C.2       1 YI6         0.0446
      8 O9         -7.0320    6.3010   13.3140 O.3       1 YI6        -0.3226
      9 C10        -6.6840    6.7720   12.0260 C.3       1 YI6         0.0661
     10 C11        -7.3940    8.1030   11.8240 C.3       1 YI6        -0.0374
     11 O1         -4.4980   -0.2280   14.4060 O.co2     1 YI6        -0.5667
     12 O3         -5.8730    0.3570   16.1440 O.co2     1 YI6        -0.5667
     13 C4         -4.1170    1.8710   15.5390 C.3       1 YI6         0.0285
     14 H1         -6.8760    5.6200   15.8230 H         1 YI6         0.0526
     15 H2         -5.7053    3.7158   16.8079 H         1 YI6         0.0533
     16 H3         -4.3480    2.5837   12.9368 H         1 YI6         0.0533
     17 H4         -5.5809    4.5048   11.9183 H         1 YI6         0.0526
     18 H5         -7.0097    6.0517   11.2610 H         1 YI6         0.0608
     19 H6         -5.5951    6.9121   11.9578 H         1 YI6         0.0608
     20 H7         -7.1473    8.5029   10.8294 H         1 YI6         0.0255
     21 H8         -7.0666    8.8142   12.5966 H         1 YI6         0.0255
     22 H9         -8.4812    7.9539   11.8998 H         1 YI6         0.0255
     23 H10        -3.9484    2.0455   16.6119 H         1 YI6         0.0567
     24 H11        -3.1484    1.7907   15.0239 H         1 YI6         0.0567
@<TRIPOS>BOND
     1    2    1 ar 
     2    1    6 ar 
     3    3    2 ar 
     4    3    4 ar 
     5   13    3 1  
     6    4    5 ar 
     7    5    6 ar 
     8    6    8 1  
     9    7   11 ar 
    10    7   12 ar 
    11    7   13 1  
    12    8    9 1  
    13    9   10 1  
    14    1   14 1  
    15    2   15 1  
    16    4   16 1  
    17    5   17 1  
    18    9   18 1  
    19    9   19 1  
    20   10   20 1  
    21   10   21 1  
    22   10   22 1  
    23   13   23 1  
    24   13   24 1  
@<TRIPOS>SUBSTRUCTURE
     1 YI6         1

