### 
### Created by X-TOOL on Mon Sep 10 21:13:27 2018
### 

@<TRIPOS>MOLECULE
5fnq_ligand
   20    20     1     0     0
SMALL
GAST_HUCK


@<TRIPOS>ATOM
      1 O1         16.9750   65.6170   23.8830 O.co2     1 S0W        -0.5688
      2 C2         17.7930   64.9260   24.5360 C.2       1 S0W         0.0368
      3 O3         18.5970   64.1080   24.0420 O.co2     1 S0W        -0.5688
      4 C4         17.8120   65.0940   26.0470 C.3       1 S0W         0.0099
      5 C5         16.9750   64.0620   26.7670 C.3       1 S0W        -0.0074
      6 C6         16.9990   64.2150   28.2670 C.ar      1 S0W        -0.0411
      7 C7         18.1460   63.9000   28.9870 C.ar      1 S0W        -0.0596
      8 C8         18.1730   64.0380   30.3620 C.ar      1 S0W        -0.0546
      9 C9         17.0550   64.4910   31.0210 C.ar      1 S0W         0.0330
     10 CL1        17.0920   64.6630   32.7540 Cl        1 S0W        -0.0771
     11 C11        15.9050   64.8090   30.3310 C.ar      1 S0W        -0.0546
     12 C12        15.8780   64.6720   28.9540 C.ar      1 S0W        -0.0596
     13 H1         17.4243   66.0935   26.2934 H         1 S0W         0.0453
     14 H2         18.8515   65.0076   26.3962 H         1 S0W         0.0453
     15 H3         17.3574   63.0627   26.5119 H         1 S0W         0.0445
     16 H4         15.9342   64.1551   26.4233 H         1 S0W         0.0445
     17 H5         19.0267   63.5431   28.4654 H         1 S0W         0.0557
     18 H6         19.0704   63.7905   30.9173 H         1 S0W         0.0606
     19 H7         15.0291   65.1634   30.8623 H         1 S0W         0.0606
     20 H8         14.9768   64.9226   28.4062 H         1 S0W         0.0557
@<TRIPOS>BOND
     1    1    2 ar 
     2    2    3 ar 
     3    2    4 1  
     4    4    5 1  
     5    5    6 1  
     6    6    7 ar 
     7    6   12 ar 
     8    7    8 ar 
     9    8    9 ar 
    10    9   10 1  
    11    9   11 ar 
    12   11   12 ar 
    13    4   13 1  
    14    4   14 1  
    15    5   15 1  
    16    5   16 1  
    17    7   17 1  
    18    8   18 1  
    19   11   19 1  
    20   12   20 1  
@<TRIPOS>SUBSTRUCTURE
     1 S0W         1

