### 
### Created by X-TOOL on Mon Sep 10 21:13:27 2018
### 

@<TRIPOS>MOLECULE
5fns_ligand
   49    51     1     0     0
SMALL
GAST_HUCK


@<TRIPOS>ATOM
      1 C1         13.1400   64.6650   30.3310 C.3       1 XYY         0.0200
      2 CL1        17.1200   65.0610   32.6110 Cl        1 XYY        -0.0832
      3 N2         13.9130   65.4390   31.3140 N.am      1 XYY        -0.2305
      4 C3         14.9940   66.2480   30.7350 C.3       1 XYY         0.0617
      5 C4         16.0970   65.4180   30.1160 C.ar      1 XYY        -0.0169
      6 C5         16.1300   65.2100   28.7400 C.ar      1 XYY        -0.0548
      7 C6         17.1300   64.4520   28.1390 C.ar      1 XYY        -0.0351
      8 C7         18.1150   63.8940   28.9440 C.ar      1 XYY        -0.0645
      9 C8         18.1020   64.0870   30.3110 C.ar      1 XYY        -0.0609
     10 C9         17.1000   64.8430   30.8920 C.ar      1 XYY         0.0355
     11 C11        17.1790   64.2160   26.6360 C.3       1 XYY         0.0312
     12 C12        17.8080   65.3930   25.8970 C.3       1 XYY         0.0208
     13 C13        18.0840   65.1100   24.4270 C.2       1 XYY         0.0388
     14 O14        17.7370   65.9830   23.6100 O.co2     1 XYY        -0.5687
     15 O15        18.6360   64.0320   24.1130 O.co2     1 XYY        -0.5687
     16 C16        15.8170   63.7860   26.1040 C.ar      1 XYY        -0.0362
     17 C17        15.0520   64.5790   25.2400 C.ar      1 XYY        -0.0640
     18 C18        13.8120   64.1510   24.7740 C.ar      1 XYY        -0.0357
     19 C19        13.3110   62.9040   25.1730 C.ar      1 XYY         0.1085
     20 N20        12.1750   62.2070   24.9120 N.pl3     1 XYY        -0.1669
     21 C21        11.0380   62.5650   24.0760 C.3       1 XYY         0.0634
     22 N22        12.1930   61.0190   25.5710 N.2       1 XYY        -0.0770
     23 N23        13.3300   60.9610   26.2430 N.2       1 XYY        -0.2025
     24 C24        14.0510   62.0980   26.0300 C.ar      1 XYY         0.0692
     25 C25        15.3100   62.5400   26.4980 C.ar      1 XYY        -0.0480
     26 S26        13.1060   66.0410   32.6050 S.o2      1 XYY         0.0400
     27 O27        12.2180   65.0200   33.0600 O.2       1 XYY        -0.1554
     28 O28        14.0710   66.5740   33.5130 O.2       1 XYY        -0.1554
     29 C29        12.1430   67.3710   31.9740 C.3       1 XYY         0.0736
     30 H1         13.8071   64.3261   29.5247 H         1 XYY         0.0444
     31 H2         12.3461   65.2981   29.9082 H         1 XYY         0.0444
     32 H3         12.6887   63.7918   30.8248 H         1 XYY         0.0444
     33 H4         15.4297   66.8696   31.5311 H         1 XYY         0.0642
     34 H5         14.5661   66.8964   29.9562 H         1 XYY         0.0642
     35 H6         15.3566   65.6499   28.1208 H         1 XYY         0.0498
     36 H7         18.9025   63.3005   28.4939 H         1 XYY         0.0504
     37 H8         18.8764   63.6464   30.9284 H         1 XYY         0.0589
     38 H9         17.8531   63.3621   26.4731 H         1 XYY         0.0619
     39 H10        18.7599   65.6437   26.3879 H         1 XYY         0.0476
     40 H11        17.1238   66.2517   25.9636 H         1 XYY         0.0476
     41 H12        15.4327   65.5448   24.9280 H         1 XYY         0.0539
     42 H13        13.2358   64.7798   24.1049 H         1 XYY         0.0556
     43 H14        10.2958   61.7535   24.0994 H         1 XYY         0.0592
     44 H15        11.3781   62.7211   23.0416 H         1 XYY         0.0592
     45 H16        10.5810   63.4908   24.4554 H         1 XYY         0.0592
     46 H17        15.8871   61.9109   27.1661 H         1 XYY         0.0522
     47 H18        11.5682   67.8282   32.7929 H         1 XYY         0.0482
     48 H19        11.4511   66.9915   31.2077 H         1 XYY         0.0482
     49 H20        12.8075   68.1250   31.5270 H         1 XYY         0.0482
@<TRIPOS>BOND
     1    3    1 1  
     2   10    2 1  
     3    4    3 1  
     4    3   26 am 
     5    5    4 1  
     6    5    6 ar 
     7    5   10 ar 
     8    6    7 ar 
     9    7    8 ar 
    10    7   11 1  
    11    8    9 ar 
    12    9   10 ar 
    13   11   12 1  
    14   11   16 1  
    15   12   13 1  
    16   13   14 ar 
    17   13   15 ar 
    18   16   17 ar 
    19   16   25 ar 
    20   17   18 ar 
    21   18   19 ar 
    22   19   20 1  
    23   19   24 ar 
    24   20   21 1  
    25   20   22 1  
    26   22   23 2  
    27   23   24 1  
    28   24   25 ar 
    29   26   27 2  
    30   26   28 2  
    31   26   29 1  
    32    1   30 1  
    33    1   31 1  
    34    1   32 1  
    35    4   33 1  
    36    4   34 1  
    37    6   35 1  
    38    8   36 1  
    39    9   37 1  
    40   11   38 1  
    41   12   39 1  
    42   12   40 1  
    43   17   41 1  
    44   18   42 1  
    45   21   43 1  
    46   21   44 1  
    47   21   45 1  
    48   25   46 1  
    49   29   47 1  
    50   29   48 1  
    51   29   49 1  
@<TRIPOS>SUBSTRUCTURE
     1 XYY         1

