### 
### Created by X-TOOL on Mon Sep 10 21:13:27 2018
### 

@<TRIPOS>MOLECULE
5fnt_ligand
   56    59     1     0     0
SMALL
GAST_HUCK


@<TRIPOS>ATOM
      1 C1         13.0950   63.9680   30.4570 C.3       1 0PL         0.0204
      2 N2         13.7240   64.8880   31.4160 N.am      1 0PL        -0.2259
      3 C3         14.7130   65.7930   30.8150 C.3       1 0PL         0.0621
      4 C4         15.8840   65.0510   30.2140 C.ar      1 0PL        -0.0169
      5 C5         15.9400   64.8340   28.8410 C.ar      1 0PL        -0.0548
      6 C6         17.0020   64.1550   28.2530 C.ar      1 0PL        -0.0351
      7 C7         18.0260   63.6880   29.0720 C.ar      1 0PL        -0.0645
      8 C8         17.9870   63.8940   30.4380 C.ar      1 0PL        -0.0609
      9 C9         16.9230   64.5710   31.0030 C.ar      1 0PL         0.0355
     10 CL1        16.9000   64.8150   32.7190 Cl        1 0PL        -0.0832
     11 C11        17.0620   63.9170   26.7520 C.3       1 0PL         0.0312
     12 C13        17.6820   65.0990   26.0100 C.3       1 0PL         0.0208
     13 C14        17.9700   64.8140   24.5420 C.2       1 0PL         0.0388
     14 O15        17.6580   65.7030   23.7170 O.co2     1 0PL        -0.5687
     15 O16        18.4970   63.7190   24.2410 O.co2     1 0PL        -0.5687
     16 C17        15.7050   63.4690   26.2210 C.ar      1 0PL        -0.0362
     17 C18        14.9420   64.2370   25.3340 C.ar      1 0PL        -0.0640
     18 C19        13.7060   63.7910   24.8700 C.ar      1 0PL        -0.0357
     19 C20        13.2070   62.5530   25.2950 C.ar      1 0PL         0.1085
     20 N21        12.0740   61.8460   25.0420 N.pl3     1 0PL        -0.1669
     21 C22        10.9420   62.1820   24.1890 C.3       1 0PL         0.0634
     22 N23        12.0920   60.6720   25.7300 N.2       1 0PL        -0.0770
     23 N24        13.2260   60.6360   26.4110 N.2       1 0PL        -0.2025
     24 C25        13.9460   61.7700   26.1760 C.ar      1 0PL         0.0692
     25 C26        15.2000   62.2300   26.6420 C.ar      1 0PL        -0.0480
     26 S27        12.7640   65.4800   32.5930 S.o2      1 0PL         0.0721
     27 O28        12.1110   64.3600   33.1970 O.2       1 0PL        -0.1500
     28 O29        13.5560   66.3650   33.3910 O.2       1 0PL        -0.1500
     29 C30        11.5540   66.4360   31.7390 C.ar      1 0PL         0.1085
     30 C31        11.7410   67.7970   31.5720 C.ar      1 0PL        -0.0351
     31 C32        10.7880   68.5410   30.9010 C.ar      1 0PL        -0.0599
     32 C33         9.6580   67.9270   30.4010 C.ar      1 0PL        -0.0616
     33 C34         9.4740   66.5700   30.5690 C.ar      1 0PL        -0.0599
     34 C35        10.4200   65.8200   31.2370 C.ar      1 0PL        -0.0351
     35 H1         13.8419   63.6413   29.7184 H         1 0PL         0.0444
     36 H2         12.2706   64.4827   29.9418 H         1 0PL         0.0444
     37 H3         12.7020   63.0917   30.9933 H         1 0PL         0.0444
     38 H4         15.0882   66.4732   31.5937 H         1 0PL         0.0642
     39 H5         14.2215   66.3775   30.0233 H         1 0PL         0.0642
     40 H6         15.1364   65.2031   28.2141 H         1 0PL         0.0498
     41 H7         18.8632   63.1570   28.6336 H         1 0PL         0.0504
     42 H8         18.7901   63.5249   31.0656 H         1 0PL         0.0589
     43 H9         17.7461   63.0703   26.5939 H         1 0PL         0.0619
     44 H10        18.6282   65.3628   26.5051 H         1 0PL         0.0476
     45 H11        16.9874   65.9499   26.0693 H         1 0PL         0.0476
     46 H12        15.3197   65.1971   25.0016 H         1 0PL         0.0539
     47 H13        13.1319   64.4007   24.1817 H         1 0PL         0.0556
     48 H14        10.2015   61.3694   24.2255 H         1 0PL         0.0592
     49 H15        11.2896   62.3150   23.1539 H         1 0PL         0.0592
     50 H16        10.4800   63.1152   24.5435 H         1 0PL         0.0592
     51 H17        15.7749   61.6203   27.3296 H         1 0PL         0.0522
     52 H18        12.6298   68.2772   31.9651 H         1 0PL         0.0637
     53 H19        10.9288   69.6075   30.7677 H         1 0PL         0.0618
     54 H20         8.9128   68.5124   29.8747 H         1 0PL         0.0618
     55 H21         8.5843   66.0920   30.1753 H         1 0PL         0.0618
     56 H22        10.2762   64.7536   31.3682 H         1 0PL         0.0637
@<TRIPOS>BOND
     1    1    2 1  
     2    2    3 1  
     3    2   26 am 
     4    3    4 1  
     5    4    5 ar 
     6    4    9 ar 
     7    5    6 ar 
     8    6    7 ar 
     9    6   11 1  
    10    7    8 ar 
    11    8    9 ar 
    12    9   10 1  
    13   11   12 1  
    14   11   16 1  
    15   12   13 1  
    16   13   14 ar 
    17   13   15 ar 
    18   16   17 ar 
    19   16   25 ar 
    20   17   18 ar 
    21   18   19 ar 
    22   19   20 1  
    23   19   24 ar 
    24   20   21 1  
    25   20   22 1  
    26   22   23 2  
    27   23   24 1  
    28   24   25 ar 
    29   26   27 2  
    30   26   28 2  
    31   26   29 1  
    32   29   30 ar 
    33   29   34 ar 
    34   30   31 ar 
    35   31   32 ar 
    36   32   33 ar 
    37   33   34 ar 
    38    1   35 1  
    39    1   36 1  
    40    1   37 1  
    41    3   38 1  
    42    3   39 1  
    43    5   40 1  
    44    7   41 1  
    45    8   42 1  
    46   11   43 1  
    47   12   44 1  
    48   12   45 1  
    49   17   46 1  
    50   18   47 1  
    51   21   48 1  
    52   21   49 1  
    53   21   50 1  
    54   25   51 1  
    55   30   52 1  
    56   31   53 1  
    57   32   54 1  
    58   33   55 1  
    59   34   56 1  
@<TRIPOS>SUBSTRUCTURE
     1 0PL         1

