### 
### Created by X-TOOL on Mon Sep 10 21:13:26 2018
### 

@<TRIPOS>MOLECULE
5fnu_ligand
   68    72     1     0     0
SMALL
GAST_HUCK


@<TRIPOS>ATOM
      1 C1         13.4520   65.4580   23.1700 C.3       1 L6I         0.0581
      2 O2         12.9600   64.2380   23.7230 O.3       1 L6I        -0.3233
      3 C3         13.7260   63.5970   24.6620 C.ar      1 L6I         0.1187
      4 C4         14.9520   64.0460   25.1470 C.ar      1 L6I        -0.0367
      5 C5         15.6710   63.3290   26.1080 C.ar      1 L6I        -0.0485
      6 C6         15.1270   62.1300   26.5820 C.ar      1 L6I        -0.0614
      7 C7         13.8780   61.6680   26.0910 C.ar      1 L6I         0.0610
      8 N8         13.1490   60.5520   26.3870 N.2       1 L6I        -0.2069
      9 N9         12.0390   60.5500   25.6690 N.2       1 L6I        -0.0794
     10 N10        12.0540   61.6740   24.9040 N.pl3     1 L6I        -0.1675
     11 C11        10.9520   61.9580   23.9940 C.3       1 L6I         0.0624
     12 C12        13.1890   62.3930   25.1450 C.ar      1 L6I         0.1402
     13 C13        17.0140   63.8090   26.6480 C.3       1 L6I         0.0252
     14 C14        17.6280   64.9930   25.8910 C.3       1 L6I         0.0197
     15 C15        17.9150   64.7380   24.4160 C.2       1 L6I         0.0386
     16 O16        17.5790   65.6320   23.6070 O.co2     1 L6I        -0.5687
     17 O17        18.4640   63.6640   24.0880 O.co2     1 L6I        -0.5687
     18 C18        16.9510   64.1260   28.1340 C.ar      1 L6I        -0.0421
     19 C19        17.9780   63.7460   28.9870 C.ar      1 L6I        -0.0716
     20 C20        17.9170   64.0360   30.3400 C.ar      1 L6I        -0.0732
     21 C21        16.8240   64.7170   30.8770 C.ar      1 L6I        -0.0490
     22 C22        16.7880   65.0180   32.3540 C.3       1 L6I        -0.0366
     23 C23        15.7810   65.1070   30.0280 C.ar      1 L6I        -0.0288
     24 C24        14.5700   65.8470   30.5480 C.3       1 L6I         0.0594
     25 N25        13.6780   64.9920   31.3600 N.am      1 L6I        -0.2226
     26 C26        13.1040   63.8030   30.6760 C.3       1 L6I         0.0618
     27 C27        11.9360   64.1380   29.7490 C.3       1 L6I         0.0956
     28 C28        11.5120   62.9310   28.9150 C.3       1 L6I        -0.0327
     29 O29        10.7960   64.5740   30.5070 O.3       1 L6I        -0.3115
     30 C30        10.6850   65.9340   30.7830 C.ar      1 L6I         0.1180
     31 C31         9.6990   66.6530   30.1200 C.ar      1 L6I        -0.0312
     32 C32         9.5550   68.0070   30.3660 C.ar      1 L6I        -0.0705
     33 C33        10.3870   68.6450   31.2670 C.ar      1 L6I        -0.0711
     34 C34        11.3730   67.9340   31.9320 C.ar      1 L6I        -0.0439
     35 C35        11.5250   66.5700   31.6910 C.ar      1 L6I         0.1365
     36 S36        12.7790   65.6570   32.5350 S.o2      1 L6I         0.0703
     37 O37        12.1500   64.5980   33.2600 O.2       1 L6I        -0.1516
     38 O38        13.6060   66.5770   33.2570 O.2       1 L6I        -0.1516
     39 C39        15.8660   64.8040   28.6730 C.ar      1 L6I        -0.0616
     40 H1         12.7291   65.8463   22.4374 H         1 L6I         0.0576
     41 H2         14.4151   65.2728   22.6720 H         1 L6I         0.0576
     42 H3         13.5909   66.1955   23.9743 H         1 L6I         0.0576
     43 H4         15.3597   64.9766   24.7691 H         1 L6I         0.0438
     44 H5         15.6615   61.5518   27.3270 H         1 L6I         0.0410
     45 H6         11.1458   62.9042   23.4675 H         1 L6I         0.0591
     46 H7         10.0163   62.0419   24.5662 H         1 L6I         0.0591
     47 H8         10.8620   61.1425   23.2613 H         1 L6I         0.0591
     48 H9         17.7099   62.9658   26.5268 H         1 L6I         0.0604
     49 H10        18.5763   65.2567   26.3821 H         1 L6I         0.0474
     50 H11        16.9307   65.8408   25.9609 H         1 L6I         0.0474
     51 H12        18.8367   63.2168   28.5901 H         1 L6I         0.0486
     52 H13        18.7288   63.7300   30.9900 H         1 L6I         0.0521
     53 H14        17.6991   64.6267   32.8302 H         1 L6I         0.0364
     54 H15        15.9051   64.5407   32.8041 H         1 L6I         0.0364
     55 H16        16.7337   66.1062   32.5053 H         1 L6I         0.0364
     56 H17        14.0001   66.2339   29.6904 H         1 L6I         0.0625
     57 H18        14.9124   66.6872   31.1699 H         1 L6I         0.0625
     58 H19        12.7492   63.0980   31.4422 H         1 L6I         0.0509
     59 H20        13.8968   63.3280   30.0795 H         1 L6I         0.0509
     60 H21        12.2503   64.9466   29.0727 H         1 L6I         0.0663
     61 H22        10.6717   63.2126   28.2633 H         1 L6I         0.0259
     62 H23        11.2001   62.1148   29.5833 H         1 L6I         0.0259
     63 H24        12.3586   62.5962   28.2976 H         1 L6I         0.0259
     64 H25         9.0451   66.1556   29.4129 H         1 L6I         0.0542
     65 H26         8.7860   68.5702   29.8497 H         1 L6I         0.0589
     66 H27        10.2675   69.7060   31.4541 H         1 L6I         0.0523
     67 H28        12.0241   68.4373   32.6375 H         1 L6I         0.0608
     68 H29        15.0585   65.1072   28.0164 H         1 L6I         0.0481
@<TRIPOS>BOND
     1    1    2 1  
     2    2    3 1  
     3    3    4 ar 
     4    3   12 ar 
     5    4    5 ar 
     6    5    6 ar 
     7    5   13 1  
     8    6    7 ar 
     9    7    8 1  
    10    7   12 ar 
    11    8    9 2  
    12    9   10 1  
    13   10   11 1  
    14   10   12 1  
    15   13   14 1  
    16   13   18 1  
    17   14   15 1  
    18   15   16 ar 
    19   15   17 ar 
    20   18   19 ar 
    21   18   39 ar 
    22   19   20 ar 
    23   20   21 ar 
    24   21   22 1  
    25   21   23 ar 
    26   23   24 1  
    27   23   39 ar 
    28   24   25 1  
    29   25   26 1  
    30   25   36 am 
    31   26   27 1  
    32   27   28 1  
    33   27   29 1  
    34   29   30 1  
    35   30   31 ar 
    36   30   35 ar 
    37   31   32 ar 
    38   32   33 ar 
    39   33   34 ar 
    40   34   35 ar 
    41   35   36 1  
    42   36   37 2  
    43   36   38 2  
    44    1   40 1  
    45    1   41 1  
    46    1   42 1  
    47    4   43 1  
    48    6   44 1  
    49   11   45 1  
    50   11   46 1  
    51   11   47 1  
    52   13   48 1  
    53   14   49 1  
    54   14   50 1  
    55   19   51 1  
    56   20   52 1  
    57   22   53 1  
    58   22   54 1  
    59   22   55 1  
    60   24   56 1  
    61   24   57 1  
    62   26   58 1  
    63   26   59 1  
    64   27   60 1  
    65   28   61 1  
    66   28   62 1  
    67   28   63 1  
    68   31   64 1  
    69   32   65 1  
    70   33   66 1  
    71   34   67 1  
    72   39   68 1  
@<TRIPOS>SUBSTRUCTURE
     1 L6I         1

