### 
### Created by X-TOOL on Mon Sep 10 21:13:28 2018
### 

@<TRIPOS>MOLECULE
5fol_ligand
   53    55     1     0     0
SMALL
GAST_HUCK


@<TRIPOS>ATOM
      1 C          16.9370    3.6030   19.8590 C.2       1 SO8         0.2252
      2 N          17.9880    1.7460   20.9910 N.4       1 SO8         0.2381
      3 O          17.7540    4.2320   19.2290 O.2       1 SO8        -0.3909
      4 N1         13.5080   -1.3710   14.3200 N.ar      1 SO8        -0.2698
      5 C2         13.1130   -1.3150   15.7080 C.ar      1 SO8         0.0533
      6 N3         13.4190   -0.0850   16.4150 N.ar      1 SO8        -0.2714
      7 C4         14.0740    0.9540   15.8060 C.ar      1 SO8         0.1613
      8 C5         14.4870    0.8700   14.4040 C.ar      1 SO8         0.1045
      9 C6         14.1420   -0.3710   13.6680 C.ar      1 SO8         0.1298
     10 N6         14.4740   -0.5090   12.3830 N.pl3     1 SO8        -0.3152
     11 N7         15.0770    2.0330   14.0810 N.2       1 SO8        -0.2958
     12 C8         15.0740    2.7980   15.2000 C.2       1 SO8         0.1123
     13 N9         14.4870    2.1290   16.2480 N.pl3     1 SO8        -0.1922
     14 CA         17.2820    3.0120   21.2100 C.3       1 SO8         0.0674
     15 CB         18.1010    3.8130   22.2240 C.3       1 SO8         0.0164
     16 NAI        15.6810    3.3980   19.4190 N.am      1 SO8        -0.2713
     17 CAJ        15.2070    3.7710   18.0910 C.3       1 SO8         0.1256
     18 CAK        14.2960    4.9780   18.0990 C.3       1 SO8         0.1115
     19 OAL        14.6680    6.0110   18.9950 O.3       1 SO8        -0.3867
     20 CAM        12.9660    4.3080   18.4640 C.3       1 SO8         0.1133
     21 CAN        11.7560    5.1890   18.2230 C.3       1 SO8         0.0730
     22 OAO        11.7670    5.6160   16.8720 O.3       1 SO8        -0.3924
     23 OAP        12.9380    3.1010   17.6660 O.3       1 SO8        -0.3371
     24 CAQ        14.2660    2.6060   17.6340 C.3       1 SO8         0.1979
     25 CD1        17.6530    5.1460   24.3160 C.3       1 SO8        -0.0647
     26 CG1        17.2280    4.8890   22.8860 C.3       1 SO8        -0.0460
     27 CG2        19.4150    4.3540   21.6500 C.3       1 SO8        -0.0551
     28 H1         17.4772    1.1872   20.3255 H         1 SO8         0.2015
     29 H2         18.0607    1.2465   21.8635 H         1 SO8         0.2015
     30 H3         18.9115    1.9338   20.6334 H         1 SO8         0.2015
     31 H4         12.6154   -2.1459   16.1949 H         1 SO8         0.0996
     32 H5         14.9570    0.2561   11.8909 H         1 SO8         0.1820
     33 H6         14.2472   -1.3806   11.8832 H         1 SO8         0.1820
     34 H7         15.4814    3.8061   15.2607 H         1 SO8         0.1349
     35 H8         16.3200    2.7967   21.6980 H         1 SO8         0.1101
     36 H9         18.3870    3.1103   23.0204 H         1 SO8         0.0378
     37 H10        15.0318    2.9622   20.0425 H         1 SO8         0.1859
     38 H11        16.0548    3.9219   17.4066 H         1 SO8         0.0638
     39 H12        14.2422    5.4167   17.0917 H         1 SO8         0.0645
     40 H13        14.6751    5.6717   19.8823 H         1 SO8         0.2100
     41 H14        12.9767    4.0409   19.5310 H         1 SO8         0.0647
     42 H15        11.7969    6.0642   18.8881 H         1 SO8         0.0584
     43 H16        10.8370    4.6187   18.4235 H         1 SO8         0.0584
     44 H17        11.0121    6.1695   16.7098 H         1 SO8         0.2095
     45 H18        14.3831    1.7613   18.3287 H         1 SO8         0.0993
     46 H19        17.0075    5.9199   24.7569 H         1 SO8         0.0230
     47 H20        18.6984    5.4877   24.3321 H         1 SO8         0.0230
     48 H21        17.5618    4.2172   24.8982 H         1 SO8         0.0230
     49 H22        16.1805    4.5533   22.8794 H         1 SO8         0.0269
     50 H23        17.3171    5.8238   22.3132 H         1 SO8         0.0269
     51 H24        19.9833    3.5294   21.1948 H         1 SO8         0.0236
     52 H25        20.0091    4.8067   22.4575 H         1 SO8         0.0236
     53 H26        19.1959    5.1140   20.8856 H         1 SO8         0.0236
@<TRIPOS>BOND
     1    1    3 2  
     2    1   14 1  
     3   16    1 am 
     4   14    2 1  
     5    5    4 ar 
     6    9    4 ar 
     7    6    5 ar 
     8    7    6 ar 
     9    7    8 ar 
    10   13    7 1  
    11    8    9 ar 
    12   11    8 1  
    13    9   10 1  
    14   12   11 2  
    15   13   12 1  
    16   24   13 1  
    17   14   15 1  
    18   15   26 1  
    19   15   27 1  
    20   17   16 1  
    21   17   18 1  
    22   17   24 1  
    23   18   19 1  
    24   18   20 1  
    25   20   21 1  
    26   20   23 1  
    27   21   22 1  
    28   23   24 1  
    29   26   25 1  
    30    2   28 1  
    31    2   29 1  
    32    2   30 1  
    33    5   31 1  
    34   10   32 1  
    35   10   33 1  
    36   12   34 1  
    37   14   35 1  
    38   15   36 1  
    39   16   37 1  
    40   17   38 1  
    41   18   39 1  
    42   19   40 1  
    43   20   41 1  
    44   21   42 1  
    45   21   43 1  
    46   22   44 1  
    47   24   45 1  
    48   25   46 1  
    49   25   47 1  
    50   25   48 1  
    51   26   49 1  
    52   26   50 1  
    53   27   51 1  
    54   27   52 1  
    55   27   53 1  
@<TRIPOS>SUBSTRUCTURE
     1 SO8         1

