### 
### Created by X-TOOL on Mon Sep 10 21:13:25 2018
### 

@<TRIPOS>MOLECULE
5fot_ligand
   73    74     1     0     0
SMALL
GAST_HUCK


@<TRIPOS>ATOM
      1 C          28.4230    1.8220   39.7030 C.2       1 ACE         0.1752
      2 O          28.1010    2.9590   40.0620 O.2       1 ACE        -0.3972
      3 CH3        29.7110    1.5930   38.9670 C.3       1 ACE         0.0258
      4 N          27.7210    0.7720   40.0760 N.am      1 PHE        -0.2640
      5 CA         26.4720    0.9090   40.8050 C.3       1 PHE         0.1404
      6 C          26.7110    1.2340   42.2740 C.2       1 PHE         0.2061
      7 O          27.6530    0.7280   42.8840 O.2       1 PHE        -0.3942
      8 CB         25.6440   -0.3680   40.6640 C.3       1 PHE         0.0214
      9 CG         25.1010   -0.5990   39.2740 C.ar      1 PHE        -0.0386
     10 CD1        25.8260   -1.3170   38.3360 C.ar      1 PHE        -0.0601
     11 CD2        23.8610   -0.1200   38.9300 C.ar      1 PHE        -0.0601
     12 CE1        25.3240   -1.5250   37.0630 C.ar      1 PHE        -0.0686
     13 CE2        23.3450   -0.3410   37.6760 C.ar      1 PHE        -0.0686
     14 CZ         24.0800   -1.0450   36.7350 C.ar      1 PHE        -0.0687
     15 N          25.8850    2.1200   42.8120 N.am      1 HIS        -0.2617
     16 CA         25.9630    2.4820   44.2150 C.3       1 HIS         0.1421
     17 C          24.5770    2.5070   44.7860 C.2       1 HIS         0.2061
     18 O          23.6220    2.8450   44.1090 O.2       1 HIS        -0.3942
     19 CB         26.5580    3.8720   44.4010 C.3       1 HIS         0.0427
     20 CG         27.9730    3.9720   43.9630 C.2       1 HIS         0.0561
     21 ND1        28.3490    4.5810   42.7900 N.pl3     1 HIS        -0.2623
     22 CD2        29.1150    3.5390   44.5470 C.2       1 HIS        -0.0276
     23 CE1        29.6640    4.5110   42.6620 C.2       1 HIS         0.0875
     24 NE2        30.1530    3.8890   43.7180 N.2       1 HIS        -0.3437
     25 N          24.4760    2.1720   46.0590 N.am      1 THR        -0.2612
     26 CA         23.2050    2.2600   46.7470 C.3       1 THR         0.1565
     27 C          22.6540    3.6780   46.7060 C.2       1 THR         0.2065
     28 O          23.4010    4.6620   46.7240 O.2       1 THR        -0.3943
     29 CB         23.2860    1.7620   48.2130 C.3       1 THR         0.0924
     30 OG1        21.9780    1.7480   48.7730 O.3       1 THR        -0.3874
     31 CG2        24.1510    2.6710   49.0430 C.3       1 THR        -0.0346
     32 N          21.3400    3.7830   46.6480 N.am      1 ABA        -0.2637
     33 CA         20.6930    5.1130   46.7310 C.3       1 ABA         0.1304
     34 C          20.3480    5.4870   48.1740 C.2       1 ABA         0.1992
     35 O          19.8870    6.6030   48.4030 O.2       1 ABA        -0.3947
     36 CB         19.4590    5.1420   45.8270 C.3       1 ABA        -0.0153
     37 CG         19.8170    4.9360   44.3760 C.3       1 ABA        -0.0610
     38 N          20.5580    4.6370   49.0640 N.am      1 NH2        -0.2990
     39 H1         29.8162    0.5226   38.7364 H         1 ACE         0.0467
     40 H2         30.5544    1.9176   39.5941 H         1 ACE         0.0467
     41 H3         29.7063    2.1709   38.0311 H         1 ACE         0.0467
     42 H4         28.0563   -0.1430   39.8516 H         1 PHE         0.1884
     43 H5         25.9051    1.7403   40.3605 H         1 PHE         0.0823
     44 H6         24.7952   -0.3084   41.3611 H         1 PHE         0.0474
     45 H7         26.2802   -1.2240   40.9332 H         1 PHE         0.0474
     46 H8         26.7965   -1.7199   38.6022 H         1 PHE         0.0557
     47 H9         23.2824    0.4391   39.6564 H         1 PHE         0.0557
     48 H10        25.9104   -2.0645   36.3281 H         1 PHE         0.0599
     49 H11        22.3609    0.0360   37.4219 H         1 PHE         0.0599
     50 H12        23.6745   -1.2159   35.7443 H         1 PHE         0.0559
     51 H13        25.1899    2.5502   42.2360 H         1 HIS         0.1885
     52 H14        26.5790    1.7427   44.7479 H         1 HIS         0.0824
     53 H15        26.5041    4.1343   45.4679 H         1 HIS         0.0491
     54 H16        25.9610    4.5877   43.8168 H         1 HIS         0.0491
     55 H17        27.7076    5.0228   42.1160 H         1 HIS         0.2386
     56 H18        29.1957    3.0118   45.4965 H         1 HIS         0.0324
     57 H19        30.2443    4.9006   41.8269 H         1 HIS         0.1149
     58 H20        25.2854    1.8543   46.5530 H         1 THR         0.1884
     59 H21        22.4975    1.6081   46.2137 H         1 THR         0.0826
     60 H22        23.7067    0.7457   48.2275 H         1 THR         0.0639
     61 H23        21.4243    1.1650   48.2670 H         1 THR         0.2101
     62 H24        24.1915    2.2958   50.0763 H         1 THR         0.0257
     63 H25        23.7271    3.6860   49.0378 H         1 THR         0.0257
     64 H26        25.1669    2.6957   48.6219 H         1 THR         0.0257
     65 H27        20.7787    2.9615   46.5476 H         1 ABA         0.1883
     66 H28        21.4063    5.8615   46.3557 H         1 ABA         0.0800
     67 H29        18.9622    6.1174   45.9352 H         1 ABA         0.0310
     68 H30        18.7706    4.3431   46.1398 H         1 ABA         0.0310
     69 H31        18.9026    4.9643   43.7652 H         1 ABA         0.0232
     70 H32        20.3089    3.9596   44.2547 H         1 ABA         0.0232
     71 H33        20.5005    5.7339   44.0501 H         1 ABA         0.0232
     72 H34        20.3440    4.8483   50.0177 H         1 NH2         0.1815
     73 H35        20.9402    3.7448   48.8232 H         1 NH2         0.1815
@<TRIPOS>BOND
     1    1    2 2  
     2    1    3 1  
     3    1    4 am 
     4    4    5 1  
     5    5    6 1  
     6    5    8 1  
     7    6    7 2  
     8    6   15 am 
     9    8    9 1  
    10    9   10 ar 
    11    9   11 ar 
    12   10   12 ar 
    13   11   13 ar 
    14   12   14 ar 
    15   13   14 ar 
    16   15   16 1  
    17   16   17 1  
    18   16   19 1  
    19   17   18 2  
    20   17   25 am 
    21   19   20 1  
    22   20   21 1  
    23   20   22 2  
    24   21   23 1  
    25   22   24 1  
    26   23   24 2  
    27   25   26 1  
    28   26   27 1  
    29   26   29 1  
    30   27   28 2  
    31   27   32 am 
    32   29   30 1  
    33   29   31 1  
    34   32   33 1  
    35   33   34 1  
    36   33   36 1  
    37   34   35 2  
    38   34   38 am 
    39   36   37 1  
    40    3   39 1  
    41    3   40 1  
    42    3   41 1  
    43    4   42 1  
    44    5   43 1  
    45    8   44 1  
    46    8   45 1  
    47   10   46 1  
    48   11   47 1  
    49   12   48 1  
    50   13   49 1  
    51   14   50 1  
    52   15   51 1  
    53   16   52 1  
    54   19   53 1  
    55   19   54 1  
    56   21   55 1  
    57   22   56 1  
    58   23   57 1  
    59   25   58 1  
    60   26   59 1  
    61   29   60 1  
    62   30   61 1  
    63   31   62 1  
    64   31   63 1  
    65   31   64 1  
    66   32   65 1  
    67   33   66 1  
    68   36   67 1  
    69   36   68 1  
    70   37   69 1  
    71   37   70 1  
    72   37   71 1  
    73   38   72 1  
    74   38   73 1  
@<TRIPOS>SUBSTRUCTURE
     1 ACE         1

