### 
### Created by X-TOOL on Mon Sep 10 21:13:26 2018
### 

@<TRIPOS>MOLECULE
5fou_ligand
   70    72     1     0     0
SMALL
GAST_HUCK


@<TRIPOS>ATOM
      1 C          28.3530    1.8380   40.0450 C.2       1 ACE         0.1752
      2 O          27.9820    3.0000   40.1960 O.2       1 ACE        -0.3972
      3 CH3        29.6590    1.4990   39.3810 C.3       1 ACE         0.0258
      4 N          27.6190    0.7870   40.3950 N.am      1 PHE        -0.2640
      5 CA         26.3510    0.9440   41.0970 C.3       1 PHE         0.1404
      6 C          26.5730    1.2820   42.5730 C.2       1 PHE         0.2060
      7 O          27.4890    0.7460   43.2110 O.2       1 PHE        -0.3942
      8 CB         25.5080   -0.3260   40.9710 C.3       1 PHE         0.0214
      9 CG         25.0380   -0.6080   39.5730 C.ar      1 PHE        -0.0386
     10 CD1        25.8230   -1.3430   38.6870 C.ar      1 PHE        -0.0601
     11 CD2        23.8110   -0.1320   39.1380 C.ar      1 PHE        -0.0601
     12 CE1        25.3890   -1.5980   37.3800 C.ar      1 PHE        -0.0686
     13 CE2        23.3690   -0.3790   37.8370 C.ar      1 PHE        -0.0686
     14 CZ         24.1560   -1.1190   36.9570 C.ar      1 PHE        -0.0687
     15 N          25.7510    2.1850   43.1020 N.am      1 HIS        -0.2623
     16 CA         25.7910    2.5460   44.5270 C.3       1 HIS         0.1371
     17 C          24.3700    2.6650   45.0730 C.2       1 HIS         0.2079
     18 O          23.4750    3.0090   44.3210 O.2       1 HIS        -0.3940
     19 CB         26.5200    3.8740   44.7380 C.3       1 HIS         0.0145
     20 CG         27.8950    3.9220   44.1490 C.2       1 HIS        -0.0027
     21 ND1        28.9830    3.3210   44.7470 N.2       1 HIS        -0.3252
     22 CD2        28.3630    4.5200   43.0280 C.2       1 HIS         0.0291
     23 CE1        30.0600    3.5370   44.0140 C.2       1 HIS         0.0907
     24 NE2        29.7130    4.2620   42.9650 N.pl3     1 HIS        -0.2752
     25 N          24.1590    2.4140   46.3840 N.am      1 PRO        -0.2497
     26 CA         22.8110    2.6060   46.9500 C.3       1 PRO         0.1338
     27 C          22.2800    4.0270   46.7350 C.2       1 PRO         0.2041
     28 O          23.0590    4.9800   46.8010 O.2       1 PRO        -0.3944
     29 CB         23.0080    2.3290   48.4460 C.3       1 PRO        -0.0104
     30 CG         24.2360    1.4880   48.5270 C.3       1 PRO        -0.0281
     31 CD         25.1260    1.9470   47.3970 C.3       1 PRO         0.0369
     32 N          20.9710    4.1570   46.5170 N.am      1 ALA        -0.2640
     33 CA         20.3540    5.4210   46.1130 C.3       1 ALA         0.1279
     34 C          20.1920    6.4460   47.2280 C.2       1 ALA         0.1989
     35 O          19.9410    7.6190   46.9540 O.2       1 ALA        -0.3947
     36 CB         18.9960    5.1520   45.4840 C.3       1 ALA        -0.0244
     37 N          20.3070    6.0020   48.4730 N.am      1 NH2        -0.2990
     38 H1         29.7842    0.4065   39.3548 H         1 ACE         0.0467
     39 H2         30.4867    1.9494   39.9485 H         1 ACE         0.0467
     40 H3         29.6614    1.8931   38.3540 H         1 ACE         0.0467
     41 H4         27.9437   -0.1321   40.1719 H         1 PHE         0.1884
     42 H5         25.8006    1.7748   40.6313 H         1 PHE         0.0823
     43 H6         24.6251   -0.2214   41.6187 H         1 PHE         0.0474
     44 H7         26.1135   -1.1789   41.3114 H         1 PHE         0.0474
     45 H8         26.7840   -1.7231   39.0142 H         1 PHE         0.0557
     46 H9         23.1871    0.4389   39.8162 H         1 PHE         0.0557
     47 H10        26.0134   -2.1673   36.7009 H         1 PHE         0.0599
     48 H11        22.4099    0.0064   37.5102 H         1 PHE         0.0599
     49 H12        23.8085   -1.3193   35.9499 H         1 PHE         0.0559
     50 H13        25.0823    2.6341   42.5094 H         1 HIS         0.1885
     51 H14        26.3236    1.7560   45.0768 H         1 HIS         0.0817
     52 H15        26.6023    4.0537   45.8201 H         1 HIS         0.0420
     53 H16        25.9202    4.6732   44.2781 H         1 HIS         0.0420
     54 H17        27.7805    5.0967   42.3111 H         1 HIS         0.0729
     55 H18        31.0640    3.1784   44.2363 H         1 HIS         0.1199
     56 H19        30.3497    4.5819   42.2212 H         1 HIS         0.2361
     57 H20        22.1041    1.8880   46.5088 H         1 PRO         0.0802
     58 H21        22.1421    1.7885   48.8559 H         1 PRO         0.0313
     59 H22        23.1476    3.2702   48.9979 H         1 PRO         0.0313
     60 H23        23.9807    0.4250   48.4055 H         1 PRO         0.0287
     61 H24        24.7384    1.6362   49.4943 H         1 PRO         0.0287
     62 H25        25.7862    2.7652   47.7207 H         1 PRO         0.0524
     63 H26        25.7343    1.1162   47.0100 H         1 PRO         0.0524
     64 H27        20.3850    3.3553   46.6348 H         1 ALA         0.1883
     65 H28        21.0059    5.8701   45.3492 H         1 ALA         0.0797
     66 H29        18.5365    6.1048   45.1822 H         1 ALA         0.0277
     67 H30        18.3470    4.6472   46.2147 H         1 ALA         0.0277
     68 H31        19.1221    4.5095   44.6001 H         1 ALA         0.0277
     69 H32        20.2090    6.6352   49.2407 H         1 NH2         0.1815
     70 H33        20.4917    5.0341   48.6436 H         1 NH2         0.1815
@<TRIPOS>BOND
     1    1    2 2  
     2    1    3 1  
     3    1    4 am 
     4    4    5 1  
     5    5    6 1  
     6    5    8 1  
     7    6    7 2  
     8    6   15 am 
     9    8    9 1  
    10    9   10 ar 
    11    9   11 ar 
    12   10   12 ar 
    13   11   13 ar 
    14   12   14 ar 
    15   13   14 ar 
    16   15   16 1  
    17   16   17 1  
    18   16   19 1  
    19   17   18 2  
    20   17   25 am 
    21   19   20 1  
    22   20   21 1  
    23   20   22 2  
    24   21   23 2  
    25   22   24 1  
    26   23   24 1  
    27   25   26 1  
    28   25   31 1  
    29   26   27 1  
    30   26   29 1  
    31   27   28 2  
    32   27   32 am 
    33   29   30 1  
    34   30   31 1  
    35   32   33 1  
    36   33   34 1  
    37   33   36 1  
    38   34   35 2  
    39   34   37 am 
    40    3   38 1  
    41    3   39 1  
    42    3   40 1  
    43    4   41 1  
    44    5   42 1  
    45    8   43 1  
    46    8   44 1  
    47   10   45 1  
    48   11   46 1  
    49   12   47 1  
    50   13   48 1  
    51   14   49 1  
    52   15   50 1  
    53   16   51 1  
    54   19   52 1  
    55   19   53 1  
    56   22   54 1  
    57   23   55 1  
    58   24   56 1  
    59   26   57 1  
    60   29   58 1  
    61   29   59 1  
    62   30   60 1  
    63   30   61 1  
    64   31   62 1  
    65   31   63 1  
    66   32   64 1  
    67   33   65 1  
    68   36   66 1  
    69   36   67 1  
    70   36   68 1  
    71   37   69 1  
    72   37   70 1  
@<TRIPOS>SUBSTRUCTURE
     1 ACE         1

