### 
### Created by X-TOOL on Mon Sep 10 21:13:27 2018
### 

@<TRIPOS>MOLECULE
5fov_ligand
   67    68     1     0     0
SMALL
GAST_HUCK


@<TRIPOS>ATOM
      1 C          18.6290   -5.4090    1.4940 C.2       1 ACE         0.1752
      2 O          19.7000   -4.8610    1.2120 O.2       1 ACE        -0.3972
      3 CH3        18.1300   -5.4870    2.9080 C.3       1 ACE         0.0258
      4 N          17.8490   -5.9250    0.5430 N.am      1 PHE        -0.2640
      5 CA         16.5680   -6.5590    0.8060 C.3       1 PHE         0.1404
      6 C          16.7550   -8.0280    1.1710 C.2       1 PHE         0.2060
      7 O          17.6220   -8.7010    0.6250 O.2       1 PHE        -0.3942
      8 CB         15.6450   -6.4370   -0.4070 C.3       1 PHE         0.0214
      9 CG         15.1460   -5.0420   -0.6580 C.ar      1 PHE        -0.0386
     10 CD1        15.9090   -4.1420   -1.3870 C.ar      1 PHE        -0.0601
     11 CD2        13.9090   -4.6370   -0.1790 C.ar      1 PHE        -0.0601
     12 CE1        15.4550   -2.8640   -1.6360 C.ar      1 PHE        -0.0686
     13 CE2        13.4490   -3.3680   -0.4170 C.ar      1 PHE        -0.0686
     14 CZ         14.2260   -2.4670   -1.1460 C.ar      1 PHE        -0.0687
     15 N          15.9320   -8.5160    2.0920 N.am      1 HIS        -0.2623
     16 CA         16.0090   -9.9080    2.5370 C.3       1 HIS         0.1369
     17 C          14.6540  -10.5910    2.4790 C.2       1 HIS         0.2054
     18 O          13.6300   -9.9870    2.7900 O.2       1 HIS        -0.3942
     19 CB         16.5530   -9.9840    3.9610 C.3       1 HIS         0.0145
     20 CG         17.9890   -9.5760    4.0820 C.2       1 HIS        -0.0027
     21 ND1        18.3800   -8.3870    4.6600 N.2       1 HIS        -0.3252
     22 CD2        19.1270  -10.1990    3.6950 C.2       1 HIS         0.0291
     23 CE1        19.6980   -8.2970    4.6280 C.2       1 HIS         0.0907
     24 NE2        20.1750   -9.3820    4.0460 N.pl3     1 HIS        -0.2752
     25 N          14.6560  -11.8640    2.0930 N.am      1 THR        -0.2612
     26 CA         13.4330  -12.6520    2.0200 C.3       1 THR         0.1565
     27 C          12.7410  -12.7240    3.3710 C.2       1 THR         0.2063
     28 O          13.3960  -12.8780    4.4000 O.2       1 THR        -0.3943
     29 CB         13.7360  -14.0770    1.5230 C.3       1 THR         0.0924
     30 OG1        14.3770  -14.0010    0.2450 O.3       1 THR        -0.3874
     31 CG2        12.4720  -14.8850    1.3930 C.3       1 THR        -0.0346
     32 N          11.4200  -12.5510    3.3710 N.am      1 GLY        -0.2663
     33 CA         10.6060  -12.7690    4.5550 C.3       1 GLY         0.1198
     34 C          10.8540  -11.8730    5.7550 C.2       1 GLY         0.1960
     35 O           9.9850  -11.7360    6.6120 O.2       1 GLY        -0.3951
     36 N          12.0400  -11.2730    5.8290 N.am      1 NH2        -0.2992
     37 H1         17.1644   -6.0135    2.9275 H         1 ACE         0.0467
     38 H2         18.0014   -4.4705    3.3081 H         1 ACE         0.0467
     39 H3         18.8585   -6.0342    3.5243 H         1 ACE         0.0467
     40 H4         18.1635   -5.8726   -0.4048 H         1 PHE         0.1884
     41 H5         16.0961   -6.0456    1.6567 H         1 PHE         0.0823
     42 H6         14.7756   -7.0917   -0.2473 H         1 PHE         0.0474
     43 H7         16.1976   -6.7719   -1.2972 H         1 PHE         0.0474
     44 H8         16.8771   -4.4479   -1.7668 H         1 PHE         0.0557
     45 H9         13.3001   -5.3309    0.3892 H         1 PHE         0.0557
     46 H10        16.0597   -2.1741   -2.2135 H         1 PHE         0.0599
     47 H11        12.4799   -3.0638   -0.0383 H         1 PHE         0.0599
     48 H12        13.8669   -1.4603   -1.3270 H         1 PHE         0.0559
     49 H13        15.2402   -7.9153    2.4927 H         1 HIS         0.1885
     50 H14        16.6977  -10.4449    1.8681 H         1 HIS         0.0817
     51 H15        16.4562  -11.0212    4.3144 H         1 HIS         0.0420
     52 H16        15.9494   -9.3215    4.5987 H         1 HIS         0.0420
     53 H17        19.1985  -11.1658    3.1988 H         1 HIS         0.0729
     54 H18        20.2899   -7.4691    5.0156 H         1 HIS         0.1199
     55 H19        21.1716   -9.5836    3.8816 H         1 HIS         0.2361
     56 H20        15.5244  -12.2935    1.8451 H         1 THR         0.1884
     57 H21        12.7525  -12.1673    1.3045 H         1 THR         0.0826
     58 H22        14.4067  -14.5725    2.2403 H         1 THR         0.0639
     59 H23        13.8017  -13.5627   -0.3710 H         1 THR         0.2101
     60 H24        12.7183  -15.8962    1.0370 H         1 THR         0.0257
     61 H25        11.7974  -14.3973    0.6739 H         1 THR         0.0257
     62 H26        11.9770  -14.9518    2.3731 H         1 THR         0.0257
     63 H27        10.9722  -12.2605    2.5254 H         1 GLY         0.1881
     64 H28        10.7700  -13.8069    4.8802 H         1 GLY         0.0763
     65 H29         9.5544  -12.6391    4.2595 H         1 GLY         0.0763
     66 H30        12.2496  -10.6732    6.6012 H         1 NH2         0.1815
     67 H31        12.7214  -11.4221    5.1124 H         1 NH2         0.1815
@<TRIPOS>BOND
     1    1    2 2  
     2    1    3 1  
     3    1    4 am 
     4    4    5 1  
     5    5    6 1  
     6    5    8 1  
     7    6    7 2  
     8    6   15 am 
     9    8    9 1  
    10    9   10 ar 
    11    9   11 ar 
    12   10   12 ar 
    13   11   13 ar 
    14   12   14 ar 
    15   13   14 ar 
    16   15   16 1  
    17   16   17 1  
    18   16   19 1  
    19   17   18 2  
    20   17   25 am 
    21   19   20 1  
    22   20   21 1  
    23   20   22 2  
    24   21   23 2  
    25   22   24 1  
    26   23   24 1  
    27   25   26 1  
    28   26   27 1  
    29   26   29 1  
    30   27   28 2  
    31   27   32 am 
    32   29   30 1  
    33   29   31 1  
    34   32   33 1  
    35   33   34 1  
    36   34   35 2  
    37   34   36 am 
    38    3   37 1  
    39    3   38 1  
    40    3   39 1  
    41    4   40 1  
    42    5   41 1  
    43    8   42 1  
    44    8   43 1  
    45   10   44 1  
    46   11   45 1  
    47   12   46 1  
    48   13   47 1  
    49   14   48 1  
    50   15   49 1  
    51   16   50 1  
    52   19   51 1  
    53   19   52 1  
    54   22   53 1  
    55   23   54 1  
    56   24   55 1  
    57   25   56 1  
    58   26   57 1  
    59   29   58 1  
    60   30   59 1  
    61   31   60 1  
    62   31   61 1  
    63   31   62 1  
    64   32   63 1  
    65   33   64 1  
    66   33   65 1  
    67   36   66 1  
    68   36   67 1  
@<TRIPOS>SUBSTRUCTURE
     1 ACE         1

