### 
### Created by X-TOOL on Mon Sep 10 21:13:28 2018
### 

@<TRIPOS>MOLECULE
5fow_ligand
   72    74     1     0     0
SMALL
GAST_HUCK


@<TRIPOS>ATOM
      1 C          18.7400   -5.0920    3.0790 C.2       1 ACE         0.1752
      2 O          17.9400   -5.3920    3.9640 O.2       1 ACE        -0.3972
      3 CH3        19.9150   -4.1690    3.3290 C.3       1 ACE         0.0258
      4 N          18.6260   -5.5590    1.8360 N.am      1 TRP        -0.2648
      5 CA         17.5540   -6.4580    1.4030 C.3       1 TRP         0.1351
      6 C          17.7560   -7.9060    1.8360 C.2       1 TRP         0.2053
      7 O          18.8440   -8.4660    1.6640 O.2       1 TRP        -0.3942
      8 CB         17.4180   -6.4030   -0.1150 C.3       1 TRP         0.0042
      9 CG         16.7730   -5.1450   -0.6210 C.2       1 TRP        -0.0418
     10 CD1        17.3810   -4.1060   -1.2700 C.2       1 TRP         0.0167
     11 CD2        15.3920   -4.7970   -0.5090 C.ar      1 TRP        -0.0214
     12 NE1        16.4520   -3.1290   -1.5780 N.pl3     1 TRP        -0.2890
     13 CE2        15.2250   -3.5300   -1.1180 C.ar      1 TRP         0.0603
     14 CE3        14.2750   -5.4370    0.0380 C.ar      1 TRP        -0.0747
     15 CZ2        13.9850   -2.8920   -1.1850 C.ar      1 TRP        -0.0443
     16 CZ3        13.0420   -4.8020   -0.0320 C.ar      1 TRP        -0.0792
     17 CH2        12.9090   -3.5480   -0.6430 C.ar      1 TRP        -0.0768
     18 N          16.6970   -8.5200    2.3690 N.am      1 HIS        -0.2624
     19 CA         16.7200   -9.9290    2.7490 C.3       1 HIS         0.1369
     20 C          15.3340  -10.5370    2.5570 C.2       1 HIS         0.2054
     21 O          14.3310   -9.8270    2.4370 O.2       1 HIS        -0.3942
     22 CB         17.1520  -10.1290    4.2080 C.3       1 HIS         0.0145
     23 CG         18.4980   -9.5600    4.5330 C.2       1 HIS        -0.0027
     24 ND1        18.6650   -8.2800    5.0160 N.2       1 HIS        -0.3252
     25 CD2        19.7360  -10.1050    4.4660 C.2       1 HIS         0.0291
     26 CE1        19.9510   -8.0580    5.2250 C.2       1 HIS         0.0907
     27 NE2        20.6210   -9.1490    4.9010 N.pl3     1 HIS        -0.2752
     28 N          15.2880  -11.8690    2.5590 N.am      1 THR        -0.2612
     29 CA         14.0130  -12.5750    2.5020 C.3       1 THR         0.1564
     30 C          13.2590  -12.4290    3.8180 C.2       1 THR         0.2059
     31 O          13.8500  -12.5000    4.8990 O.2       1 THR        -0.3943
     32 CB         14.2380  -14.0560    2.1990 C.3       1 THR         0.0924
     33 OG1        15.1380  -14.1800    1.0950 O.3       1 THR        -0.3874
     34 CG2        12.9130  -14.7370    1.8560 C.3       1 THR        -0.0346
     35 N          11.9480  -12.2150    3.7240 N.am      1 ALA        -0.2697
     36 CA         11.1110  -12.0660    4.9130 C.3       1 ALA         0.0916
     37 C          11.1060  -13.3240    5.7860 C.2       1 ALA         0.0598
     38 O          10.9540  -13.2380    7.0060 O.co2     1 ALA        -0.5666
     39 CB          9.6920  -11.6990    4.5140 C.3       1 ALA        -0.0300
     40 OXT        11.2540  -14.4380    5.2790 O.co2     1 ALA        -0.5666
     41 H1         20.4889   -4.0458    2.3987 H         1 ACE         0.0467
     42 H2         20.5632   -4.6024    4.1049 H         1 ACE         0.0467
     43 H3         19.5462   -3.1886    3.6649 H         1 ACE         0.0467
     44 H4         19.3100   -5.2802    1.1619 H         1 TRP         0.1884
     45 H5         16.6158   -6.1004    1.8524 H         1 TRP         0.0815
     46 H6         16.8091   -7.2596   -0.4398 H         1 TRP         0.0397
     47 H7         18.4228   -6.4790   -0.5561 H         1 TRP         0.0397
     48 H8         18.4422   -4.0554   -1.5094 H         1 TRP         0.0795
     49 H9         16.6495   -2.2466   -2.0712 H         1 TRP         0.2216
     50 H10        14.3700   -6.4095    0.5073 H         1 TRP         0.0540
     51 H11        13.8768   -1.9173   -1.6468 H         1 TRP         0.0541
     52 H12        12.1688   -5.2839    0.3926 H         1 TRP         0.0510
     53 H13        11.9303   -3.0842   -0.6886 H         1 TRP         0.0530
     54 H14        15.8578   -7.9956    2.5130 H         1 HIS         0.1885
     55 H15        17.4351  -10.4525    2.0974 H         1 HIS         0.0817
     56 H16        17.1746  -11.2089    4.4161 H         1 HIS         0.0420
     57 H17        16.4073   -9.6459    4.8576 H         1 HIS         0.0420
     58 H18        19.9831  -11.1112    4.1306 H         1 HIS         0.0729
     59 H19        20.3846   -7.1324    5.6007 H         1 HIS         0.1199
     60 H20        21.6426   -9.2644    4.9643 H         1 HIS         0.2361
     61 H21        16.1396  -12.3917    2.6002 H         1 THR         0.1884
     62 H22        13.4054  -12.1371    1.6964 H         1 THR         0.0826
     63 H23        14.6756  -14.5433    3.0828 H         1 THR         0.0639
     64 H24        14.7644  -13.7519    0.3337 H         1 THR         0.2101
     65 H25        13.0924  -15.8007    1.6409 H         1 THR         0.0257
     66 H26        12.4703  -14.2539    0.9725 H         1 THR         0.0257
     67 H27        12.2229  -14.6465    2.7078 H         1 THR         0.0257
     68 H28        11.5265  -12.1549    2.8192 H         1 ALA         0.1875
     69 H29        11.5237  -11.2419    5.5133 H         1 ALA         0.0723
     70 H30         9.0737  -11.5901    5.4172 H         1 ALA         0.0270
     71 H31         9.2736  -12.4919    3.8767 H         1 ALA         0.0270
     72 H32         9.7011  -10.7492    3.9592 H         1 ALA         0.0270
@<TRIPOS>BOND
     1    1    2 2  
     2    1    3 1  
     3    1    4 am 
     4    4    5 1  
     5    5    6 1  
     6    5    8 1  
     7    6    7 2  
     8    6   18 am 
     9    8    9 1  
    10    9   10 2  
    11    9   11 1  
    12   10   12 1  
    13   11   13 ar 
    14   11   14 ar 
    15   12   13 1  
    16   13   15 ar 
    17   14   16 ar 
    18   15   17 ar 
    19   16   17 ar 
    20   18   19 1  
    21   19   20 1  
    22   19   22 1  
    23   20   21 2  
    24   20   28 am 
    25   22   23 1  
    26   23   24 1  
    27   23   25 2  
    28   24   26 2  
    29   25   27 1  
    30   26   27 1  
    31   28   29 1  
    32   29   30 1  
    33   29   32 1  
    34   30   31 2  
    35   30   35 am 
    36   32   33 1  
    37   32   34 1  
    38   35   36 1  
    39   36   37 1  
    40   36   39 1  
    41   37   38 ar 
    42   37   40 ar 
    43    3   41 1  
    44    3   42 1  
    45    3   43 1  
    46    4   44 1  
    47    5   45 1  
    48    8   46 1  
    49    8   47 1  
    50   10   48 1  
    51   12   49 1  
    52   14   50 1  
    53   15   51 1  
    54   16   52 1  
    55   17   53 1  
    56   18   54 1  
    57   19   55 1  
    58   22   56 1  
    59   22   57 1  
    60   25   58 1  
    61   26   59 1  
    62   27   60 1  
    63   28   61 1  
    64   29   62 1  
    65   32   63 1  
    66   33   64 1  
    67   34   65 1  
    68   34   66 1  
    69   34   67 1  
    70   35   68 1  
    71   36   69 1  
    72   39   70 1  
    73   39   71 1  
    74   39   72 1  
@<TRIPOS>SUBSTRUCTURE
     1 ACE         1

