### 
### Created by X-TOOL on Mon Sep 10 21:13:26 2018
### 

@<TRIPOS>MOLECULE
5fox_ligand
   66    67     1     0     0
SMALL
GAST_HUCK


@<TRIPOS>ATOM
      1 C          15.6140   19.8410   34.6690 C.2       1 ACE         0.1752
      2 O          15.8340   20.9970   34.3070 O.2       1 ACE        -0.3972
      3 CH3        16.1370   19.3070   35.9710 C.3       1 ACE         0.0258
      4 N          14.8840   19.0020   33.9420 N.am      1 PHE        -0.2640
      5 CA         14.2620   19.4210   32.6830 C.3       1 PHE         0.1404
      6 C          13.1210   20.3840   32.9300 C.2       1 PHE         0.2060
      7 O          12.3430   20.2090   33.8620 O.2       1 PHE        -0.3942
      8 CB         13.7200   18.2120   31.9220 C.3       1 PHE         0.0214
      9 CG         14.7870   17.3710   31.2860 C.ar      1 PHE        -0.0386
     10 CD1        15.2710   17.6760   30.0210 C.ar      1 PHE        -0.0601
     11 CD2        15.3110   16.2750   31.9560 C.ar      1 PHE        -0.0601
     12 CE1        16.2630   16.9040   29.4460 C.ar      1 PHE        -0.0686
     13 CE2        16.2970   15.4940   31.3770 C.ar      1 PHE        -0.0686
     14 CZ         16.7700   15.8140   30.1180 C.ar      1 PHE        -0.0687
     15 N          13.0170   21.3900   32.0720 N.am      1 HIS        -0.2623
     16 CA         11.9010   22.3350   32.1000 C.3       1 HIS         0.1369
     17 C          11.4740   22.6440   30.6810 C.2       1 HIS         0.2054
     18 O          12.2830   22.5990   29.7620 O.2       1 HIS        -0.3942
     19 CB         12.3070   23.6570   32.7630 C.3       1 HIS         0.0145
     20 CG         12.8260   23.5090   34.1530 C.2       1 HIS        -0.0027
     21 ND1        11.9970   23.4480   35.2510 N.2       1 HIS        -0.3252
     22 CD2        14.0890   23.4080   34.6280 C.2       1 HIS         0.0291
     23 CE1        12.7280   23.3180   36.3440 C.2       1 HIS         0.0907
     24 NE2        14.0010   23.2920   35.9930 N.pl3     1 HIS        -0.2752
     25 N          10.2110   23.0040   30.5020 N.am      1 ALA        -0.2639
     26 CA          9.7490   23.4430   29.1880 C.3       1 ALA         0.1282
     27 C          10.6280   24.5860   28.6750 C.2       1 ALA         0.2036
     28 O          11.0650   25.4490   29.4480 O.2       1 ALA        -0.3944
     29 CB          8.2980   23.8880   29.2530 C.3       1 ALA        -0.0244
     30 N          10.8630   24.6030   27.3680 N.am      1 ALA        -0.2640
     31 CA         11.8200   25.5340   26.7720 C.3       1 ALA         0.1279
     32 C          11.3340   26.9710   26.7280 C.2       1 ALA         0.1989
     33 O          12.1440   27.8810   26.6230 O.2       1 ALA        -0.3947
     34 CB         12.1900   25.0790   25.3790 C.3       1 ALA        -0.0244
     35 N          10.0230   27.1650   26.7700 N.am      1 NH2        -0.2990
     36 H1         15.8228   18.2596   36.0904 H         1 ACE         0.0467
     37 H2         15.7358   19.9070   36.8011 H         1 ACE         0.0467
     38 H3         17.2356   19.3630   35.9755 H         1 ACE         0.0467
     39 H4         14.7561   18.0630   34.2613 H         1 PHE         0.1884
     40 H5         15.0237   19.9209   32.0667 H         1 PHE         0.0823
     41 H6         13.0456   18.5731   31.1316 H         1 PHE         0.0474
     42 H7         13.1559   17.5829   32.6262 H         1 PHE         0.0474
     43 H8         14.8683   18.5251   29.4807 H         1 PHE         0.0557
     44 H9         14.9439   16.0269   32.9453 H         1 PHE         0.0557
     45 H10        16.6431   17.1573   28.4629 H         1 PHE         0.0599
     46 H11        16.6956   14.6369   31.9077 H         1 PHE         0.0599
     47 H12        17.5412   15.2060   29.6590 H         1 PHE         0.0559
     48 H13        13.7288   21.5069   31.3794 H         1 HIS         0.1885
     49 H14        11.0627   21.8884   32.6548 H         1 HIS         0.0817
     50 H15        11.4250   24.3136   32.7921 H         1 HIS         0.0420
     51 H16        13.0917   24.1240   32.1496 H         1 HIS         0.0420
     52 H17        15.0041   23.4170   34.0378 H         1 HIS         0.0729
     53 H18        12.3459   23.2448   37.3611 H         1 HIS         0.1199
     54 H19        14.7982   23.1997   36.6386 H         1 HIS         0.2361
     55 H20         9.5715   22.9749   31.2703 H         1 ALA         0.1883
     56 H21         9.8259   22.5976   28.4884 H         1 ALA         0.0797
     57 H22         7.9695   24.2143   28.2552 H         1 ALA         0.0277
     58 H23         8.2021   24.7236   29.9620 H         1 ALA         0.0277
     59 H24         7.6717   23.0484   29.5888 H         1 ALA         0.0277
     60 H25        10.3730   23.9628   26.7764 H         1 ALA         0.1883
     61 H26        12.7281   25.5123   27.3924 H         1 ALA         0.0797
     62 H27        12.9097   25.7864   24.9413 H         1 ALA         0.0277
     63 H28        11.2861   25.0414   24.7533 H         1 ALA         0.0277
     64 H29        12.6436   24.0781   25.4285 H         1 ALA         0.0277
     65 H30         9.6539   28.0940   26.7437 H         1 NH2         0.1815
     66 H31         9.4033   26.3823   26.8280 H         1 NH2         0.1815
@<TRIPOS>BOND
     1    1    2 2  
     2    1    3 1  
     3    1    4 am 
     4    4    5 1  
     5    5    6 1  
     6    5    8 1  
     7    6    7 2  
     8    6   15 am 
     9    8    9 1  
    10    9   10 ar 
    11    9   11 ar 
    12   10   12 ar 
    13   11   13 ar 
    14   12   14 ar 
    15   13   14 ar 
    16   15   16 1  
    17   16   17 1  
    18   16   19 1  
    19   17   18 2  
    20   17   25 am 
    21   19   20 1  
    22   20   21 1  
    23   20   22 2  
    24   21   23 2  
    25   22   24 1  
    26   23   24 1  
    27   25   26 1  
    28   26   27 1  
    29   26   29 1  
    30   27   28 2  
    31   27   30 am 
    32   30   31 1  
    33   31   32 1  
    34   31   34 1  
    35   32   33 2  
    36   32   35 am 
    37    3   36 1  
    38    3   37 1  
    39    3   38 1  
    40    4   39 1  
    41    5   40 1  
    42    8   41 1  
    43    8   42 1  
    44   10   43 1  
    45   11   44 1  
    46   12   45 1  
    47   13   46 1  
    48   14   47 1  
    49   15   48 1  
    50   16   49 1  
    51   19   50 1  
    52   19   51 1  
    53   22   52 1  
    54   23   53 1  
    55   24   54 1  
    56   25   55 1  
    57   26   56 1  
    58   29   57 1  
    59   29   58 1  
    60   29   59 1  
    61   30   60 1  
    62   31   61 1  
    63   34   62 1  
    64   34   63 1  
    65   34   64 1  
    66   35   65 1  
    67   35   66 1  
@<TRIPOS>SUBSTRUCTURE
     1 ACE         1

