### 
### Created by X-TOOL on Mon Sep 10 21:13:27 2018
### 

@<TRIPOS>MOLECULE
5fp0_ligand
   46    49     1     0     0
SMALL
GAST_HUCK


@<TRIPOS>ATOM
      1 C1         13.6590  -12.4160  -19.5260 C.ar      1 SZC        -0.0691
      2 C2         17.5780  -11.3420  -14.3700 C.ar      1 SZC        -0.0180
      3 C3         17.3010   -9.0240  -14.8280 C.ar      1 SZC        -0.0180
      4 C4         18.4970  -11.0600  -13.3820 C.ar      1 SZC        -0.0311
      5 C5         18.2010   -8.7300  -13.8300 C.ar      1 SZC        -0.0311
      6 C6         14.2680  -12.7840  -18.3410 C.ar      1 SZC        -0.0352
      7 C7         13.6840  -11.1160  -19.9910 C.ar      1 SZC        -0.0458
      8 C8         16.9690  -10.3330  -15.1000 C.ar      1 SZC         0.0606
      9 C9         18.8130   -9.7430  -13.1170 C.ar      1 SZC         0.0432
     10 C10        14.9010  -11.7730  -17.6250 C.ar      1 SZC         0.0905
     11 C11        14.9400  -10.4840  -18.1000 C.ar      1 SZC         0.0728
     12 C12        14.3360  -10.1190  -19.2860 C.ar      1 SZC         0.1145
     13 C13        16.0710  -10.6550  -16.1860 C.2       1 SZC         0.1637
     14 C14        10.4420   -7.9560  -17.0270 C.3       1 SZC        -0.0513
     15 C15        10.5110   -6.5180  -17.4720 C.3       1 SZC        -0.0513
     16 C16        11.4170   -8.7400  -17.8680 C.3       1 SZC        -0.0333
     17 C17        11.2310   -6.4870  -18.7980 C.3       1 SZC        -0.0333
     18 C18        11.8710   -7.8450  -18.9970 C.3       1 SZC         0.0378
     19 C19        19.8030   -9.3940  -12.0450 C.3       1 SZC         0.3704
     20 N20        15.6010  -11.8440  -16.4540 N.pl3     1 SZC        -0.2432
     21 N21        15.6630   -9.7980  -17.1650 N.2       1 SZC        -0.2836
     22 N22        13.3250   -7.6570  -18.8560 N.am      1 SZC        -0.2449
     23 O23        15.6950   -7.9500  -19.7410 O.2       1 SZC        -0.1508
     24 O24        13.7560   -8.5880  -21.2630 O.2       1 SZC        -0.1508
     25 F25        19.3030   -9.5720  -10.7920 F         1 SZC        -0.2274
     26 F26        20.9760  -10.0840  -12.1320 F         1 SZC        -0.2274
     27 F27        20.2020   -8.1030  -12.0810 F         1 SZC        -0.2274
     28 S28        14.3580   -8.4740  -19.9450 S.o2      1 SZC         0.0664
     29 H1         13.1454  -13.1720  -20.1089 H         1 SZC         0.0572
     30 H2         17.3261  -12.3751  -14.5807 H         1 SZC         0.0730
     31 H3         16.8513   -8.2224  -15.4027 H         1 SZC         0.0730
     32 H4         18.9647  -11.8612  -12.8213 H         1 SZC         0.0842
     33 H5         18.4318   -7.6958  -13.6013 H         1 SZC         0.0842
     34 H6         14.2531  -13.8086  -17.9874 H         1 SZC         0.0556
     35 H7         13.1855  -10.8725  -20.9223 H         1 SZC         0.0555
     36 H8          9.4235   -8.3453  -17.1724 H         1 SZC         0.0266
     37 H9         10.7161   -8.0336  -15.9645 H         1 SZC         0.0266
     38 H10        11.0633   -5.9217  -16.7309 H         1 SZC         0.0266
     39 H11         9.4954   -6.1113  -17.5866 H         1 SZC         0.0266
     40 H12        10.9254   -9.6361  -18.2746 H         1 SZC         0.0283
     41 H13        12.2812   -9.0409  -17.2576 H         1 SZC         0.0283
     42 H14        12.0043   -5.7047  -18.7879 H         1 SZC         0.0283
     43 H15        10.5162   -6.2856  -19.6095 H         1 SZC         0.0283
     44 H16        11.6120   -8.2730  -19.9766 H         1 SZC         0.0511
     45 H17        15.7351  -12.6894  -15.8811 H         1 SZC         0.2320
     46 H18        13.6984   -7.0661  -18.1409 H         1 SZC         0.1675
@<TRIPOS>BOND
     1    1    6 ar 
     2    7    1 ar 
     3    2    4 ar 
     4    8    2 ar 
     5    3    5 ar 
     6    8    3 ar 
     7    4    9 ar 
     8    5    9 ar 
     9   10    6 ar 
    10   12    7 ar 
    11   13    8 1  
    12    9   19 1  
    13   11   10 ar 
    14   10   20 1  
    15   12   11 ar 
    16   11   21 1  
    17   28   12 1  
    18   13   20 1  
    19   21   13 2  
    20   15   14 1  
    21   16   14 1  
    22   17   15 1  
    23   18   16 1  
    24   18   17 1  
    25   22   18 1  
    26   19   25 1  
    27   19   26 1  
    28   19   27 1  
    29   22   28 am 
    30   28   23 2  
    31   28   24 2  
    32    1   29 1  
    33    2   30 1  
    34    3   31 1  
    35    4   32 1  
    36    5   33 1  
    37    6   34 1  
    38    7   35 1  
    39   14   36 1  
    40   14   37 1  
    41   15   38 1  
    42   15   39 1  
    43   16   40 1  
    44   16   41 1  
    45   17   42 1  
    46   17   43 1  
    47   18   44 1  
    48   20   45 1  
    49   22   46 1  
@<TRIPOS>SUBSTRUCTURE
     1 SZC         1

