### 
### Created by X-TOOL on Mon Sep 10 21:13:25 2018
### 

@<TRIPOS>MOLECULE
5fpk_ligand
   63    63     1     0     0
SMALL
GAST_HUCK


@<TRIPOS>ATOM
      1 C          28.6420    0.2650   39.6040 C.2       1 ACE         0.1752
      2 O          28.4940    1.4090   39.1640 O.2       1 ACE        -0.3972
      3 CH3        29.7970   -0.6770   39.3450 C.3       1 ACE         0.0258
      4 N          27.7370   -0.2570   40.3970 N.am      1 PHE        -0.2640
      5 CA         26.5400    0.4550   40.7580 C.3       1 PHE         0.1404
      6 C          26.7100    0.9240   42.1930 C.2       1 PHE         0.2059
      7 O          27.6360    0.5060   42.8880 O.2       1 PHE        -0.3942
      8 CB         25.3860   -0.5100   40.5750 C.3       1 PHE         0.0214
      9 CG         25.0540   -0.7630   39.1270 C.ar      1 PHE        -0.0386
     10 CD1        25.8200   -1.6080   38.3180 C.ar      1 PHE        -0.0601
     11 CD2        23.9750   -0.1390   38.5640 C.ar      1 PHE        -0.0601
     12 CE1        25.4800   -1.7950   36.9600 C.ar      1 PHE        -0.0686
     13 CE2        23.6590   -0.3180   37.2420 C.ar      1 PHE        -0.0686
     14 CZ         24.4170   -1.1520   36.4430 C.ar      1 PHE        -0.0687
     15 N          25.8650    1.8360   42.6420 N.am      1 ALA        -0.2639
     16 CA         25.9600    2.2820   44.0220 C.3       1 ALA         0.1282
     17 C          24.5750    2.3830   44.6270 C.2       1 ALA         0.2037
     18 O          23.6490    2.9000   43.9940 O.2       1 ALA        -0.3944
     19 CB         26.6420    3.6490   44.1080 C.3       1 ALA        -0.0244
     20 N          24.4630    1.9190   45.8750 N.am      1 THR        -0.2613
     21 CA         23.2020    2.0160   46.5890 C.3       1 THR         0.1565
     22 C          22.7330    3.4590   46.6550 C.2       1 THR         0.2065
     23 O          23.5200    4.3840   46.8790 O.2       1 THR        -0.3943
     24 CB         23.3090    1.4290   48.0030 C.3       1 THR         0.0924
     25 OG1        22.0220    1.5120   48.6290 O.3       1 THR        -0.3874
     26 CG2        24.3230    2.1770   48.8620 C.3       1 THR        -0.0346
     27 N          21.4310    3.6360   46.5040 N.am      1 ALA        -0.2639
     28 CA         20.8050    4.9310   46.6180 C.3       1 ALA         0.1279
     29 C          20.5560    5.2850   48.0880 C.2       1 ALA         0.1989
     30 O          20.1600    6.4050   48.4010 O.2       1 ALA        -0.3947
     31 CB         19.5110    4.9210   45.8120 C.3       1 ALA        -0.0244
     32 N          20.7940    4.3330   48.9880 N.am      1 NH2        -0.2990
     33 H1         29.6278   -1.6212   39.8834 H         1 ACE         0.0467
     34 H2         30.7318   -0.2165   39.6972 H         1 ACE         0.0467
     35 H3         29.8712   -0.8783   38.2661 H         1 ACE         0.0467
     36 H4         27.8832   -1.1767   40.7613 H         1 PHE         0.1884
     37 H5         26.3948    1.3276   40.1042 H         1 PHE         0.0823
     38 H6         24.4974   -0.0918   41.0704 H         1 PHE         0.0474
     39 H7         25.6519   -1.4678   41.0461 H         1 PHE         0.0474
     40 H8         26.6786   -2.1218   38.7350 H         1 PHE         0.0557
     41 H9         23.3577    0.5097   39.1749 H         1 PHE         0.0557
     42 H10        26.0732   -2.4541   36.3365 H         1 PHE         0.0599
     43 H11        22.8058    0.2001   36.8194 H         1 PHE         0.0599
     44 H12        24.1555   -1.2884   35.3999 H         1 PHE         0.0559
     45 H13        25.1657    2.2162   42.0367 H         1 ALA         0.1883
     46 H14        26.5514    1.5502   44.5918 H         1 ALA         0.0797
     47 H15        26.7015    3.9635   45.1604 H         1 ALA         0.0277
     48 H16        26.0585    4.3865   43.5374 H         1 ALA         0.0277
     49 H17        27.6563    3.5798   43.6881 H         1 ALA         0.0277
     50 H18        25.2544    1.5013   46.3213 H         1 THR         0.1884
     51 H19        22.4513    1.4346   46.0337 H         1 THR         0.0826
     52 H20        23.6154    0.3751   47.9289 H         1 THR         0.0639
     53 H21        21.3907    1.0179   48.1193 H         1 THR         0.2101
     54 H22        24.3636    1.7209   49.8622 H         1 THR         0.0257
     55 H23        24.0211    3.2309   48.9516 H         1 THR         0.0257
     56 H24        25.3158    2.1186   48.3919 H         1 THR         0.0257
     57 H25        20.8581    2.8414   46.3030 H         1 ALA         0.1883
     58 H26        21.4781    5.6891   46.1913 H         1 ALA         0.0797
     59 H27        19.0227    5.9036   45.8902 H         1 ALA         0.0277
     60 H28        18.8389    4.1451   46.2071 H         1 ALA         0.0277
     61 H29        19.7377    4.7072   44.7571 H         1 ALA         0.0277
     62 H30        20.6465    4.5157   49.9600 H         1 NH2         0.1815
     63 H31        21.1202    3.4353   48.6919 H         1 NH2         0.1815
@<TRIPOS>BOND
     1    1    2 2  
     2    1    3 1  
     3    1    4 am 
     4    4    5 1  
     5    5    6 1  
     6    5    8 1  
     7    6    7 2  
     8    6   15 am 
     9    8    9 1  
    10    9   10 ar 
    11    9   11 ar 
    12   10   12 ar 
    13   11   13 ar 
    14   12   14 ar 
    15   13   14 ar 
    16   15   16 1  
    17   16   17 1  
    18   16   19 1  
    19   17   18 2  
    20   17   20 am 
    21   20   21 1  
    22   21   22 1  
    23   21   24 1  
    24   22   23 2  
    25   22   27 am 
    26   24   25 1  
    27   24   26 1  
    28   27   28 1  
    29   28   29 1  
    30   28   31 1  
    31   29   30 2  
    32   29   32 am 
    33    3   33 1  
    34    3   34 1  
    35    3   35 1  
    36    4   36 1  
    37    5   37 1  
    38    8   38 1  
    39    8   39 1  
    40   10   40 1  
    41   11   41 1  
    42   12   42 1  
    43   13   43 1  
    44   14   44 1  
    45   15   45 1  
    46   16   46 1  
    47   19   47 1  
    48   19   48 1  
    49   19   49 1  
    50   20   50 1  
    51   21   51 1  
    52   24   52 1  
    53   25   53 1  
    54   26   54 1  
    55   26   55 1  
    56   26   56 1  
    57   27   57 1  
    58   28   58 1  
    59   31   59 1  
    60   31   60 1  
    61   31   61 1  
    62   32   62 1  
    63   32   63 1  
@<TRIPOS>SUBSTRUCTURE
     1 ACE         1

