### 
### Created by X-TOOL on Mon Sep 10 21:13:27 2018
### 

@<TRIPOS>MOLECULE
5fpp_ligand
   37    38     1     0     0
SMALL
GAST_HUCK


@<TRIPOS>ATOM
      1 O3         37.7030   18.5450    9.6960 O.2       1 HI6        -0.3951
      2 C14        37.8770   19.6720   10.0020 C.2       1 HI6         0.1818
      3 N4         39.1210   20.0560   10.5450 N.am      1 HI6        -0.3036
      4 C11        36.7370   20.7010    9.8010 C.2       1 HI6         0.0114
      5 C10        35.7230   20.4420    8.8740 C.2       1 HI6        -0.0493
      6 C9         34.7380   21.3580    8.7180 C.3       1 HI6         0.0596
      7 N3         34.7270   22.5430    9.4640 N.pl3     1 HI6        -0.2755
      8 C13        35.6960   22.7980   10.3530 C.2       1 HI6         0.0069
      9 C12        36.7070   21.9140   10.5500 C.2       1 HI6        -0.0630
     10 C8         33.6380   23.5190    9.2670 C.3       1 HI6         0.1370
     11 O2         32.4940   23.0910    8.5520 O.3       1 HI6        -0.3245
     12 C7         31.6670   22.1910    9.1010 C.3       1 HI6         0.1727
     13 N2         30.9250   22.5980   10.3120 N.pl3     1 HI6        -0.1927
     14 C2         30.3020   21.6490   11.1470 C.2       1 HI6         0.1036
     15 C1         30.3570   20.2240   10.8570 C.2       1 HI6         0.0499
     16 N1         29.7430   19.3940   11.6130 N.2       1 HI6        -0.1875
     17 O1         29.6870   18.1780   11.2940 O.2       1 HI6        -0.3910
     18 C3         29.6140   22.0580   12.2760 C.2       1 HI6        -0.0097
     19 C4         29.5200   23.4240   12.6170 C.2       1 HI6        -0.0419
     20 C5         30.1580   24.3600   11.7580 C.2       1 HI6        -0.0056
     21 C6         30.8510   23.9130   10.6160 C.2       1 HI6         0.0903
     22 H1         39.2795   21.0078   10.8077 H         1 HI6         0.1801
     23 H2         39.8444   19.3765   10.6672 H         1 HI6         0.1801
     24 H3         35.7253   19.5230    8.2897 H         1 HI6         0.0650
     25 H4         33.7928   20.8409    8.9397 H         1 HI6         0.0711
     26 H5         34.7535   21.6559    7.6592 H         1 HI6         0.0711
     27 H6         35.6724   23.7249   10.9241 H         1 HI6         0.0943
     28 H7         37.4901   22.1297   11.2753 H         1 HI6         0.0270
     29 H8         34.0608   24.3788    8.7266 H         1 HI6         0.0842
     30 H9         33.3013   23.8416   10.2633 H         1 HI6         0.0842
     31 H10        32.2681   21.3080    9.3638 H         1 HI6         0.0961
     32 H11        30.9253   21.9155    8.3369 H         1 HI6         0.0961
     33 H12        30.9203   19.8643    9.9972 H         1 HI6         0.0339
     34 H13        29.1373   21.3133   12.9117 H         1 HI6         0.0615
     35 H14        28.9792   23.7489   13.5046 H         1 HI6         0.0825
     36 H15        30.1109   25.4244   11.9832 H         1 HI6         0.0593
     37 H16        31.3359   24.6400    9.9663 H         1 HI6         0.1396
@<TRIPOS>BOND
     1    1    2 2  
     2    2    3 am 
     3    2    4 1  
     4    4    5 2  
     5    4    9 1  
     6    5    6 1  
     7    6    7 1  
     8    7    8 1  
     9    7   10 1  
    10    8    9 2  
    11   10   11 1  
    12   11   12 1  
    13   12   13 1  
    14   13   14 1  
    15   13   21 1  
    16   14   15 2  
    17   14   18 1  
    18   15   16 1  
    19   16   17 2  
    20   18   19 2  
    21   19   20 1  
    22   20   21 2  
    23    3   22 1  
    24    3   23 1  
    25    5   24 1  
    26    6   25 1  
    27    6   26 1  
    28    8   27 1  
    29    9   28 1  
    30   10   29 1  
    31   10   30 1  
    32   12   31 1  
    33   12   32 1  
    34   15   33 1  
    35   18   34 1  
    36   19   35 1  
    37   20   36 1  
    38   21   37 1  
@<TRIPOS>SUBSTRUCTURE
     1 HI6         1

