### 
### Created by X-TOOL on Mon Sep 10 21:13:28 2018
### 

@<TRIPOS>MOLECULE
5fpu_ligand
   51    54     1     0     0
SMALL
GAST_HUCK


@<TRIPOS>ATOM
      1 O2         87.6070   64.8490   16.4590 O.co2     1 K0I        -0.5689
      2 C1         87.3300   64.5060   15.3290 C.2       1 K0I         0.0367
      3 O1         88.1860   63.9500   14.5160 O.co2     1 K0I        -0.5689
      4 C2         85.9630   64.6730   14.7330 C.3       1 K0I         0.0205
      5 C3         85.9870   65.0060   13.2560 C.3       1 K0I         0.0399
      6 N1         84.6550   64.8330   12.7000 N.pl3     1 K0I        -0.3032
      7 C4         84.1950   63.6300   12.2630 C.ar      1 K0I         0.1128
      8 N3         82.9380   63.5880   11.8090 N.ar      1 K0I        -0.2631
      9 C7         82.4930   62.3850   11.4170 C.ar      1 K0I         0.1124
     10 C8         81.0960   62.3140   10.9080 C.ar      1 K0I         0.0847
     11 N4         80.3940   63.4590   10.8930 N.ar      1 K0I        -0.2829
     12 C12        79.1340   63.4050   10.4320 C.ar      1 K0I         0.0148
     13 C11        78.5330   62.2500    9.9810 C.ar      1 K0I        -0.0307
     14 C10        79.2650   61.0890   10.0050 C.ar      1 K0I        -0.0380
     15 C9         80.5640   61.1070   10.4730 C.ar      1 K0I        -0.0195
     16 N2         83.1930   61.2440   11.4430 N.ar      1 K0I        -0.2629
     17 C6         84.4490   61.3090   11.8980 C.ar      1 K0I         0.1155
     18 C5         85.0140   62.5060   12.3270 C.ar      1 K0I         0.0221
     19 N5         85.1540   60.1390   11.9300 N.pl3     1 K0I        -0.2873
     20 C22        84.5240   58.8250   11.7840 C.3       1 K0I         0.0402
     21 C21        84.4790   58.4020   10.3180 C.3       1 K0I        -0.0010
     22 C20        85.7290   58.5540    9.4840 C.ar      1 K0I        -0.0390
     23 C15        87.0050   58.8010   10.0120 C.ar      1 K0I        -0.0390
     24 C14        87.2680   58.9640   11.4880 C.3       1 K0I        -0.0010
     25 C13        86.6040   60.1720   12.1350 C.3       1 K0I         0.0402
     26 C19        85.5840   58.4240    8.1060 C.ar      1 K0I        -0.0668
     27 C18        86.6730   58.5310    7.2610 C.ar      1 K0I        -0.0755
     28 C17        87.9200   58.7710    7.7780 C.ar      1 K0I        -0.0755
     29 C16        88.0880   58.9050    9.1440 C.ar      1 K0I        -0.0668
     30 H1         85.4476   65.4860   15.2653 H         1 K0I         0.0450
     31 H2         85.4061   63.7343   14.8697 H         1 K0I         0.0450
     32 H3         86.6899   64.3354   12.7400 H         1 K0I         0.0540
     33 H4         86.3086   66.0491   13.1202 H         1 K0I         0.0540
     34 H5         84.0356   65.6533   12.6345 H         1 K0I         0.1834
     35 H6         78.5567   64.3223   10.4136 H         1 K0I         0.0839
     36 H7         77.5117   62.2580    9.6178 H         1 K0I         0.0735
     37 H8         78.8248   60.1612    9.6578 H         1 K0I         0.0745
     38 H9         81.1556   60.1990   10.5003 H         1 K0I         0.0751
     39 H10        86.0338   62.5603   12.6904 H         1 K0I         0.0560
     40 H11        83.4976   58.8721   12.1768 H         1 K0I         0.0545
     41 H12        85.1016   58.0833   12.3552 H         1 K0I         0.0545
     42 H13        83.6910   58.9966    9.8328 H         1 K0I         0.0431
     43 H14        84.2016   57.3378   10.2957 H         1 K0I         0.0431
     44 H15        88.3547   59.0552   11.6321 H         1 K0I         0.0431
     45 H16        86.9046   58.0609   12.0003 H         1 K0I         0.0431
     46 H17        86.8161   60.1653   13.2143 H         1 K0I         0.0545
     47 H18        87.0110   61.0905   11.6870 H         1 K0I         0.0545
     48 H19        84.6015   58.2358    7.6885 H         1 K0I         0.0537
     49 H20        86.5410   58.4252    6.1903 H         1 K0I         0.0541
     50 H21        88.7742   58.8557    7.1159 H         1 K0I         0.0541
     51 H22        89.0774   59.0938    9.5446 H         1 K0I         0.0537
@<TRIPOS>BOND
     1    1    2 ar 
     2    2    3 ar 
     3    2    4 1  
     4    4    5 1  
     5    5    6 1  
     6    6    7 1  
     7    7    8 ar 
     8    7   18 ar 
     9    8    9 ar 
    10    9   10 1  
    11    9   16 ar 
    12   10   11 ar 
    13   10   15 ar 
    14   11   12 ar 
    15   12   13 ar 
    16   13   14 ar 
    17   14   15 ar 
    18   16   17 ar 
    19   17   18 ar 
    20   17   19 1  
    21   19   20 1  
    22   19   25 1  
    23   20   21 1  
    24   21   22 1  
    25   22   23 ar 
    26   22   26 ar 
    27   23   24 1  
    28   23   29 ar 
    29   24   25 1  
    30   26   27 ar 
    31   27   28 ar 
    32   28   29 ar 
    33    4   30 1  
    34    4   31 1  
    35    5   32 1  
    36    5   33 1  
    37    6   34 1  
    38   12   35 1  
    39   13   36 1  
    40   14   37 1  
    41   15   38 1  
    42   18   39 1  
    43   20   40 1  
    44   20   41 1  
    45   21   42 1  
    46   21   43 1  
    47   24   44 1  
    48   24   45 1  
    49   25   46 1  
    50   25   47 1  
    51   26   48 1  
    52   27   49 1  
    53   28   50 1  
    54   29   51 1  
@<TRIPOS>SUBSTRUCTURE
     1 K0I         1

