### 
### Created by X-TOOL on Mon Sep 10 21:13:29 2018
### 

@<TRIPOS>MOLECULE
5fqp_ligand
   54    56     1     0     0
SMALL
GAST_HUCK


@<TRIPOS>ATOM
      1 C1         13.2740   23.6510   61.9190 C.3       1 GQD        -0.0197
      2 C2         12.7900   23.8510   63.3500 C.3       1 GQD        -0.0124
      3 C4         13.3520   25.1140   63.9830 C.3       1 GQD         0.0197
      4 C5         14.8110   24.9940   64.3280 C.ar      1 GQD        -0.0365
      5 C6         15.5490   26.1510   64.4580 C.ar      1 GQD        -0.0376
      6 C7         16.8860   26.0710   64.7810 C.ar      1 GQD         0.0744
      7 C8         17.5100   24.8600   64.9720 C.ar      1 GQD        -0.0461
      8 C9         16.7680   23.7040   64.8370 C.ar      1 GQD        -0.0676
      9 C10        15.4200   23.7680   64.5190 C.ar      1 GQD         0.0080
     10 C11        14.6510   22.4870   64.4000 C.3       1 GQD         0.0410
     11 N13        13.1750   22.6830   64.2090 N.4       1 GQD         0.2625
     12 C14        12.4950   21.4070   63.8360 C.3       1 GQD        -0.0262
     13 C15        11.1150   21.2980   64.4580 C.3       1 GQD        -0.0063
     14 C16        10.5370   19.9420   64.1120 C.3       1 GQD        -0.0578
     15 C17        11.1530   21.4480   65.9600 C.3       1 GQD        -0.0578
     16 C18        14.8600   21.6550   65.6330 C.ar      1 GQD         0.0162
     17 C19        14.6220   22.1900   66.8860 C.ar      1 GQD        -0.0497
     18 C20        14.8120   21.4180   68.0150 C.ar      1 GQD        -0.0571
     19 C21        15.2370   20.1090   67.8960 C.ar      1 GQD        -0.0248
     20 C22        15.4740   19.5750   66.6460 C.ar      1 GQD        -0.0571
     21 C23        15.2850   20.3500   65.5180 C.ar      1 GQD        -0.0497
     22 C24        15.4500   19.2650   69.0670 C.2       1 GQD        -0.0505
     23 C25        15.9010   19.8040   70.2030 C.2       1 GQD        -0.0317
     24 C26        16.0680   18.7850   71.3150 C.2       1 GQD         0.0494
     25 O27        15.8560   17.5780   71.0120 O.co2     1 GQD        -0.5646
     26 O28        16.4040   19.2710   72.4300 O.co2     1 GQD        -0.5646
     27 O29        17.6110   27.2290   64.9200 O.3       1 GQD        -0.3390
     28 H1         12.9811   24.5178   61.3084 H         1 GQD         0.0286
     29 H2         12.8207   22.7393   61.5026 H         1 GQD         0.0286
     30 H3         14.3695   23.5516   61.9129 H         1 GQD         0.0286
     31 H4         11.6930   23.9300   63.3296 H         1 GQD         0.0871
     32 H5         12.7894   25.3256   64.9042 H         1 GQD         0.0466
     33 H6         13.2255   25.9475   63.2764 H         1 GQD         0.0466
     34 H7         15.0807   27.1169   64.3072 H         1 GQD         0.0463
     35 H8         18.5634   24.8145   65.2235 H         1 GQD         0.0469
     36 H9         17.2422   22.7399   64.9805 H         1 GQD         0.0518
     37 H10        15.0397   21.9393   63.5288 H         1 GQD         0.1153
     38 H11        12.8218   22.9143   65.1243 H         1 GQD         0.2068
     39 H12        13.1088   20.5625   64.1824 H         1 GQD         0.0817
     40 H13        12.3960   21.3636   62.7413 H         1 GQD         0.0817
     41 H14        10.4735   22.0878   64.0400 H         1 GQD         0.0347
     42 H15         9.5351   19.8464   64.5559 H         1 GQD         0.0234
     43 H16        11.1912   19.1522   64.5098 H         1 GQD         0.0234
     44 H17        10.4647   19.8423   63.0189 H         1 GQD         0.0234
     45 H18        11.5720   22.4313   66.2198 H         1 GQD         0.0234
     46 H19        11.7821   20.6557   66.3918 H         1 GQD         0.0234
     47 H20        10.1326   21.3663   66.3626 H         1 GQD         0.0234
     48 H21        14.2860   23.2162   66.9818 H         1 GQD         0.0571
     49 H22        14.6273   21.8399   68.9963 H         1 GQD         0.0627
     50 H23        15.8082   18.5484   66.5491 H         1 GQD         0.0627
     51 H24        15.4723   19.9286   64.5370 H         1 GQD         0.0571
     52 H25        15.2416   18.1974   69.0150 H         1 GQD         0.0687
     53 H26        16.1253   20.8633   70.3189 H         1 GQD         0.0599
     54 H27        17.9597   27.2790   65.8023 H         1 GQD         0.2458
@<TRIPOS>BOND
     1    1    2 1  
     2    2    3 1  
     3    2   11 1  
     4    3    4 1  
     5    4    5 ar 
     6    4    9 ar 
     7    5    6 ar 
     8    6    7 ar 
     9    6   27 1  
    10    7    8 ar 
    11    8    9 ar 
    12    9   10 1  
    13   10   11 1  
    14   10   16 1  
    15   11   12 1  
    16   12   13 1  
    17   13   14 1  
    18   13   15 1  
    19   16   17 ar 
    20   16   21 ar 
    21   17   18 ar 
    22   18   19 ar 
    23   19   20 ar 
    24   19   22 1  
    25   20   21 ar 
    26   22   23 2  
    27   23   24 1  
    28   24   25 ar 
    29   24   26 ar 
    30    1   28 1  
    31    1   29 1  
    32    1   30 1  
    33    2   31 1  
    34    3   32 1  
    35    3   33 1  
    36    5   34 1  
    37    7   35 1  
    38    8   36 1  
    39   10   37 1  
    40   11   38 1  
    41   12   39 1  
    42   12   40 1  
    43   13   41 1  
    44   14   42 1  
    45   14   43 1  
    46   14   44 1  
    47   15   45 1  
    48   15   46 1  
    49   15   47 1  
    50   17   48 1  
    51   18   49 1  
    52   20   50 1  
    53   21   51 1  
    54   22   52 1  
    55   23   53 1  
    56   27   54 1  
@<TRIPOS>SUBSTRUCTURE
     1 GQD         1

