### 
### Created by X-TOOL on Mon Sep 10 21:13:29 2018
### 

@<TRIPOS>MOLECULE
5fqr_ligand
   51    53     1     0     0
SMALL
GAST_HUCK


@<TRIPOS>ATOM
      1 C1         10.5930   20.6880   63.2660 C.3       1 QHG        -0.0578
      2 C2         11.2440   21.9170   63.8570 C.3       1 QHG        -0.0064
      3 C3         11.2870   21.7600   65.3590 C.3       1 QHG        -0.0578
      4 C4         12.6370   22.0630   63.2600 C.3       1 QHG        -0.0265
      5 N5         13.3150   23.2770   63.7860 N.4       1 QHG         0.2606
      6 C6         13.0260   24.4980   62.9920 C.3       1 QHG        -0.0205
      7 C7         13.5340   25.6940   63.7630 C.3       1 QHG         0.0171
      8 C8         14.9990   25.5260   64.0490 C.ar      1 QHG        -0.0368
      9 C9         15.7690   26.6560   64.2100 C.ar      1 QHG        -0.0376
     10 C10        17.1090   26.5300   64.4970 C.ar      1 QHG         0.0744
     11 C11        17.7050   25.2970   64.6120 C.ar      1 QHG        -0.0461
     12 C12        16.9300   24.1730   64.4480 C.ar      1 QHG        -0.0676
     13 C13        15.5790   24.2790   64.1720 C.ar      1 QHG         0.0080
     14 C14        14.7760   23.0220   64.0190 C.3       1 QHG         0.0408
     15 C15        14.9360   22.1260   65.2150 C.ar      1 QHG         0.0162
     16 C16        14.7190   22.6030   66.4950 C.ar      1 QHG        -0.0497
     17 C17        14.8620   21.7680   67.5880 C.ar      1 QHG        -0.0571
     18 C18        15.2250   20.4460   67.4140 C.ar      1 QHG        -0.0248
     19 C19        15.4370   19.9730   66.1390 C.ar      1 QHG        -0.0571
     20 C20        15.2940   20.8070   65.0480 C.ar      1 QHG        -0.0497
     21 C21        15.3870   19.5140   68.5310 C.2       1 QHG        -0.0505
     22 C22        15.8440   19.9370   69.7130 C.2       1 QHG        -0.0317
     23 C23        15.9490   18.8410   70.7610 C.2       1 QHG         0.0494
     24 O24        16.4510   19.2370   71.8490 O.co2     1 QHG        -0.5646
     25 O25        15.5290   17.6810   70.4490 O.co2     1 QHG        -0.5646
     26 O26        17.8660   27.6590   64.6740 O.3       1 QHG        -0.3390
     27 H1          9.5842   20.5686   63.6881 H         1 QHG         0.0234
     28 H2         11.1981   19.8013   63.5058 H         1 QHG         0.0234
     29 H3         10.5227   20.7995   62.1739 H         1 QHG         0.0234
     30 H4         10.6509   22.8087   63.6059 H         1 QHG         0.0347
     31 H5         11.7586   22.6471   65.8070 H         1 QHG         0.0234
     32 H6         11.8709   20.8644   65.6175 H         1 QHG         0.0234
     33 H7         10.2628   21.6543   65.7461 H         1 QHG         0.0234
     34 H8         12.5535   22.1426   62.1661 H         1 QHG         0.0817
     35 H9         13.2344   21.1763   63.5186 H         1 QHG         0.0817
     36 H10        12.9165   23.4475   64.6960 H         1 QHG         0.2065
     37 H11        11.9415   24.5908   62.8331 H         1 QHG         0.0837
     38 H12        13.5355   24.4386   62.0189 H         1 QHG         0.0837
     39 H13        12.9835   25.7784   64.7116 H         1 QHG         0.0463
     40 H14        13.3799   26.6057   63.1672 H         1 QHG         0.0463
     41 H15        15.3225   27.6388   64.1113 H         1 QHG         0.0463
     42 H16        18.7640   25.2123   64.8275 H         1 QHG         0.0469
     43 H17        17.3833   23.1923   64.5361 H         1 QHG         0.0518
     44 H18        15.1666   22.4898   63.1391 H         1 QHG         0.1152
     45 H19        14.4348   23.6387   66.6424 H         1 QHG         0.0571
     46 H20        14.6884   22.1525   68.5866 H         1 QHG         0.0627
     47 H21        15.7186   18.9369   65.9901 H         1 QHG         0.0627
     48 H22        15.4653   20.4196   64.0502 H         1 QHG         0.0571
     49 H23        15.1321   18.4638   68.3970 H         1 QHG         0.0687
     50 H24        16.1166   20.9731   69.9080 H         1 QHG         0.0599
     51 H25        18.2372   27.6561   65.5485 H         1 QHG         0.2458
@<TRIPOS>BOND
     1    1    2 1  
     2    2    3 1  
     3    2    4 1  
     4    4    5 1  
     5    5    6 1  
     6    5   14 1  
     7    6    7 1  
     8    7    8 1  
     9    8    9 ar 
    10    8   13 ar 
    11    9   10 ar 
    12   10   11 ar 
    13   10   26 1  
    14   11   12 ar 
    15   12   13 ar 
    16   13   14 1  
    17   14   15 1  
    18   15   16 ar 
    19   15   20 ar 
    20   16   17 ar 
    21   17   18 ar 
    22   18   19 ar 
    23   18   21 1  
    24   19   20 ar 
    25   21   22 2  
    26   22   23 1  
    27   23   24 ar 
    28   23   25 ar 
    29    1   27 1  
    30    1   28 1  
    31    1   29 1  
    32    2   30 1  
    33    3   31 1  
    34    3   32 1  
    35    3   33 1  
    36    4   34 1  
    37    4   35 1  
    38    5   36 1  
    39    6   37 1  
    40    6   38 1  
    41    7   39 1  
    42    7   40 1  
    43    9   41 1  
    44   11   42 1  
    45   12   43 1  
    46   14   44 1  
    47   16   45 1  
    48   17   46 1  
    49   19   47 1  
    50   20   48 1  
    51   21   49 1  
    52   22   50 1  
    53   26   51 1  
@<TRIPOS>SUBSTRUCTURE
     1 QHG         1

