### 
### Created by X-TOOL on Mon Sep 10 21:13:28 2018
### 

@<TRIPOS>MOLECULE
5fqs_ligand
   54    56     1     0     0
SMALL
GAST_HUCK


@<TRIPOS>ATOM
      1 C1         11.2460   21.6220   65.8500 C.3       1 J0W        -0.0578
      2 C2         11.1120   21.8060   64.3260 C.3       1 J0W        -0.0063
      3 C3         10.5020   20.5440   63.7220 C.3       1 J0W        -0.0578
      4 C4         12.5180   21.9330   63.6450 C.3       1 J0W        -0.0368
      5 N5         13.2490   23.0800   64.1580 N.4       1 J0W         0.1576
      6 C6         12.8520   24.3070   63.3530 C.3       1 J0W        -0.0262
      7 C7         13.4340   25.5610   64.0310 C.3       1 J0W         0.0305
      8 C8         14.9540   25.3890   64.2950 C.ar      1 J0W        -0.0259
      9 C9         15.6810   26.5630   64.4640 C.ar      1 J0W        -0.0056
     10 C10        17.0290   26.4080   64.7360 C.ar      1 J0W         0.1103
     11 C11        17.6300   25.1880   64.8180 C.ar      1 J0W        -0.0131
     12 C12        16.9290   24.0100   64.6290 C.ar      1 J0W        -0.0576
     13 C13        15.5400   24.1540   64.3550 C.ar      1 J0W        -0.0373
     14 C14        14.7570   22.8710   64.1820 C.3       1 J0W        -0.0283
     15 C15        15.1730   22.2790   62.8110 C.3       1 J0W        -0.0629
     16 C16        15.0080   21.9870   65.3770 C.ar      1 J0W        -0.0390
     17 C17        15.5070   20.7000   65.1960 C.ar      1 J0W        -0.0496
     18 C18        15.6840   19.8930   66.3160 C.ar      1 J0W        -0.0342
     19 C19        15.4080   20.3700   67.5960 C.ar      1 J0W         0.0000
     20 C20        14.9270   21.6340   67.7630 C.ar      1 J0W        -0.0342
     21 C21        14.6950   22.4780   66.6500 C.ar      1 J0W        -0.0496
     22 C22        15.6450   19.4750   68.7900 C.2       1 J0W        -0.0276
     23 C23        15.9680   20.0820   69.9590 C.2       1 J0W        -0.0129
     24 C24        16.1240   18.9800   71.0520 C.2       1 J0W         0.0632
     25 O25        16.4610   19.3630   72.2040 O.co2     1 J0W        -0.5590
     26 O26        15.8180   17.8070   70.6820 O.co2     1 J0W        -0.5590
     27 O27        17.7650   27.5490   64.9670 O.3       1 J0W        -0.3159
     28 H1         10.2452   21.5361   66.2983 H         1 J0W         0.0234
     29 H2         11.7670   22.4903   66.2798 H         1 J0W         0.0234
     30 H3         11.8214   20.7083   66.0599 H         1 J0W         0.0234
     31 H4         10.4932   22.6892   64.1092 H         1 J0W         0.0347
     32 H5         10.4036   20.6691   62.6336 H         1 J0W         0.0234
     33 H6          9.5091   20.3697   64.1622 H         1 J0W         0.0234
     34 H7         11.1536   19.6837   63.9348 H         1 J0W         0.0234
     35 H8         12.3818   22.0505   62.5598 H         1 J0W         0.0818
     36 H9         13.0974   21.0196   63.8451 H         1 J0W         0.0818
     37 H10        12.9572   23.2274   65.1115 H         1 J0W         0.1965
     38 H11        11.7554   24.3839   63.3145 H         1 J0W         0.0847
     39 H12        13.2497   24.2222   62.3310 H         1 J0W         0.0847
     40 H13        12.9180   25.7258   64.9884 H         1 J0W         0.0535
     41 H14        13.2779   26.4307   63.3758 H         1 J0W         0.0535
     42 H15        15.2192   27.5407   64.3872 H         1 J0W         0.0550
     43 H16        18.6903   25.1386   65.0381 H         1 J0W         0.0585
     44 H17        17.4076   23.0390   64.6860 H         1 J0W         0.0742
     45 H18        16.2608   22.1160   62.7969 H         1 J0W         0.0113
     46 H19        14.8969   22.9803   62.0098 H         1 J0W         0.0113
     47 H20        14.6566   21.3206   62.6535 H         1 J0W         0.0113
     48 H21        15.7521   20.3347   64.2053 H         1 J0W         0.0765
     49 H22        16.0421   18.8776   66.1907 H         1 J0W         0.0686
     50 H23        14.7190   21.9986   68.7624 H         1 J0W         0.0686
     51 H24        14.2874   23.4740   66.7798 H         1 J0W         0.0765
     52 H25        15.5603   18.3919   68.7153 H         1 J0W         0.0740
     53 H26        16.0962   21.1530   70.1087 H         1 J0W         0.0776
     54 H27        18.1192   27.5230   65.8481 H         1 J0W         0.2593
@<TRIPOS>BOND
     1    1    2 1  
     2    2    3 1  
     3    2    4 1  
     4    4    5 1  
     5    5    6 1  
     6    5   14 1  
     7    6    7 1  
     8    7    8 1  
     9    8    9 ar 
    10    8   13 ar 
    11    9   10 ar 
    12   10   11 ar 
    13   10   27 1  
    14   11   12 ar 
    15   12   13 ar 
    16   13   14 1  
    17   14   15 1  
    18   14   16 1  
    19   16   17 ar 
    20   16   21 ar 
    21   17   18 ar 
    22   18   19 ar 
    23   19   20 ar 
    24   19   22 1  
    25   20   21 ar 
    26   22   23 2  
    27   23   24 1  
    28   24   25 ar 
    29   24   26 ar 
    30    1   28 1  
    31    1   29 1  
    32    1   30 1  
    33    2   31 1  
    34    3   32 1  
    35    3   33 1  
    36    3   34 1  
    37    4   35 1  
    38    4   36 1  
    39    5   37 1  
    40    6   38 1  
    41    6   39 1  
    42    7   40 1  
    43    7   41 1  
    44    9   42 1  
    45   11   43 1  
    46   12   44 1  
    47   15   45 1  
    48   15   46 1  
    49   15   47 1  
    50   17   48 1  
    51   18   49 1  
    52   20   50 1  
    53   21   51 1  
    54   22   52 1  
    55   23   53 1  
    56   27   54 1  
@<TRIPOS>SUBSTRUCTURE
     1 J0W         1

