### 
### Created by X-TOOL on Mon Sep 10 21:13:28 2018
### 

@<TRIPOS>MOLECULE
5fqt_ligand
   54    56     1     0     0
SMALL
GAST_HUCK


@<TRIPOS>ATOM
      1 C1         14.7780   27.3530   64.4220 C.3       1 7QN        -0.0372
      2 C2         15.5160   26.0770   64.6130 C.ar      1 7QN        -0.0207
      3 C3         16.8430   26.0730   64.9790 C.ar      1 7QN         0.0760
      4 C4         17.4980   24.8820   65.1700 C.ar      1 7QN        -0.0523
      5 C5         16.8160   23.6920   65.0160 C.ar      1 7QN        -0.0743
      6 C6         15.4720   23.6800   64.6530 C.ar      1 7QN         0.0016
      7 C7         14.8160   24.8950   64.4610 C.ar      1 7QN        -0.0349
      8 C8         13.3680   24.9550   64.0470 C.3       1 7QN         0.0144
      9 C9         12.9960   23.6270   63.3520 C.3       1 7QN        -0.0216
     10 N10        13.3140   22.5040   64.2990 N.4       1 7QN         0.2604
     11 C11        14.7730   22.3580   64.5380 C.3       1 7QN         0.0393
     12 C12        14.9820   21.6170   65.8300 C.ar      1 7QN         0.0161
     13 C13        15.4810   20.3300   65.7490 C.ar      1 7QN        -0.0497
     14 C14        15.7110   19.5980   66.9080 C.ar      1 7QN        -0.0571
     15 C15        15.4440   20.1780   68.1350 C.ar      1 7QN        -0.0248
     16 C16        14.9160   21.4430   68.2360 C.ar      1 7QN        -0.0571
     17 C17        14.6700   22.1870   67.0630 C.ar      1 7QN        -0.0497
     18 C18        15.6730   19.3790   69.3670 C.2       1 7QN        -0.0505
     19 C19        16.0370   20.0140   70.4880 C.2       1 7QN        -0.0317
     20 C20        16.1770   19.0140   71.6480 C.2       1 7QN         0.0494
     21 O21        15.7020   17.8690   71.4080 O.co2     1 7QN        -0.5646
     22 O22        16.6420   19.4280   72.7300 O.co2     1 7QN        -0.5646
     23 C23        12.7520   21.1590   63.9770 C.3       1 7QN        -0.0265
     24 C24        11.2570   21.1270   64.3170 C.3       1 7QN        -0.0064
     25 C25        10.9310   21.4250   65.7760 C.3       1 7QN        -0.0578
     26 C26        10.5860   19.8400   63.9060 C.3       1 7QN        -0.0578
     27 O27        17.5450   27.2740   65.1800 O.3       1 7QN        -0.3428
     28 H1         15.4637   28.1995   64.5747 H         1 7QN         0.0351
     29 H2         13.9544   27.4126   65.1487 H         1 7QN         0.0351
     30 H3         14.3698   27.3913   63.4013 H         1 7QN         0.0351
     31 H4         18.5476   24.8760   65.4409 H         1 7QN         0.0451
     32 H5         17.3339   22.7539   65.1799 H         1 7QN         0.0463
     33 H6         13.2167   25.7925   63.3500 H         1 7QN         0.0447
     34 H7         12.7348   25.0980   64.9350 H         1 7QN         0.0447
     35 H8         13.5807   23.5127   62.4273 H         1 7QN         0.0835
     36 H9         11.9228   23.6195   63.1106 H         1 7QN         0.0835
     37 H10        12.8991   22.7742   65.1770 H         1 7QN         0.2065
     38 H11        15.2142   21.7892   63.7062 H         1 7QN         0.1151
     39 H12        15.6930   19.8915   64.7806 H         1 7QN         0.0571
     40 H13        16.0946   18.5858   66.8510 H         1 7QN         0.0627
     41 H14        14.6906   21.8653   69.2086 H         1 7QN         0.0627
     42 H15        14.2463   23.1832   67.1195 H         1 7QN         0.0571
     43 H16        15.5471   18.2973   69.3581 H         1 7QN         0.0687
     44 H17        16.2095   21.0863   70.5672 H         1 7QN         0.0599
     45 H18        13.2772   20.3929   64.5663 H         1 7QN         0.0817
     46 H19        12.8873   20.9536   62.9049 H         1 7QN         0.0817
     47 H20        10.7968   21.9303   63.7230 H         1 7QN         0.0347
     48 H21         9.8421   21.3800   65.9250 H         1 7QN         0.0234
     49 H22        11.2952   22.4300   66.0352 H         1 7QN         0.0234
     50 H23        11.4203   20.6800   66.4206 H         1 7QN         0.0234
     51 H24        10.8207   19.6241   62.8532 H         1 7QN         0.0234
     52 H25         9.4971   19.9396   64.0259 H         1 7QN         0.0234
     53 H26        10.9509   19.0178   64.5390 H         1 7QN         0.0234
     54 H27        17.8549   27.3120   66.0772 H         1 7QN         0.2433
@<TRIPOS>BOND
     1    1    2 1  
     2    2    3 ar 
     3    2    7 ar 
     4    3    4 ar 
     5    3   27 1  
     6    4    5 ar 
     7    5    6 ar 
     8    6    7 ar 
     9    6   11 1  
    10    7    8 1  
    11    8    9 1  
    12    9   10 1  
    13   10   11 1  
    14   10   23 1  
    15   11   12 1  
    16   12   13 ar 
    17   12   17 ar 
    18   13   14 ar 
    19   14   15 ar 
    20   15   16 ar 
    21   15   18 1  
    22   16   17 ar 
    23   18   19 2  
    24   19   20 1  
    25   20   21 ar 
    26   20   22 ar 
    27   23   24 1  
    28   24   25 1  
    29   24   26 1  
    30    1   28 1  
    31    1   29 1  
    32    1   30 1  
    33    4   31 1  
    34    5   32 1  
    35    8   33 1  
    36    8   34 1  
    37    9   35 1  
    38    9   36 1  
    39   10   37 1  
    40   11   38 1  
    41   13   39 1  
    42   14   40 1  
    43   16   41 1  
    44   17   42 1  
    45   18   43 1  
    46   19   44 1  
    47   23   45 1  
    48   23   46 1  
    49   24   47 1  
    50   25   48 1  
    51   25   49 1  
    52   25   50 1  
    53   26   51 1  
    54   26   52 1  
    55   26   53 1  
    56   27   54 1  
@<TRIPOS>SUBSTRUCTURE
     1 7QN         1

