### 
### Created by X-TOOL on Mon Sep 10 21:13:28 2018
### 

@<TRIPOS>MOLECULE
5fqv_ligand
   54    56     1     0     0
SMALL
GAST_HUCK


@<TRIPOS>ATOM
      1 C1         19.0890   25.1160   64.6630 C.3       1 VQI        -0.0376
      2 C2         17.5280   25.3300   64.5350 C.ar      1 VQI        -0.0294
      3 C3         16.8630   24.1570   64.3790 C.ar      1 VQI        -0.0659
      4 C4         15.4450   24.2740   64.1660 C.ar      1 VQI         0.0015
      5 C5         14.8860   25.5040   64.2230 C.ar      1 VQI        -0.0435
      6 C6         15.5650   26.7180   64.3710 C.ar      1 VQI        -0.0437
      7 C7         16.9480   26.5880   64.5940 C.ar      1 VQI         0.0760
      8 O8         17.7130   27.7060   64.7970 O.3       1 VQI        -0.3427
      9 C9         13.3590   25.6900   64.0640 C.3       1 VQI         0.0140
     10 C10        12.8540   24.4930   63.2670 C.3       1 VQI        -0.0214
     11 N11        13.1360   23.2590   64.0390 N.4       1 VQI         0.2605
     12 C12        14.6410   23.0730   64.1130 C.3       1 VQI         0.0393
     13 C13        14.9070   22.1330   65.2420 C.ar      1 VQI         0.0161
     14 C14        14.7310   22.6630   66.5670 C.ar      1 VQI        -0.0497
     15 C15        14.9600   21.8410   67.7180 C.ar      1 VQI        -0.0571
     16 C16        15.3660   20.5290   67.5190 C.ar      1 VQI        -0.0248
     17 C17        15.5360   20.0470   66.1820 C.ar      1 VQI        -0.0571
     18 C18        15.3040   20.8410   65.0140 C.ar      1 VQI        -0.0497
     19 C19        15.5900   19.5220   68.6280 C.2       1 VQI        -0.0505
     20 C20        15.9850   19.9540   69.8420 C.2       1 VQI        -0.0317
     21 C21        16.1560   18.9160   70.9030 C.2       1 VQI         0.0494
     22 O22        15.8860   17.7150   70.6970 O.co2     1 VQI        -0.5646
     23 O23        16.5490   19.3520   72.0840 O.co2     1 VQI        -0.5646
     24 C24        12.5390   22.0310   63.4860 C.3       1 VQI        -0.0265
     25 C25        11.1200   21.7480   64.1860 C.3       1 VQI        -0.0064
     26 C26        11.2150   21.6000   65.7290 C.3       1 VQI        -0.0578
     27 C27        10.4700   20.5010   63.6400 C.3       1 VQI        -0.0578
     28 H1         19.3194   24.0430   64.5877 H         1 VQI         0.0355
     29 H2         19.4329   25.4974   65.6357 H         1 VQI         0.0355
     30 H3         19.6010   25.6585   63.8546 H         1 VQI         0.0355
     31 H4         17.3661   23.1974   64.4126 H         1 VQI         0.0457
     32 H5         15.0668   27.6793   64.3182 H         1 VQI         0.0446
     33 H6         18.6177   27.4492   64.9314 H         1 VQI         0.2434
     34 H7         13.1448   26.6235   63.5230 H         1 VQI         0.0451
     35 H8         12.8755   25.7193   65.0516 H         1 VQI         0.0451
     36 H9         13.3701   24.4493   62.2966 H         1 VQI         0.0836
     37 H10        11.7706   24.5877   63.1022 H         1 VQI         0.0836
     38 H11        12.7723   23.3869   64.9704 H         1 VQI         0.2065
     39 H12        14.9402   22.5628   63.1855 H         1 VQI         0.1152
     40 H13        14.4222   23.6940   66.6963 H         1 VQI         0.0571
     41 H14        14.8197   22.2339   68.7185 H         1 VQI         0.0627
     42 H15        15.8592   19.0212   66.0462 H         1 VQI         0.0627
     43 H16        15.4339   20.4458   64.0130 H         1 VQI         0.0571
     44 H17        15.4335   18.4597   68.4463 H         1 VQI         0.0687
     45 H18        16.1706   21.0086   70.0400 H         1 VQI         0.0599
     46 H19        13.2131   21.1820   63.6724 H         1 VQI         0.0817
     47 H20        12.3932   22.1525   62.4025 H         1 VQI         0.0817
     48 H21        10.4677   22.6056   63.9646 H         1 VQI         0.0347
     49 H22        10.2133   21.4088   66.1413 H         1 VQI         0.0234
     50 H23        11.6190   22.5269   66.1621 H         1 VQI         0.0234
     51 H24        11.8799   20.7594   65.9765 H         1 VQI         0.0234
     52 H25        10.3896   20.5785   62.5457 H         1 VQI         0.0234
     53 H26         9.4655   20.3907   64.0745 H         1 VQI         0.0234
     54 H27        11.0809   19.6244   63.9015 H         1 VQI         0.0234
@<TRIPOS>BOND
     1    1    2 1  
     2    2    3 ar 
     3    2    7 ar 
     4    3    4 ar 
     5    4    5 ar 
     6    4   12 1  
     7    5    6 ar 
     8    5    9 1  
     9    6    7 ar 
    10    7    8 1  
    11    9   10 1  
    12   10   11 1  
    13   11   12 1  
    14   11   24 1  
    15   12   13 1  
    16   13   14 ar 
    17   13   18 ar 
    18   14   15 ar 
    19   15   16 ar 
    20   16   17 ar 
    21   16   19 1  
    22   17   18 ar 
    23   19   20 2  
    24   20   21 1  
    25   21   22 ar 
    26   21   23 ar 
    27   24   25 1  
    28   25   26 1  
    29   25   27 1  
    30    1   28 1  
    31    1   29 1  
    32    1   30 1  
    33    3   31 1  
    34    6   32 1  
    35    8   33 1  
    36    9   34 1  
    37    9   35 1  
    38   10   36 1  
    39   10   37 1  
    40   11   38 1  
    41   12   39 1  
    42   14   40 1  
    43   15   41 1  
    44   17   42 1  
    45   18   43 1  
    46   19   44 1  
    47   20   45 1  
    48   24   46 1  
    49   24   47 1  
    50   25   48 1  
    51   26   49 1  
    52   26   50 1  
    53   26   51 1  
    54   27   52 1  
    55   27   53 1  
    56   27   54 1  
@<TRIPOS>SUBSTRUCTURE
     1 VQI         1

