### 
### Created by X-TOOL on Mon Sep 10 21:13:25 2018
### 

@<TRIPOS>MOLECULE
5fs5_ligand
   45    45     1     0     0
SMALL
GAST_HUCK


@<TRIPOS>ATOM
      1 O6         -7.4090    6.5570    1.9320 O.3       1 KGM        -0.3924
      2 C6         -6.7230    5.3000    1.7920 C.3       1 KGM         0.0730
      3 C5         -6.6370    4.8900    0.3140 C.3       1 KGM         0.1130
      4 C10        -6.9380   -1.5360   -0.4200 C.3       1 KGM        -0.0530
      5 O5         -8.0020    4.7700   -0.1700 O.3       1 KGM        -0.3405
      6 C4         -5.9150    5.9480   -0.5230 C.3       1 KGM         0.1119
      7 O4         -4.5230    6.0520   -0.0800 O.3       1 KGM        -0.3865
      8 C3         -5.9320    5.5010   -1.9790 C.3       1 KGM         0.1141
      9 O3         -5.3140    6.5340   -2.7560 O.3       1 KGM        -0.3864
     10 C2         -7.3730    5.3380   -2.4670 C.3       1 KGM         0.1341
     11 O2         -8.0490    6.5750   -2.3600 O.3       1 KGM        -0.3841
     12 C1         -8.1140    4.3610   -1.5640 C.3       1 KGM         0.1879
     13 O1         -7.4790    3.0680   -1.6350 O.3       1 KGM        -0.3487
     14 C7         -8.1930    2.0590   -0.8820 C.3       1 KGM         0.0508
     15 C8         -7.3300    0.8250   -1.0550 C.3       1 KGM        -0.0294
     16 C9         -7.8790   -0.3460   -0.2340 C.3       1 KGM        -0.0510
     17 C13        -6.6560   -5.0020    1.2280 C.3       1 KGM        -0.0653
     18 C12        -6.3560   -3.8480    0.2930 C.3       1 KGM        -0.0559
     19 C11        -7.3850   -2.7070    0.4630 C.3       1 KGM        -0.0533
     20 H1         -7.4516    6.7925    2.8514 H         1 KGM         0.2095
     21 H2         -7.2701    4.5259    2.3502 H         1 KGM         0.0584
     22 H3         -5.7059    5.3963    2.1997 H         1 KGM         0.0584
     23 H4         -6.1109    3.9282    0.2234 H         1 KGM         0.0647
     24 H5         -5.9166   -1.2389   -0.1399 H         1 KGM         0.0265
     25 H6         -6.9526   -1.8496   -1.4742 H         1 KGM         0.0265
     26 H7         -6.4175    6.9208   -0.4178 H         1 KGM         0.0647
     27 H8         -4.5013    6.3024    0.8362 H         1 KGM         0.2100
     28 H9         -5.3860    4.5527   -2.0911 H         1 KGM         0.0648
     29 H10        -5.3108    6.2810   -3.6717 H         1 KGM         0.2100
     30 H11        -7.3790    4.9823   -3.5079 H         1 KGM         0.0671
     31 H12        -7.6051    7.2243   -2.8927 H         1 KGM         0.2101
     32 H13        -9.1695    4.2976   -1.8671 H         1 KGM         0.0937
     33 H14        -9.1999    1.8975   -1.2944 H         1 KGM         0.0561
     34 H15        -8.2718    2.3400    0.1786 H         1 KGM         0.0561
     35 H16        -6.3070    1.0512   -0.7200 H         1 KGM         0.0287
     36 H17        -7.3138    0.5430   -2.1181 H         1 KGM         0.0287
     37 H18        -7.9234   -0.0679    0.8293 H         1 KGM         0.0266
     38 H19        -8.8872   -0.6088   -0.5867 H         1 KGM         0.0266
     39 H20        -5.9080   -5.7954    1.0830 H         1 KGM         0.0230
     40 H21        -7.6585   -5.3991    1.0105 H         1 KGM         0.0230
     41 H22        -6.6192   -4.6494    2.2693 H         1 KGM         0.0230
     42 H23        -6.3899   -4.2096   -0.7453 H         1 KGM         0.0263
     43 H24        -5.3506   -3.4599    0.5135 H         1 KGM         0.0263
     44 H25        -8.3814   -3.0523    0.1501 H         1 KGM         0.0265
     45 H26        -7.4208   -2.3894    1.5155 H         1 KGM         0.0265
@<TRIPOS>BOND
     1    2    1 1  
     2    3    2 1  
     3    5    3 1  
     4    3    6 1  
     5    4   16 1  
     6   19    4 1  
     7   12    5 1  
     8    6    7 1  
     9    8    6 1  
    10    8    9 1  
    11   10    8 1  
    12   10   11 1  
    13   12   10 1  
    14   13   12 1  
    15   14   13 1  
    16   15   14 1  
    17   16   15 1  
    18   18   17 1  
    19   18   19 1  
    20    1   20 1  
    21    2   21 1  
    22    2   22 1  
    23    3   23 1  
    24    4   24 1  
    25    4   25 1  
    26    6   26 1  
    27    7   27 1  
    28    8   28 1  
    29    9   29 1  
    30   10   30 1  
    31   11   31 1  
    32   12   32 1  
    33   14   33 1  
    34   14   34 1  
    35   15   35 1  
    36   15   36 1  
    37   16   37 1  
    38   16   38 1  
    39   17   39 1  
    40   17   40 1  
    41   17   41 1  
    42   18   42 1  
    43   18   43 1  
    44   19   44 1  
    45   19   45 1  
@<TRIPOS>SUBSTRUCTURE
     1 KGM         1

