### 
### Created by X-TOOL on Wed Jan  1 15:39:34 2020
### 

@<TRIPOS>MOLECULE
5fsc_ligand
   34    34     1     0     0
SMALL
GAST_HUCK


@<TRIPOS>ATOM
      1 O6        -25.9090  -14.1090   23.3250 O.3       1 G8Z        -0.3924
      2 C6        -25.6160  -14.5800   24.5950 C.3       1 G8Z         0.0730
      3 C5        -26.8700  -14.9740   25.4190 C.3       1 G8Z         0.1133
      4 C4        -26.6030  -15.2280   26.9540 C.3       1 G8Z         0.1150
      5 O4        -26.3210  -14.0140   27.6120 O.3       1 G8Z        -0.3745
      6 C7        -25.0140  -13.9710   28.0820 C.3       1 G8Z         0.0370
      7 C3        -27.7210  -15.9010   27.7460 C.3       1 G8Z         0.1143
      8 O3        -27.3030  -16.2610   29.0380 O.3       1 G8Z        -0.3864
      9 C2        -28.2150  -17.1430   26.9410 C.3       1 G8Z         0.1343
     10 O2        -27.2820  -18.1840   26.9880 O.3       1 G8Z        -0.3841
     11 O5        -27.4730  -16.1230   24.8070 O.3       1 G8Z        -0.3404
     12 C1        -28.5760  -16.6690   25.4980 C.3       1 G8Z         0.1904
     13 O1        -29.5830  -15.7820   25.6830 O.3       1 G8Z        -0.3347
     14 C8        -30.0290  -14.9670   24.6350 C.3       1 G8Z         0.0793
     15 C9        -30.5620  -13.6390   25.2140 C.2       1 G8Z        -0.0637
     16 C10       -31.0510  -13.4160   26.4810 C.2       1 G8Z        -0.1153
     17 H1        -25.1014  -13.8870   22.8767 H         1 G8Z         0.2095
     18 H2        -25.0750  -13.7931   25.1410 H         1 G8Z         0.0584
     19 H3        -24.9725  -15.4667   24.4966 H         1 G8Z         0.0584
     20 H4        -27.5817  -14.1379   25.3529 H         1 G8Z         0.0647
     21 H5        -25.7177  -15.8778   27.0170 H         1 G8Z         0.0649
     22 H6        -24.8374  -13.0098   28.5869 H         1 G8Z         0.0524
     23 H7        -24.3170  -14.0750   27.2374 H         1 G8Z         0.0524
     24 H8        -24.8530  -14.7941   28.7938 H         1 G8Z         0.0524
     25 H9        -28.5557  -15.1915   27.8450 H         1 G8Z         0.0648
     26 H10       -27.0299  -15.4828   29.5096 H         1 G8Z         0.2100
     27 H11       -29.1372  -17.5149   27.4113 H         1 G8Z         0.0671
     28 H12       -26.4603  -17.8884   26.6140 H         1 G8Z         0.2101
     29 H13       -28.9460  -17.5243   24.9135 H         1 G8Z         0.0939
     30 H14       -30.8344  -15.4791   24.0882 H         1 G8Z         0.0742
     31 H15       -29.1942  -14.7602   23.9493 H         1 G8Z         0.0742
     32 H16       -30.5497  -12.7809   24.5436 H         1 G8Z         0.0695
     33 H17       -31.3982  -12.4233   26.7637 H         1 G8Z         0.0290
     34 H18       -31.0908  -14.2322   27.2008 H         1 G8Z         0.0290
@<TRIPOS>BOND
     1    1    2 1  
     2    2    3 1  
     3    3    4 1  
     4    3   11 1  
     5    4    5 1  
     6    4    7 1  
     7    5    6 1  
     8    7    8 1  
     9    7    9 1  
    10    9   10 1  
    11    9   12 1  
    12   11   12 1  
    13   12   13 1  
    14   13   14 1  
    15   14   15 1  
    16   15   16 2  
    17    1   17 1  
    18    2   18 1  
    19    2   19 1  
    20    3   20 1  
    21    4   21 1  
    22    6   22 1  
    23    6   23 1  
    24    6   24 1  
    25    7   25 1  
    26    8   26 1  
    27    9   27 1  
    28   10   28 1  
    29   12   29 1  
    30   14   30 1  
    31   14   31 1  
    32   15   32 1  
    33   16   33 1  
    34   16   34 1  
@<TRIPOS>SUBSTRUCTURE
     1 G8Z         1

