### 
### Created by X-TOOL on Mon Sep 10 21:13:29 2018
### 

@<TRIPOS>MOLECULE
5fsl_ligand
   23    24     1     0     0
SMALL
GAST_HUCK


@<TRIPOS>ATOM
      1 O          17.4620   19.5730    6.1990 O.2       1 UAN        -0.3594
      2 C2         17.0380   20.1520    5.1830 C.2       1 UAN         0.2628
      3 N1         17.8180   21.0510    4.4630 N.am      1 UAN        -0.2476
      4 C3         15.7010   20.0070    4.6120 C.2       1 UAN         0.2557
      5 N4         14.6750   19.1270    4.9140 N.2       1 UAN        -0.1931
      6 C5         13.7420   19.4290    4.0360 C.2       1 UAN         0.1821
      7 N3         14.1480   20.3200    3.0970 N.pl3     1 UAN        -0.1302
      8 C6         13.3760   20.7410    1.9270 C.3       1 UAN         0.0723
      9 C4         15.3960   20.7310    3.4730 C.2       1 UAN         0.3241
     10 N2         16.1930   21.5770    2.7980 N.pl3     1 UAN        -0.1901
     11 C1         17.3800   21.7330    3.3560 C.cat     1 UAN         0.2063
     12 N          18.2760   22.4970    2.7340 N.pl3     1 UAN        -0.3224
     13 C          17.9760   23.3280    1.5800 C.3       1 UAN         0.0128
     14 H1         18.7559   21.2100    4.7713 H         1 UAN         0.1819
     15 H2         12.7396   19.0041    4.0610 H         1 UAN         0.1822
     16 H3         12.4082   20.2182    1.9188 H         1 UAN         0.0605
     17 H4         13.9337   20.4944    1.0115 H         1 UAN         0.0605
     18 H5         13.2057   21.8268    1.9713 H         1 UAN         0.0605
     19 H6         15.9068   22.0558    1.9321 H         1 UAN         0.2519
     20 H7         19.2414   22.4991    3.0930 H         1 UAN         0.1803
     21 H8         18.8873   23.8550    1.2608 H         1 UAN         0.0496
     22 H9         17.2026   24.0627    1.8483 H         1 UAN         0.0496
     23 H10        17.6112   22.6953    0.7574 H         1 UAN         0.0496
@<TRIPOS>BOND
     1    1    2 2  
     2    2    3 am 
     3    2    4 1  
     4    3   11 ar 
     5    4    5 1  
     6    4    9 2  
     7    5    6 2  
     8    6    7 1  
     9    7    8 1  
    10    7    9 1  
    11    9   10 1  
    12   10   11 ar 
    13   11   12 ar 
    14   12   13 1  
    15    3   14 1  
    16    6   15 1  
    17    8   16 1  
    18    8   17 1  
    19    8   18 1  
    20   10   19 1  
    21   12   20 1  
    22   13   21 1  
    23   13   22 1  
    24   13   23 1  
@<TRIPOS>SUBSTRUCTURE
     1 UAN         1

