### 
### Created by X-TOOL on Mon Sep 10 21:13:27 2018
### 

@<TRIPOS>MOLECULE
5fsm_ligand
   25    26     1     0     0
SMALL
GAST_HUCK


@<TRIPOS>ATOM
      1 O10        15.2040   17.5980    6.6480 O.2       1 N91        -0.3865
      2 C10        16.3180   17.8300    7.0980 C.2       1 N91         0.1978
      3 C11        16.9230   16.9750    8.1710 C.3       1 N91         0.0311
      4 N5         17.0900   18.8870    6.6870 N.am      1 N91        -0.2409
      5 C5         16.8830   19.7510    5.5790 C.ar      1 N91         0.0517
      6 C4         17.9940   20.4070    5.0400 C.ar      1 N91        -0.0431
      7 C9         17.8110   21.3010    3.9860 C.ar      1 N91         0.0191
      8 N3         18.7360   22.0210    3.2340 N.2       1 N91        -0.3122
      9 C2         18.0050   22.6760    2.3680 C.2       1 N91         0.1022
     10 N1         16.6820   22.3850    2.4250 N.pl3     1 N91        -0.2461
     11 C1         15.6170   22.9500    1.6050 C.3       1 N91         0.0446
     12 C8         16.5270   21.5280    3.4950 C.ar      1 N91         0.0732
     13 C7         15.4110   20.8790    4.0120 C.ar      1 N91        -0.0482
     14 C6         15.5940   20.0380    5.1010 C.ar      1 N91        -0.0504
     15 H1         17.9218   17.3588    8.4260 H         1 N91         0.0471
     16 H2         17.0093   15.9396    7.8097 H         1 N91         0.0471
     17 H3         16.2818   16.9994    9.0644 H         1 N91         0.0471
     18 H4         17.9031   19.0730    7.2386 H         1 N91         0.2221
     19 H5         18.9857   20.2226    5.4369 H         1 N91         0.0409
     20 H6         18.4233   23.3927    1.6628 H         1 N91         0.1343
     21 H7         16.0547   23.5961    0.8298 H         1 N91         0.0568
     22 H8         14.9419   23.5437    2.2388 H         1 N91         0.0568
     23 H9         15.0510   22.1365    1.1276 H         1 N91         0.0568
     24 H10        14.4285   21.0254    3.5779 H         1 N91         0.0526
     25 H11        14.7317   19.5975    5.5883 H         1 N91         0.0463
@<TRIPOS>BOND
     1    1    2 2  
     2    2    3 1  
     3    2    4 am 
     4    4    5 1  
     5    5    6 ar 
     6    5   14 ar 
     7    6    7 ar 
     8    7    8 1  
     9    7   12 ar 
    10    8    9 2  
    11    9   10 1  
    12   10   11 1  
    13   10   12 1  
    14   12   13 ar 
    15   13   14 ar 
    16    3   15 1  
    17    3   16 1  
    18    3   17 1  
    19    4   18 1  
    20    6   19 1  
    21    9   20 1  
    22   11   21 1  
    23   11   22 1  
    24   11   23 1  
    25   13   24 1  
    26   14   25 1  
@<TRIPOS>SUBSTRUCTURE
     1 N91         1

