### 
### Created by X-TOOL on Mon Sep 10 21:13:28 2018
### 

@<TRIPOS>MOLECULE
5fsn_ligand
   26    26     1     0     0
SMALL
GAST_HUCK


@<TRIPOS>ATOM
      1 N3         15.8790   21.6550    4.7830 N.ar      1 6Q3        -0.2395
      2 C2         17.1840   21.3420    4.6340 C.ar      1 6Q3         0.1654
      3 N2         17.6910   20.4230    5.4540 N.pl3     1 6Q3        -0.3073
      4 N1         18.0160   21.8760    3.7160 N.ar      1 6Q3        -0.2719
      5 C6         17.5030   22.8020    2.8920 C.ar      1 6Q3         0.0161
      6 C7         18.4350   23.3880    1.8770 C.3       1 6Q3        -0.0160
      7 C4         15.4140   22.5830    3.9570 C.ar      1 6Q3         0.1586
      8 C5         16.1800   23.1950    2.9810 C.ar      1 6Q3         0.0043
      9 O1'        10.3200   21.6220    4.5260 O.3       1 6Q3        -0.3949
     10 C1'        10.8800   22.3540    5.5850 C.3       1 6Q3         0.0467
     11 C2'        11.9630   23.1580    4.9780 C.3       1 6Q3        -0.0009
     12 C3'        13.2680   22.3990    5.0100 C.3       1 6Q3         0.0784
     13 O3'        14.1200   22.9930    4.0210 O.3       1 6Q3        -0.2961
     14 H1         17.0939   19.9871    6.1712 H         1 6Q3         0.1824
     15 H2         18.6802   20.1482    5.3709 H         1 6Q3         0.1824
     16 H3         17.8956   24.1288    1.2685 H         1 6Q3         0.0438
     17 H4         18.8184   22.5882    1.2263 H         1 6Q3         0.0438
     18 H5         19.2756   23.8775    2.3905 H         1 6Q3         0.0438
     19 H6         15.7638   23.9455    2.3187 H         1 6Q3         0.0522
     20 H7          9.6121   21.0811    4.8559 H         1 6Q3         0.2094
     21 H8         11.2867   21.6753    6.3491 H         1 6Q3         0.0558
     22 H9         10.1239   23.0095    6.0418 H         1 6Q3         0.0558
     23 H10        12.0763   24.0962    5.5410 H         1 6Q3         0.0314
     24 H11        11.7027   23.3861    3.9339 H         1 6Q3         0.0314
     25 H12        13.0950   21.3390    4.7727 H         1 6Q3         0.0625
     26 H13        13.7292   22.4814    6.0052 H         1 6Q3         0.0625
@<TRIPOS>BOND
     1    1    2 ar 
     2    7    1 ar 
     3    2    3 1  
     4    2    4 ar 
     5    5    4 ar 
     6    5    6 1  
     7    8    5 ar 
     8    7    8 ar 
     9   13    7 1  
    10   10    9 1  
    11   11   10 1  
    12   12   11 1  
    13   12   13 1  
    14    3   14 1  
    15    3   15 1  
    16    6   16 1  
    17    6   17 1  
    18    6   18 1  
    19    8   19 1  
    20    9   20 1  
    21   10   21 1  
    22   10   22 1  
    23   11   23 1  
    24   11   24 1  
    25   12   25 1  
    26   12   26 1  
@<TRIPOS>SUBSTRUCTURE
     1 6Q3         1

