### 
### Created by X-TOOL on Mon Sep 10 21:13:32 2018
### 

@<TRIPOS>MOLECULE
5fso_ligand
   17    17     1     0     0
SMALL
GAST_HUCK


@<TRIPOS>ATOM
      1 O2         17.5280   19.5050    6.4790 O.2       1 S76        -0.3763
      2 C2         17.0750   20.1480    5.5390 C.2       1 S76         0.3326
      3 N3         15.7380   20.1230    5.2200 N.am      1 S76        -0.1746
      4 C4         15.1180   20.8570    4.2190 C.2       1 S76         0.2277
      5 O4         13.9130   20.6500    3.9830 O.2       1 S76        -0.3824
      6 C5         15.9790   21.7100    3.4550 C.3       1 S76         0.1269
      7 N1         17.8490   21.0340    4.8300 N.am      1 S76        -0.1782
      8 C6         17.3110   21.8100    3.7680 C.2       1 S76         0.1376
      9 N6         18.2000   22.5300    3.0470 N.2       1 S76        -0.3804
     10 C7         17.8320   23.3930    1.9380 C.3       1 S76        -0.0408
     11 H1         15.1558   19.5170    5.7620 H         1 S76         0.2271
     12 H2         15.5611   22.7251    3.5249 H         1 S76         0.0794
     13 H3         15.9247   21.3621    2.4129 H         1 S76         0.0794
     14 H4         18.8152   21.1355    5.0671 H         1 S76         0.2452
     15 H5         18.7361   23.8626    1.5232 H         1 S76         0.0256
     16 H6         17.1436   24.1738    2.2937 H         1 S76         0.0256
     17 H7         17.3377   22.7962    1.1573 H         1 S76         0.0256
@<TRIPOS>BOND
     1    1    2 2  
     2    2    3 am 
     3    2    7 am 
     4    3    4 am 
     5    4    5 2  
     6    4    6 1  
     7    6    8 1  
     8    7    8 1  
     9    8    9 2  
    10    9   10 1  
    11    3   11 1  
    12    6   12 1  
    13    6   13 1  
    14    7   14 1  
    15   10   15 1  
    16   10   16 1  
    17   10   17 1  
@<TRIPOS>SUBSTRUCTURE
     1 S76         1

