### 
### Created by X-TOOL on Mon Sep 10 21:13:27 2018
### 

@<TRIPOS>MOLECULE
5ftg_ligand
   73    76     1     0     0
SMALL
GAST_HUCK


@<TRIPOS>ATOM
      1 CAQ       -11.0730   -0.5400   -3.4250 C.3       1 NBR         0.0110
      2 NAP       -12.5150   -0.5660   -3.7510 N.pl3     1 NBR        -0.3315
      3 CAT       -13.0550   -1.3030   -4.9150 C.3       1 NBR         0.0110
      4 CAM       -13.3820    0.2020   -3.0680 C.2       1 NBR        -0.0083
      5 CAN       -13.2780    1.5990   -3.1600 C.2       1 NBR        -0.0804
      6 CAO       -14.1890    2.4260   -2.5040 C.3       1 NBR         0.0358
      7 CAL       -14.4160   -0.3790   -2.3240 C.2       1 NBR        -0.0503
      8 CAK       -15.3260    0.4380   -1.6520 C.2       1 NBR         0.0109
      9 NAJ       -15.1970    1.8420   -1.7190 N.pl3     1 NBR        -0.2951
     10 CAA       -16.1690    2.7120   -1.0780 C.3       1 NBR         0.0611
     11 CAU       -15.7140    3.7200   -0.1880 C.ar      1 NBR        -0.0307
     12 CAZ       -14.6260    3.5320    0.6480 C.ar      1 NBR        -0.0667
     13 CAY       -14.2620    4.5230    1.5760 C.ar      1 NBR        -0.0395
     14 CAV       -16.4300    4.8950   -0.1310 C.ar      1 NBR        -0.0667
     15 CAW       -16.0500    5.9010    0.7680 C.ar      1 NBR        -0.0395
     16 CAX       -14.9650    5.7130    1.6320 C.ar      1 NBR         0.0842
     17 OBA       -14.5260    6.7120    2.5580 O.3       1 NBR        -0.3198
     18 CBB       -15.2820    7.8960    2.6070 C.3       1 NBR         0.0963
     19 CBC       -15.0270    8.5170    3.9890 C.3       1 NBR         0.0963
     20 OBD       -15.6130    7.6060    4.9940 O.3       1 NBR        -0.3198
     21 CBE       -15.6780    8.2070    6.2800 C.ar      1 NBR         0.0842
     22 CBJ       -15.3060    9.5020    6.5270 C.ar      1 NBR        -0.0395
     23 CBI       -15.4650    9.9800    7.8210 C.ar      1 NBR        -0.0655
     24 CBF       -16.2370    7.4000    7.2380 C.ar      1 NBR        -0.0395
     25 CBG       -16.4030    7.8920    8.5730 C.ar      1 NBR        -0.0655
     26 CBH       -16.0250    9.1880    8.8320 C.ar      1 NBR        -0.0166
     27 CAB       -16.1730    9.8040   10.1830 C.3       1 NBR         0.1148
     28 NAC       -17.3320   10.7050   10.0840 N.pl3     1 NBR        -0.1743
     29 CAD       -18.6380   10.2370    9.8660 C.2       1 NBR         0.1327
     30 CAE       -19.7120   11.0490    9.6900 C.2       1 NBR         0.0577
     31 CAF       -19.6090   12.4580    9.6580 C.2       1 NBR         0.0998
     32 NAI       -20.6250   13.2910    9.4350 N.2       1 NBR        -0.3556
     33 CAS       -20.4990   14.7050    9.3990 C.3       1 NBR         0.0124
     34 CAR       -21.9770   12.7560    9.0650 C.3       1 NBR         0.0124
     35 CAG       -18.3110   12.9190    9.9520 C.2       1 NBR         0.0577
     36 CAH       -17.2730   12.1060   10.1290 C.2       1 NBR         0.1327
     37 H1        -10.5343   -1.2314   -4.0897 H         1 NBR         0.0470
     38 H2        -10.9278   -0.8489   -2.3793 H         1 NBR         0.0470
     39 H3        -10.6840    0.4795   -3.5636 H         1 NBR         0.0470
     40 H4        -14.1471   -1.1775   -4.9539 H         1 NBR         0.0470
     41 H5        -12.8120   -2.3714   -4.8175 H         1 NBR         0.0470
     42 H6        -12.6074   -0.9080   -5.8389 H         1 NBR         0.0470
     43 H7        -12.4770    2.0416   -3.7502 H         1 NBR         0.0170
     44 H8        -14.6902    3.0291   -3.2754 H         1 NBR         0.0593
     45 H9        -13.6075    3.0856   -1.8431 H         1 NBR         0.0593
     46 H10       -14.5096   -1.4626   -2.2700 H         1 NBR         0.0279
     47 H11       -16.1356   -0.0076   -1.0759 H         1 NBR         0.0991
     48 H12       -16.8532    2.0655   -0.5089 H         1 NBR         0.0674
     49 H13       -16.7255    3.2187   -1.8802 H         1 NBR         0.0674
     50 H14       -14.0515    2.6148    0.5863 H         1 NBR         0.0531
     51 H15       -13.4290    4.3544    2.2489 H         1 NBR         0.0525
     52 H16       -17.2857    5.0416   -0.7801 H         1 NBR         0.0531
     53 H17       -16.6018    6.8337    0.7944 H         1 NBR         0.0525
     54 H18       -16.3514    7.6699    2.4831 H         1 NBR         0.0638
     55 H19       -14.9589    8.5867    1.8142 H         1 NBR         0.0638
     56 H20       -15.5059    9.5053    4.0520 H         1 NBR         0.0638
     57 H21       -13.9456    8.6219    4.1610 H         1 NBR         0.0638
     58 H22       -14.9024   10.1304    5.7413 H         1 NBR         0.0525
     59 H23       -15.1483   10.9901    8.0545 H         1 NBR         0.0531
     60 H24       -16.5519    6.3939    6.9858 H         1 NBR         0.0525
     61 H25       -16.8136    7.2624    9.3541 H         1 NBR         0.0531
     62 H26       -15.2681   10.3706   10.4476 H         1 NBR         0.0843
     63 H27       -16.3542    9.0277   10.9409 H         1 NBR         0.0843
     64 H28       -18.7987    9.1603    9.8364 H         1 NBR         0.1544
     65 H29       -20.6944   10.5951    9.5683 H         1 NBR         0.0921
     66 H30       -21.4821   15.1557    9.1981 H         1 NBR         0.0459
     67 H31       -19.7954   14.9903    8.6031 H         1 NBR         0.0459
     68 H32       -20.1220   15.0643   10.3679 H         1 NBR         0.0459
     69 H33       -21.9657   11.6577    9.1251 H         1 NBR         0.0459
     70 H34       -22.2252   13.0645    8.0387 H         1 NBR         0.0459
     71 H35       -22.7314   13.1534    9.7599 H         1 NBR         0.0459
     72 H36       -18.1494   13.9925   10.0386 H         1 NBR         0.0921
     73 H37       -16.3037   12.5627   10.3236 H         1 NBR         0.1544
@<TRIPOS>BOND
     1    1    2 1  
     2    2    3 1  
     3    2    4 1  
     4    4    5 2  
     5    4    7 1  
     6    5    6 1  
     7    6    9 1  
     8    7    8 2  
     9    8    9 1  
    10    9   10 1  
    11   10   11 1  
    12   11   12 ar 
    13   11   14 ar 
    14   12   13 ar 
    15   13   16 ar 
    16   14   15 ar 
    17   15   16 ar 
    18   16   17 1  
    19   17   18 1  
    20   18   19 1  
    21   19   20 1  
    22   20   21 1  
    23   21   22 ar 
    24   21   24 ar 
    25   22   23 ar 
    26   23   26 ar 
    27   24   25 ar 
    28   25   26 ar 
    29   26   27 1  
    30   27   28 1  
    31   28   29 1  
    32   28   36 1  
    33   29   30 2  
    34   30   31 1  
    35   31   32 2  
    36   31   35 1  
    37   32   33 1  
    38   32   34 1  
    39   35   36 2  
    40    1   37 1  
    41    1   38 1  
    42    1   39 1  
    43    3   40 1  
    44    3   41 1  
    45    3   42 1  
    46    5   43 1  
    47    6   44 1  
    48    6   45 1  
    49    7   46 1  
    50    8   47 1  
    51   10   48 1  
    52   10   49 1  
    53   12   50 1  
    54   13   51 1  
    55   14   52 1  
    56   15   53 1  
    57   18   54 1  
    58   18   55 1  
    59   19   56 1  
    60   19   57 1  
    61   22   58 1  
    62   23   59 1  
    63   24   60 1  
    64   25   61 1  
    65   27   62 1  
    66   27   63 1  
    67   29   64 1  
    68   30   65 1  
    69   33   66 1  
    70   33   67 1  
    71   33   68 1  
    72   34   69 1  
    73   34   70 1  
    74   34   71 1  
    75   35   72 1  
    76   36   73 1  
@<TRIPOS>SUBSTRUCTURE
     1 NBR         1

