### 
### Created by X-TOOL on Mon Sep 10 21:13:28 2018
### 

@<TRIPOS>MOLECULE
5fto_ligand
   76    81     1     0     0
SMALL
GAST_HUCK


@<TRIPOS>ATOM
      1 C24         6.3460   21.1770    5.9830 C.3       1 YMX        -0.0067
      2 C25         7.3180   22.0380    5.2980 C.3       1 YMX         0.0497
      3 O26         7.8250   21.3710    4.2860 O.3       1 YMX        -0.3796
      4 C27         6.7790   21.2680    3.3800 C.3       1 YMX         0.0497
      5 C28         5.5820   20.5060    3.9400 C.3       1 YMX        -0.0067
      6 C23         5.1580   21.1130    5.1770 C.3       1 YMX         0.0405
      7 N22         4.2670   20.2140    5.8200 N.pl3     1 YMX        -0.3178
      8 C21         3.1010   20.5610    6.2800 C.ar      1 YMX         0.0485
      9 C20         2.5960   21.8000    5.9720 C.ar      1 YMX        -0.0217
     10 C12         1.3890   22.1820    6.4510 C.ar      1 YMX         0.0338
     11 N13         0.8510   23.3330    6.1700 N.pl3     1 YMX        -0.2983
     12 C14         1.5940   24.1010    5.2140 C.3       1 YMX         0.0678
     13 C15         0.8760   25.3600    4.8490 C.3       1 YMX        -0.0118
     14 N16         0.6420   26.1370    6.0190 N.4       1 YMX         0.2359
     15 C17        -0.1700   27.2740    5.7900 C.3       1 YMX        -0.0430
     16 C18        -0.1460   25.2950    6.8370 C.3       1 YMX        -0.0118
     17 C19         0.7020   24.1860    7.2920 C.3       1 YMX         0.0678
     18 C11         0.6720   21.2930    7.2000 C.ar      1 YMX        -0.0507
     19 C10         1.1850   20.0760    7.4740 C.ar      1 YMX        -0.0627
     20 C9          2.4060   19.6360    7.0630 C.ar      1 YMX         0.0666
     21 C7          2.8560   18.3400    7.4050 C.2       1 YMX         0.2469
     22 O8          3.5180   17.6980    6.6390 O.2       1 YMX        -0.3716
     23 N6          2.4030   17.8640    8.5610 N.am      1 YMX        -0.1589
     24 C5          2.7870   16.7200    9.1330 C.2       1 YMX         0.2644
     25 C29         3.9350   16.0200    9.2140 C.ar      1 YMX         0.0708
     26 C30         5.1270   16.1650    8.6720 C.ar      1 YMX        -0.0360
     27 N4          1.9410   16.1260    9.8860 N.pl3     1 YMX        -0.2603
     28 N3          2.5000   15.0650   10.3800 N.2       1 YMX        -0.4551
     29 C2          3.7160   14.9800    9.9980 C.ar      1 YMX        -0.0641
     30 C1          4.6530   14.0770   10.2440 C.ar      1 YMX        -0.0734
     31 C41         5.9120   14.2030    9.7150 C.ar      1 YMX        -0.0589
     32 C31         6.1570   15.2820    8.8970 C.ar      1 YMX        -0.0305
     33 C32         7.4130   15.4740    8.3560 C.3       1 YMX         0.0122
     34 C33         8.0220   16.6180    8.9000 C.ar      1 YMX        -0.0357
     35 C34         8.1680   17.7680    8.1480 C.ar      1 YMX        -0.0291
     36 C35         8.7690   18.8900    8.7000 C.ar      1 YMX         0.1245
     37 F36         8.8610   19.7550    8.1050 F         1 YMX        -0.1863
     38 C37         9.2290   18.8620   10.0110 C.ar      1 YMX        -0.0017
     39 C38         9.1080   17.7320   10.7950 C.ar      1 YMX         0.1245
     40 F39         9.4480   17.6910   11.7660 F         1 YMX        -0.1863
     41 C40         8.4940   16.6510   10.2140 C.ar      1 YMX        -0.0291
     42 H1          6.1045   21.5993    6.9696 H         1 YMX         0.0309
     43 H2          6.7656   20.1680    6.1087 H         1 YMX         0.0309
     44 H3          8.1203   22.3201    5.9957 H         1 YMX         0.0560
     45 H4          6.8159   22.9451    4.9303 H         1 YMX         0.0560
     46 H5          7.1412   20.7431    2.4838 H         1 YMX         0.0560
     47 H6          6.4522   22.2815    3.1044 H         1 YMX         0.0560
     48 H7          5.8677   19.4599    4.1246 H         1 YMX         0.0309
     49 H8          4.7557   20.5379    3.2146 H         1 YMX         0.0309
     50 H9          4.7013   22.1016    5.0219 H         1 YMX         0.0552
     51 H10         4.5602   19.2326    5.9282 H         1 YMX         0.1782
     52 H11         3.1658   22.4745    5.3432 H         1 YMX         0.0418
     53 H12         1.7411   23.4971    4.3065 H         1 YMX         0.0569
     54 H13         2.5724   24.3593    5.6452 H         1 YMX         0.0569
     55 H14        -0.0862   25.1088    4.3788 H         1 YMX         0.0834
     56 H15         1.4893   25.9388    4.1427 H         1 YMX         0.0834
     57 H16         1.5117   26.4009    6.4549 H         1 YMX         0.2032
     58 H17        -0.3069   27.8228    6.7335 H         1 YMX         0.0778
     59 H18        -1.1500   26.9536    5.4067 H         1 YMX         0.0778
     60 H19         0.3160   27.9291    5.0520 H         1 YMX         0.0778
     61 H20        -0.9965   24.9028    6.2601 H         1 YMX         0.0834
     62 H21        -0.5200   25.8595    7.7039 H         1 YMX         0.0834
     63 H22         1.6819   24.5623    7.6208 H         1 YMX         0.0569
     64 H23         0.2186   23.6485    8.1211 H         1 YMX         0.0569
     65 H24        -0.3084   21.5652    7.5739 H         1 YMX         0.0429
     66 H25         0.5802   19.3980    8.0653 H         1 YMX         0.0605
     67 H26         1.7167   18.4088    9.0428 H         1 YMX         0.2683
     68 H27         5.3030   17.0147    8.0224 H         1 YMX         0.0577
     69 H28         0.9767   16.4381   10.0695 H         1 YMX         0.2460
     70 H29         4.4213   13.2252   10.8731 H         1 YMX         0.0594
     71 H30         6.6873   13.4777    9.9337 H         1 YMX         0.0560
     72 H31         7.3213   15.5979    7.2669 H         1 YMX         0.0582
     73 H32         8.0376   14.5951    8.5738 H         1 YMX         0.0582
     74 H33         7.8121   17.7936    7.1244 H         1 YMX         0.0512
     75 H34         9.6937   19.7482   10.4279 H         1 YMX         0.0534
     76 H35         8.3663   15.7597   10.8176 H         1 YMX         0.0512
@<TRIPOS>BOND
     1    1    2 1  
     2    1    6 1  
     3    2    3 1  
     4    3    4 1  
     5    4    5 1  
     6    5    6 1  
     7    6    7 1  
     8    7    8 1  
     9    8    9 ar 
    10    8   20 ar 
    11    9   10 ar 
    12   10   11 1  
    13   10   18 ar 
    14   11   12 1  
    15   11   17 1  
    16   12   13 1  
    17   13   14 1  
    18   14   15 1  
    19   14   16 1  
    20   16   17 1  
    21   18   19 ar 
    22   19   20 ar 
    23   20   21 1  
    24   21   22 2  
    25   21   23 am 
    26   23   24 1  
    27   24   25 2  
    28   24   27 1  
    29   25   26 ar 
    30   25   29 ar 
    31   26   32 ar 
    32   27   28 1  
    33   28   29 2  
    34   29   30 ar 
    35   30   31 ar 
    36   31   32 ar 
    37   32   33 1  
    38   33   34 1  
    39   34   35 ar 
    40   34   41 ar 
    41   35   36 ar 
    42   36   37 1  
    43   36   38 ar 
    44   38   39 ar 
    45   39   40 1  
    46   39   41 ar 
    47    1   42 1  
    48    1   43 1  
    49    2   44 1  
    50    2   45 1  
    51    4   46 1  
    52    4   47 1  
    53    5   48 1  
    54    5   49 1  
    55    6   50 1  
    56    7   51 1  
    57    9   52 1  
    58   12   53 1  
    59   12   54 1  
    60   13   55 1  
    61   13   56 1  
    62   14   57 1  
    63   15   58 1  
    64   15   59 1  
    65   15   60 1  
    66   16   61 1  
    67   16   62 1  
    68   17   63 1  
    69   17   64 1  
    70   18   65 1  
    71   19   66 1  
    72   23   67 1  
    73   26   68 1  
    74   27   69 1  
    75   30   70 1  
    76   31   71 1  
    77   33   72 1  
    78   33   73 1  
    79   35   74 1  
    80   38   75 1  
    81   41   76 1  
@<TRIPOS>SUBSTRUCTURE
     1 YMX         1

