### 
### Created by X-TOOL on Mon Sep 10 21:13:27 2018
### 

@<TRIPOS>MOLECULE
5ftq_ligand
   79    84     1     0     0
SMALL
GAST_HUCK


@<TRIPOS>ATOM
      1 F40       -17.3170    9.0460   -7.8730 F         1 U4W        -0.1863
      2 C35       -17.3670   10.2130   -8.6230 C.ar      1 U4W         0.1245
      3 C36       -16.9280   10.1600   -9.9180 C.ar      1 U4W        -0.0017
      4 C37       -17.0230   11.3200  -10.6830 C.ar      1 U4W         0.1245
      5 F39       -16.6220   11.3100  -11.9500 F         1 U4W        -0.1863
      6 C38       -17.5340   12.5290  -10.1600 C.ar      1 U4W        -0.0291
      7 C34       -17.9050   11.3960   -8.0490 C.ar      1 U4W        -0.0291
      8 C33       -17.9450   12.5770   -8.8000 C.ar      1 U4W        -0.0357
      9 C32       -18.5430   13.8440   -8.1930 C.3       1 U4W         0.0122
     10 C26       -19.9100   13.9960   -8.7910 C.ar      1 U4W        -0.0305
     11 C27       -20.1570   15.0810   -9.7170 C.ar      1 U4W        -0.0589
     12 C28       -21.4130   15.1160  -10.2990 C.ar      1 U4W        -0.0734
     13 C29       -22.4780   14.2220  -10.0240 C.ar      1 U4W        -0.0641
     14 N30       -23.7190   14.1070  -10.5370 N.2       1 U4W        -0.4551
     15 N31       -24.3390   12.9880   -9.9850 N.pl3     1 U4W        -0.2603
     16 C25       -20.9420   13.0750   -8.5260 C.ar      1 U4W        -0.0360
     17 C24       -22.1980   13.1660   -9.1550 C.ar      1 U4W         0.0708
     18 C23       -23.4460   12.4220   -9.1770 C.2       1 U4W         0.2644
     19 N22       -23.7940   11.2300   -8.5300 N.am      1 U4W        -0.1589
     20 C21       -23.2640   10.7610   -7.3980 C.2       1 U4W         0.2469
     21 O41       -22.5100   11.4140   -6.7130 O.2       1 U4W        -0.3716
     22 C9        -23.7730    9.3500   -7.0010 C.ar      1 U4W         0.0666
     23 C8        -22.9810    8.5860   -6.1060 C.ar      1 U4W         0.0485
     24 N7        -21.8050    9.0810   -5.6890 N.pl3     1 U4W        -0.3179
     25 C6        -20.7690    8.3530   -4.9400 C.3       1 U4W         0.0365
     26 C1        -19.9160    7.5960   -5.9200 C.3       1 U4W        -0.0280
     27 C2        -19.0070    6.6230   -5.1310 C.3       1 U4W        -0.0248
     28 C3        -18.0360    7.6140   -4.5180 C.3       1 U4W         0.0554
     29 O42       -17.0410    6.8200   -3.7870 O.3       1 U4W        -0.3918
     30 C4        -18.7440    8.5020   -3.4500 C.3       1 U4W        -0.0248
     31 C5        -19.8210    9.3070   -4.2080 C.3       1 U4W        -0.0280
     32 C13       -23.4330    7.2910   -5.7670 C.ar      1 U4W        -0.0217
     33 C12       -24.6420    6.8600   -6.2170 C.ar      1 U4W         0.0338
     34 C11       -25.4500    7.6380   -7.0600 C.ar      1 U4W        -0.0507
     35 C10       -25.0180    8.9470   -7.4060 C.ar      1 U4W        -0.0627
     36 N14       -25.1460    5.5220   -5.8620 N.pl3     1 U4W        -0.2983
     37 C15       -25.4700    4.7710   -7.0400 C.3       1 U4W         0.0678
     38 C16       -26.1600    3.4560   -6.6220 C.3       1 U4W        -0.0118
     39 N17       -25.2250    2.7830   -5.7340 N.4       1 U4W         0.2359
     40 C20       -25.8100    1.4510   -5.3530 C.3       1 U4W        -0.0430
     41 C18       -24.9560    3.6050   -4.5290 C.3       1 U4W        -0.0118
     42 C19       -24.1630    4.8330   -4.9740 C.3       1 U4W         0.0678
     43 H1        -16.5201    9.2461  -10.3344 H         1 U4W         0.0534
     44 H2        -17.6117   13.4091  -10.7881 H         1 U4W         0.0512
     45 H3        -18.2832   11.3843   -7.0332 H         1 U4W         0.0512
     46 H4        -17.9199   14.7157   -8.4418 H         1 U4W         0.0582
     47 H5        -18.6150   13.7447   -7.0999 H         1 U4W         0.0582
     48 H6        -19.4010   15.8245   -9.9422 H         1 U4W         0.0560
     49 H7        -21.5980   15.8956  -11.0291 H         1 U4W         0.0594
     50 H8        -25.2993   12.6629  -10.1666 H         1 U4W         0.2460
     51 H9        -20.7641   12.2737   -7.8179 H         1 U4W         0.0577
     52 H10       -24.5088   10.6764   -8.9573 H         1 U4W         0.2683
     53 H11       -21.6089   10.0665   -5.9155 H         1 U4W         0.1782
     54 H12       -21.2440    7.6670   -4.2233 H         1 U4W         0.0551
     55 H13       -19.2957    8.3005   -6.4936 H         1 U4W         0.0288
     56 H14       -20.5580    7.0276   -6.6090 H         1 U4W         0.0288
     57 H15       -18.4978    5.9095   -5.7955 H         1 U4W         0.0291
     58 H16       -19.5683    6.0717   -4.3622 H         1 U4W         0.0291
     59 H17       -17.5700    8.2356   -5.2968 H         1 U4W         0.0593
     60 H18       -16.4076    7.4018   -3.3835 H         1 U4W         0.2098
     61 H19       -18.0198    9.1828   -2.9788 H         1 U4W         0.0291
     62 H20       -19.2108    7.8721   -2.6785 H         1 U4W         0.0291
     63 H21       -20.3952    9.9123   -3.4911 H         1 U4W         0.0288
     64 H22       -19.3338    9.9687   -4.9392 H         1 U4W         0.0288
     65 H23       -22.8190    6.6439   -5.1511 H         1 U4W         0.0418
     66 H24       -26.3869    7.2476   -7.4405 H         1 U4W         0.0429
     67 H25       -25.6581    9.6103   -7.9765 H         1 U4W         0.0605
     68 H26       -24.5494    4.5436   -7.5975 H         1 U4W         0.0569
     69 H27       -26.1487    5.3576   -7.6766 H         1 U4W         0.0569
     70 H28       -26.3651    2.8334   -7.5053 H         1 U4W         0.0834
     71 H29       -27.1025    3.6683   -6.0961 H         1 U4W         0.0834
     72 H30       -24.3557    2.6340   -6.2221 H         1 U4W         0.2032
     73 H31       -25.1167    0.9250   -4.6802 H         1 U4W         0.0778
     74 H32       -25.9699    0.8480   -6.2590 H         1 U4W         0.0778
     75 H33       -26.7712    1.6056   -4.8411 H         1 U4W         0.0778
     76 H34       -24.3702    3.0238   -3.8017 H         1 U4W         0.0834
     77 H35       -25.9050    3.9180   -4.0691 H         1 U4W         0.0834
     78 H36       -23.8861    5.4639   -4.1165 H         1 U4W         0.0569
     79 H37       -23.2560    4.5461   -5.5262 H         1 U4W         0.0569
@<TRIPOS>BOND
     1    1    2 1  
     2    2    3 ar 
     3    2    7 ar 
     4    3    4 ar 
     5    4    5 1  
     6    4    6 ar 
     7    6    8 ar 
     8    7    8 ar 
     9    8    9 1  
    10    9   10 1  
    11   10   11 ar 
    12   10   16 ar 
    13   11   12 ar 
    14   12   13 ar 
    15   13   14 2  
    16   13   17 ar 
    17   14   15 1  
    18   15   18 1  
    19   16   17 ar 
    20   17   18 2  
    21   18   19 1  
    22   19   20 am 
    23   20   21 2  
    24   20   22 1  
    25   22   23 ar 
    26   22   35 ar 
    27   23   24 1  
    28   23   32 ar 
    29   24   25 1  
    30   25   26 1  
    31   25   31 1  
    32   26   27 1  
    33   27   28 1  
    34   28   29 1  
    35   28   30 1  
    36   30   31 1  
    37   32   33 ar 
    38   33   34 ar 
    39   33   36 1  
    40   34   35 ar 
    41   36   37 1  
    42   36   42 1  
    43   37   38 1  
    44   38   39 1  
    45   39   40 1  
    46   39   41 1  
    47   41   42 1  
    48    3   43 1  
    49    6   44 1  
    50    7   45 1  
    51    9   46 1  
    52    9   47 1  
    53   11   48 1  
    54   12   49 1  
    55   15   50 1  
    56   16   51 1  
    57   19   52 1  
    58   24   53 1  
    59   25   54 1  
    60   26   55 1  
    61   26   56 1  
    62   27   57 1  
    63   27   58 1  
    64   28   59 1  
    65   29   60 1  
    66   30   61 1  
    67   30   62 1  
    68   31   63 1  
    69   31   64 1  
    70   32   65 1  
    71   34   66 1  
    72   35   67 1  
    73   37   68 1  
    74   37   69 1  
    75   38   70 1  
    76   38   71 1  
    77   39   72 1  
    78   40   73 1  
    79   40   74 1  
    80   40   75 1  
    81   41   76 1  
    82   41   77 1  
    83   42   78 1  
    84   42   79 1  
@<TRIPOS>SUBSTRUCTURE
     1 U4W         1

