### 
### Created by X-TOOL on Mon Sep 10 21:13:26 2018
### 

@<TRIPOS>MOLECULE
5fue_ligand
   29    30     1     0     0
SMALL
GAST_HUCK


@<TRIPOS>ATOM
      1 C01        43.8500   35.4970   85.1610 C.ar      1 UV4        -0.0365
      2 C02        44.3270   34.6710   84.1510 C.ar      1 UV4        -0.0694
      3 C03        45.2780   33.6920   84.4340 C.ar      1 UV4        -0.0561
      4 C04        45.7600   33.5300   85.7320 C.ar      1 UV4         0.0511
      5 C05        46.7890   32.4610   86.0260 C.2       1 UV4         0.3118
      6 O06        47.4810   32.5330   87.0340 O.2       1 UV4        -0.3168
      7 N07        46.9410   31.4380   85.1830 N.2       1 UV4         0.0358
      8 O08        47.5620   30.4270   85.5130 O.2       1 UV4        -0.1745
      9 C09        45.2790   34.3730   86.7430 C.ar      1 UV4        -0.0204
     10 C10        44.3240   35.3540   86.4650 C.ar      1 UV4         0.0718
     11 N11        43.8430   36.1620   87.4490 N.am      1 UV4        -0.2322
     12 C12        44.4810   37.2530   87.8800 C.2       1 UV4         0.2324
     13 O13        45.3600   37.7810   87.2330 O.2       1 UV4        -0.3730
     14 C14        44.1420   37.8660   89.2090 C.ar      1 UV4         0.0560
     15 C15        42.9410   37.5780   89.8480 C.ar      1 UV4        -0.0415
     16 C16        42.6450   38.1550   91.0800 C.ar      1 UV4        -0.0562
     17 C17        43.5570   39.0190   91.6740 C.ar      1 UV4        -0.0576
     18 C18        44.7620   39.3050   91.0390 C.ar      1 UV4        -0.0562
     19 C19        45.0560   38.7260   89.8100 C.ar      1 UV4        -0.0415
     20 H1         43.1079   36.2542   84.9352 H         1 UV4         0.0541
     21 H2         43.9581   34.7883   83.1385 H         1 UV4         0.0590
     22 H3         45.6452   33.0524   83.6395 H         1 UV4         0.0542
     23 H4         45.6530   34.2623   87.7544 H         1 UV4         0.0555
     24 H5         42.9673   35.9267   87.8706 H         1 UV4         0.2253
     25 H6         42.2321   36.9012   89.3848 H         1 UV4         0.0669
     26 H7         41.7065   37.9311   91.5741 H         1 UV4         0.0629
     27 H8         43.3297   39.4707   92.6329 H         1 UV4         0.0652
     28 H9         45.4719   39.9799   91.5033 H         1 UV4         0.0629
     29 H10        45.9977   38.9445   89.3196 H         1 UV4         0.0669
@<TRIPOS>BOND
     1    1    2 ar 
     2    1   10 ar 
     3    2    3 ar 
     4    3    4 ar 
     5    4    5 1  
     6    4    9 ar 
     7    5    6 2  
     8    5    7 1  
     9    7    8 2  
    10    9   10 ar 
    11   10   11 1  
    12   11   12 am 
    13   12   13 2  
    14   12   14 1  
    15   14   15 ar 
    16   14   19 ar 
    17   15   16 ar 
    18   16   17 ar 
    19   17   18 ar 
    20   18   19 ar 
    21    1   20 1  
    22    2   21 1  
    23    3   22 1  
    24    9   23 1  
    25   11   24 1  
    26   15   25 1  
    27   16   26 1  
    28   17   27 1  
    29   18   28 1  
    30   19   29 1  
@<TRIPOS>SUBSTRUCTURE
     1 UV4         1

