### 
### Created by X-TOOL on Mon Sep 10 21:13:28 2018
### 

@<TRIPOS>MOLECULE
5fum_ligand
   65    68     1     0     0
SMALL
GAST_HUCK


@<TRIPOS>ATOM
      1 O01        34.8190   23.2690    7.8100 O.3       1 SOF        -0.2964
      2 C02        34.0220   22.9550    8.9830 C.3       1 SOF         0.1596
      3 C03        32.7000   22.1220    8.7530 C.2       1 SOF         0.2095
      4 O04        32.6990   21.3410    7.7660 O.2       1 SOF        -0.3939
      5 N05        31.5600   22.1830    9.5750 N.am      1 SOF        -0.2706
      6 C06        31.4520   23.0600   10.7760 C.3       1 SOF         0.0390
      7 C07        30.2280   22.9350   11.7330 C.3       1 SOF         0.0108
      8 C08        28.8940   22.5260   11.0890 C.3       1 SOF        -0.0167
      9 N09        28.1190   21.4790   11.8810 N.4       1 SOF         0.2449
     10 C10        28.7180   20.1200   11.9040 C.3       1 SOF         0.0097
     11 C11        28.4690   19.1820   13.1080 C.3       1 SOF         0.0094
     12 N12        27.6680   19.7450   14.2730 N.4       1 SOF         0.2425
     13 C13        27.0670   21.0740   14.1890 C.3       1 SOF         0.0094
     14 C14        27.7530   21.9930   13.2330 C.3       1 SOF         0.0097
     15 C15        26.6360   18.7900   14.7970 C.3       1 SOF        -0.0344
     16 C16        27.3090   18.0780   15.9570 C.3       1 SOF        -0.0245
     17 C17        29.0480   22.0740    9.6260 C.3       1 SOF         0.0108
     18 C18        30.3700   21.3780    9.3120 C.3       1 SOF         0.0390
     19 C19        35.9530   24.1010    7.9170 C.ar      1 SOF         0.0961
     20 C20        36.7800   24.3460    6.7970 C.ar      1 SOF        -0.0310
     21 C21        37.9390   25.1970    6.8790 C.ar      1 SOF        -0.0616
     22 C22        38.3220   25.8340    8.0690 C.ar      1 SOF        -0.0279
     23 C23        37.4750   25.5810    9.1770 C.ar      1 SOF        -0.0616
     24 C24        36.3200   24.7380    9.1190 C.ar      1 SOF        -0.0310
     25 C25        39.5330   26.7350    8.1400 C.ar      1 SOF        -0.0247
     26 C26        40.7350   26.3460    8.7720 C.ar      1 SOF        -0.0567
     27 C27        41.8620   27.2020    8.8400 C.ar      1 SOF        -0.0629
     28 C28        41.8020   28.4850    8.2670 C.ar      1 SOF        -0.0632
     29 C29        40.6140   28.8970    7.6340 C.ar      1 SOF        -0.0629
     30 C30        39.4980   28.0300    7.5770 C.ar      1 SOF        -0.0567
     31 H1         33.7359   23.9071    9.4538 H         1 SOF         0.0860
     32 H2         34.6590   22.3817    9.6726 H         1 SOF         0.0860
     33 H3         31.4638   24.0979   10.4118 H         1 SOF         0.0524
     34 H4         32.3494   22.8747   11.3846 H         1 SOF         0.0524
     35 H5         30.0802   23.9120   12.2162 H         1 SOF         0.0339
     36 H6         30.4756   22.1823   12.4959 H         1 SOF         0.0339
     37 H7         28.2724   23.4334   11.0769 H         1 SOF         0.0852
     38 H8         27.2468   21.3664   11.3883 H         1 SOF         0.2040
     39 H9         29.8072   20.2524   11.8254 H         1 SOF         0.0868
     40 H10        28.3471   19.5950   11.0114 H         1 SOF         0.0868
     41 H11        29.4510   18.8765   13.4984 H         1 SOF         0.0868
     42 H12        27.9320   18.2980   12.7336 H         1 SOF         0.0868
     43 H13        28.3550   19.8312   15.0056 H         1 SOF         0.2037
     44 H14        27.0970   21.5307   15.1892 H         1 SOF         0.0868
     45 H15        26.0208   20.9606   13.8689 H         1 SOF         0.0868
     46 H16        27.0891   22.8570   13.0819 H         1 SOF         0.0868
     47 H17        28.6838   22.3257   13.7156 H         1 SOF         0.0868
     48 H18        26.3454   18.0697   14.0180 H         1 SOF         0.0812
     49 H19        25.7455   19.3353   15.1429 H         1 SOF         0.0812
     50 H20        26.6088   17.3536   16.3985 H         1 SOF         0.0281
     51 H21        27.6029   18.8150   16.7189 H         1 SOF         0.0281
     52 H22        28.2028   17.5495   15.5940 H         1 SOF         0.0281
     53 H23        28.9664   22.9620    8.9820 H         1 SOF         0.0339
     54 H24        28.2296   21.3765    9.3943 H         1 SOF         0.0339
     55 H25        30.4310   20.4659    9.9238 H         1 SOF         0.0524
     56 H26        30.3692   21.1053    8.2463 H         1 SOF         0.0524
     57 H27        36.5348   23.8801    5.8494 H         1 SOF         0.0548
     58 H28        38.5375   25.3511    5.9884 H         1 SOF         0.0601
     59 H29        37.7159   26.0531   10.1226 H         1 SOF         0.0601
     60 H30        35.7208   24.5879   10.0098 H         1 SOF         0.0548
     61 H31        40.7971   25.3606    9.2195 H         1 SOF         0.0609
     62 H32        42.7684   26.8688    9.3325 H         1 SOF         0.0614
     63 H33        42.6588   29.1475    8.3122 H         1 SOF         0.0605
     64 H34        40.5543   29.8833    7.1882 H         1 SOF         0.0614
     65 H35        38.5916   28.3684    7.0882 H         1 SOF         0.0609
@<TRIPOS>BOND
     1    1    2 1  
     2    1   19 1  
     3    2    3 1  
     4    3    4 2  
     5    3    5 am 
     6    5    6 1  
     7    5   18 1  
     8    6    7 1  
     9    7    8 1  
    10    8    9 1  
    11    8   17 1  
    12    9   10 1  
    13    9   14 1  
    14   10   11 1  
    15   11   12 1  
    16   12   13 1  
    17   12   15 1  
    18   13   14 1  
    19   15   16 1  
    20   17   18 1  
    21   19   20 ar 
    22   19   24 ar 
    23   20   21 ar 
    24   21   22 ar 
    25   22   23 ar 
    26   22   25 1  
    27   23   24 ar 
    28   25   26 ar 
    29   25   30 ar 
    30   26   27 ar 
    31   27   28 ar 
    32   28   29 ar 
    33   29   30 ar 
    34    2   31 1  
    35    2   32 1  
    36    6   33 1  
    37    6   34 1  
    38    7   35 1  
    39    7   36 1  
    40    8   37 1  
    41    9   38 1  
    42   10   39 1  
    43   10   40 1  
    44   11   41 1  
    45   11   42 1  
    46   12   43 1  
    47   13   44 1  
    48   13   45 1  
    49   14   46 1  
    50   14   47 1  
    51   15   48 1  
    52   15   49 1  
    53   16   50 1  
    54   16   51 1  
    55   16   52 1  
    56   17   53 1  
    57   17   54 1  
    58   18   55 1  
    59   18   56 1  
    60   20   57 1  
    61   21   58 1  
    62   23   59 1  
    63   24   60 1  
    64   26   61 1  
    65   27   62 1  
    66   28   63 1  
    67   29   64 1  
    68   30   65 1  
@<TRIPOS>SUBSTRUCTURE
     1 SOF         1

