### 
### Created by X-TOOL on Mon Sep 10 21:13:27 2018
### 

@<TRIPOS>MOLECULE
5fun_ligand
   39    42     1     0     0
SMALL
GAST_HUCK


@<TRIPOS>ATOM
      1 C01        85.4640   58.7090   10.4110 C.3       1 GZA         0.1000
      2 C02        85.5060   57.2060   10.8890 C.ar      1 GZA        -0.0115
      3 C03        84.6090   56.7590   11.8800 C.ar      1 GZA        -0.0576
      4 C04        84.6430   55.4200   12.3110 C.ar      1 GZA        -0.0685
      5 C05        85.5640   54.5350   11.7610 C.ar      1 GZA        -0.0687
      6 C06        86.4630   54.9780   10.7720 C.ar      1 GZA        -0.0685
      7 C07        86.4290   56.3250   10.3380 C.ar      1 GZA        -0.0576
      8 N08        86.6560   59.3910   10.8690 N.pl3     1 GZA        -0.2069
      9 C09        86.7900   60.0460   12.0530 C.2       1 GZA         0.0717
     10 C10        88.0830   60.5690   12.1050 C.2       1 GZA         0.1020
     11 C11        88.7240   60.1910   10.9100 C.2       1 GZA         0.0253
     12 N12        87.8270   59.4830   10.1850 N.2       1 GZA        -0.2212
     13 O13        88.6680   61.3150   13.1680 O.3       1 GZA        -0.2944
     14 C14        88.1480   62.6090   13.3060 C.3       1 GZA         0.2452
     15 N15        88.8200   63.5170   14.1850 N.am      1 GZA        -0.2380
     16 C16        88.3390   64.8140   14.3600 C.2       1 GZA         0.2103
     17 C17        87.1030   65.2580   13.6170 C.ar      1 GZA         0.0866
     18 C18        86.5980   66.5840   13.7840 C.ar      1 GZA        -0.0262
     19 C19        85.4680   66.9440   13.0850 C.ar      1 GZA         0.0030
     20 N20        84.8370   66.0770   12.2600 N.ar      1 GZA        -0.3054
     21 C21        85.3040   64.8320   12.1000 C.ar      1 GZA         0.0347
     22 C22        86.4630   64.3920   12.7810 C.ar      1 GZA         0.0912
     23 N23        86.9690   63.0340   12.6000 N.pl3     1 GZA        -0.2643
     24 O24        88.9150   65.5830   15.1080 O.2       1 GZA        -0.3867
     25 H1         84.5746   59.2028   10.8295 H         1 GZA         0.0797
     26 H2         85.4201   58.7440    9.3124 H         1 GZA         0.0797
     27 H3         83.8916   57.4480   12.3109 H         1 GZA         0.0558
     28 H4         83.9510   55.0781   13.0721 H         1 GZA         0.0599
     29 H5         85.5898   53.5037   12.0938 H         1 GZA         0.0559
     30 H6         87.1807   54.2880   10.3432 H         1 GZA         0.0599
     31 H7         87.1212   56.6685    9.5778 H         1 GZA         0.0558
     32 H8         86.0258   60.1448   12.8225 H         1 GZA         0.0825
     33 H9         89.7483   60.4243   10.6231 H         1 GZA         0.0634
     34 H10        88.7685   62.9499   12.4641 H         1 GZA         0.1202
     35 H11        89.6387   63.2196   14.6762 H         1 GZA         0.1892
     36 H12        87.0917   67.2882   14.4439 H         1 GZA         0.0724
     37 H13        85.0738   67.9474   13.1984 H         1 GZA         0.0721
     38 H14        84.7846   64.1496   11.4370 H         1 GZA         0.0739
     39 H15        86.4827   62.3820   11.9682 H         1 GZA         0.1852
@<TRIPOS>BOND
     1    1    2 1  
     2    1    8 1  
     3    2    3 ar 
     4    2    7 ar 
     5    3    4 ar 
     6    4    5 ar 
     7    5    6 ar 
     8    6    7 ar 
     9    8    9 1  
    10    8   12 1  
    11    9   10 2  
    12   10   11 1  
    13   10   13 1  
    14   11   12 2  
    15   13   14 1  
    16   14   15 1  
    17   14   23 1  
    18   15   16 am 
    19   16   17 1  
    20   16   24 2  
    21   17   18 ar 
    22   17   22 ar 
    23   18   19 ar 
    24   19   20 ar 
    25   20   21 ar 
    26   21   22 ar 
    27   22   23 1  
    28    1   25 1  
    29    1   26 1  
    30    3   27 1  
    31    4   28 1  
    32    5   29 1  
    33    6   30 1  
    34    7   31 1  
    35    9   32 1  
    36   11   33 1  
    37   14   34 1  
    38   15   35 1  
    39   18   36 1  
    40   19   37 1  
    41   21   38 1  
    42   23   39 1  
@<TRIPOS>SUBSTRUCTURE
     1 GZA         1

