### 
### Created by X-TOOL on Mon Sep 10 21:13:27 2018
### 

@<TRIPOS>MOLECULE
5fut_ligand
   82    86     1     0     0
SMALL
GAST_HUCK


@<TRIPOS>ATOM
      1 CAA         9.3710  -18.6110    4.7420 C.3       1 PQ7         0.0630
      2 NAB         9.3030  -18.2550    6.1770 N.pl3     1 PQ7        -0.2945
      3 CAC         8.6420  -19.0500    7.1300 C.2       1 PQ7         0.0110
      4 CAD         8.6070  -18.6560    8.4670 C.2       1 PQ7        -0.0503
      5 CAE         9.2010  -17.4600    8.8680 C.2       1 PQ7        -0.0083
      6 CAF         9.8530  -16.6720    7.9210 C.2       1 PQ7        -0.0804
      7 CAG         9.9030  -17.0590    6.5870 C.3       1 PQ7         0.0359
      8 NAH         9.1840  -17.0680   10.1470 N.pl3     1 PQ7        -0.3315
      9 NAI        16.3960  -23.6340    2.6260 N.pl3     1 PQ7        -0.2945
     10 CAJ        16.2530  -22.2610    2.9390 C.2       1 PQ7         0.0110
     11 CAK        15.7260  -21.8830    4.1710 C.2       1 PQ7        -0.0502
     12 CAL        15.3150  -22.8510    5.0850 C.2       1 PQ7        -0.0077
     13 CAM        15.4290  -24.1980    4.7950 C.2       1 PQ7        -0.0804
     14 CAN        15.9550  -24.5780    3.5780 C.3       1 PQ7         0.0359
     15 NAO        14.8250  -22.5230    6.2670 N.pl3     1 PQ7        -0.3255
     16 CAP        14.5500  -21.2980    6.9470 C.3       1 PQ7         0.0228
     17 CAQ        14.5800  -21.6160    8.4900 C.3       1 PQ7        -0.0321
     18 CAR         8.5780  -17.9360   11.1740 C.3       1 PQ7         0.0110
     19 CAS         9.8300  -15.7980   10.4970 C.3       1 PQ7         0.0110
     20 CAT        14.4410  -23.4000    7.3220 C.3       1 PQ7         0.0228
     21 CAU        13.4890  -22.6070    8.2680 C.3       1 PQ7        -0.0321
     22 CAV        16.9110  -24.1190    1.2940 C.3       1 PQ7         0.0630
     23 CAW        15.6740  -24.4040    0.8080 C.ar      1 PQ7        -0.0267
     24 CAX        14.9400  -23.3270    0.3370 C.ar      1 PQ7        -0.0648
     25 CAY        13.6500  -23.5110   -0.0870 C.ar      1 PQ7        -0.0668
     26 CAZ        13.1270  -24.7870    0.0060 C.ar      1 PQ7        -0.0497
     27 CBA        13.8340  -25.8660    0.5200 C.ar      1 PQ7        -0.0668
     28 CBB        15.1340  -25.6810    0.9250 C.ar      1 PQ7        -0.0648
     29 CBC        11.8470  -25.0510   -0.3330 C.3       1 PQ7        -0.0222
     30 CBD        11.1560  -25.0470    1.0670 C.3       1 PQ7        -0.0425
     31 CBE        11.1240  -23.6930    1.7920 C.3       1 PQ7        -0.0425
     32 CBF        10.4980  -23.8170    3.1850 C.3       1 PQ7        -0.0222
     33 CBG        10.3600  -22.5230    3.6650 C.ar      1 PQ7        -0.0497
     34 CBH        11.2730  -21.8170    4.4530 C.ar      1 PQ7        -0.0668
     35 CBI        10.9570  -20.5030    4.8320 C.ar      1 PQ7        -0.0648
     36 CBJ         9.7490  -19.9190    4.4290 C.ar      1 PQ7        -0.0267
     37 CBK         8.8690  -20.6350    3.6380 C.ar      1 PQ7        -0.0648
     38 CBL         9.1780  -21.9270    3.2640 C.ar      1 PQ7        -0.0668
     39 H1         10.0955  -17.9337    4.2663 H         1 PQ7         0.0682
     40 H2          8.3732  -18.4421    4.3108 H         1 PQ7         0.0682
     41 H3          8.1565  -19.9752    6.8232 H         1 PQ7         0.0991
     42 H4          8.1120  -19.2871    9.2036 H         1 PQ7         0.0279
     43 H5         10.3287  -15.7424    8.2299 H         1 PQ7         0.0170
     44 H6          9.4313  -16.2529    6.0059 H         1 PQ7         0.0594
     45 H7         10.9672  -17.1305    6.3181 H         1 PQ7         0.0594
     46 H8         16.5544  -21.5024    2.2181 H         1 PQ7         0.0991
     47 H9         15.6347  -20.8271    4.4211 H         1 PQ7         0.0279
     48 H10        15.1083  -24.9478    5.5167 H         1 PQ7         0.0170
     49 H11        16.8221  -25.2162    3.8033 H         1 PQ7         0.0594
     50 H12        15.1781  -25.1771    3.0805 H         1 PQ7         0.0594
     51 H13        13.5587  -20.9189    6.6579 H         1 PQ7         0.0506
     52 H14        15.3158  -20.5479    6.7002 H         1 PQ7         0.0506
     53 H15        14.3010  -20.7693    9.1344 H         1 PQ7         0.0284
     54 H16        15.5249  -22.0521    8.8462 H         1 PQ7         0.0284
     55 H17         8.6572  -17.4503   12.1578 H         1 PQ7         0.0470
     56 H18         9.1067  -18.9003   11.1976 H         1 PQ7         0.0470
     57 H19         7.5182  -18.1047   10.9327 H         1 PQ7         0.0470
     58 H20        10.2107  -15.3165    9.5842 H         1 PQ7         0.0470
     59 H21        10.6655  -15.9894   11.1864 H         1 PQ7         0.0470
     60 H22         9.0981  -15.1359   10.9828 H         1 PQ7         0.0470
     61 H23        15.3308  -23.7319    7.8770 H         1 PQ7         0.0506
     62 H24        13.9176  -24.2757    6.9106 H         1 PQ7         0.0506
     63 H25        12.5972  -22.1958    7.7725 H         1 PQ7         0.0284
     64 H26        13.1859  -23.1573    9.1710 H         1 PQ7         0.0284
     65 H27        17.5577  -25.0049    1.3769 H         1 PQ7         0.0682
     66 H28        17.4313  -23.3375    0.7209 H         1 PQ7         0.0682
     67 H29        15.3861  -22.3396    0.3040 H         1 PQ7         0.0540
     68 H30        13.0631  -22.6886   -0.4797 H         1 PQ7         0.0540
     69 H31        13.3668  -26.8408    0.6006 H         1 PQ7         0.0540
     70 H32        15.7192  -26.5024    1.3223 H         1 PQ7         0.0540
     71 H33        11.7541  -26.0301   -0.8256 H         1 PQ7         0.0413
     72 H34        11.4342  -24.2701   -0.9885 H         1 PQ7         0.0413
     73 H35        11.6911  -25.7615    1.7097 H         1 PQ7         0.0287
     74 H36        10.1171  -25.3822    0.9317 H         1 PQ7         0.0287
     75 H37        10.5324  -22.9823    1.1962 H         1 PQ7         0.0287
     76 H38        12.1530  -23.3180    1.8946 H         1 PQ7         0.0287
     77 H39        11.1541  -24.4011    3.8471 H         1 PQ7         0.0413
     78 H40         9.5148  -24.3058    3.1189 H         1 PQ7         0.0413
     79 H41        12.2051  -22.2743    4.7648 H         1 PQ7         0.0540
     80 H42        11.6523  -19.9363    5.4406 H         1 PQ7         0.0540
     81 H43         7.9392  -20.1826    3.3127 H         1 PQ7         0.0540
     82 H44         8.4830  -22.4838    2.6459 H         1 PQ7         0.0540
@<TRIPOS>BOND
     1    1    2 1  
     2   36    1 1  
     3    2    3 1  
     4    2    7 1  
     5    3    4 2  
     6    4    5 1  
     7    6    5 2  
     8    5    8 1  
     9    7    6 1  
    10    8   18 1  
    11    8   19 1  
    12    9   10 1  
    13    9   14 1  
    14   22    9 1  
    15   10   11 2  
    16   11   12 1  
    17   13   12 2  
    18   12   15 1  
    19   14   13 1  
    20   15   16 1  
    21   15   20 1  
    22   16   17 1  
    23   21   17 1  
    24   20   21 1  
    25   23   22 1  
    26   24   23 ar 
    27   28   23 ar 
    28   25   24 ar 
    29   26   25 ar 
    30   26   27 ar 
    31   29   26 1  
    32   27   28 ar 
    33   30   29 1  
    34   31   30 1  
    35   32   31 1  
    36   33   32 1  
    37   34   33 ar 
    38   33   38 ar 
    39   35   34 ar 
    40   35   36 ar 
    41   36   37 ar 
    42   37   38 ar 
    43    1   39 1  
    44    1   40 1  
    45    3   41 1  
    46    4   42 1  
    47    6   43 1  
    48    7   44 1  
    49    7   45 1  
    50   10   46 1  
    51   11   47 1  
    52   13   48 1  
    53   14   49 1  
    54   14   50 1  
    55   16   51 1  
    56   16   52 1  
    57   17   53 1  
    58   17   54 1  
    59   18   55 1  
    60   18   56 1  
    61   18   57 1  
    62   19   58 1  
    63   19   59 1  
    64   19   60 1  
    65   20   61 1  
    66   20   62 1  
    67   21   63 1  
    68   21   64 1  
    69   22   65 1  
    70   22   66 1  
    71   24   67 1  
    72   25   68 1  
    73   27   69 1  
    74   28   70 1  
    75   29   71 1  
    76   29   72 1  
    77   30   73 1  
    78   30   74 1  
    79   31   75 1  
    80   31   76 1  
    81   32   77 1  
    82   32   78 1  
    83   34   79 1  
    84   35   80 1  
    85   37   81 1  
    86   38   82 1  
@<TRIPOS>SUBSTRUCTURE
     1 PQ7         1

