### 
### Created by X-TOOL on Mon Sep 10 21:13:30 2018
### 

@<TRIPOS>MOLECULE
5fv7_ligand
   35    38     1     0     0
SMALL
GAST_HUCK


@<TRIPOS>ATOM
      1 C1        -13.8690   -8.1340   -1.1100 C.ar      1 R3Z        -0.0819
      2 C2        -14.9440   -8.0840   -1.9910 C.ar      1 R3Z        -0.0819
      3 C3        -15.8440   -7.0250   -1.9420 C.ar      1 R3Z        -0.0414
      4 C4        -15.6800   -6.0030   -1.0050 C.ar      1 R3Z         0.1203
      5 C5        -14.5970   -6.0620   -0.1180 C.ar      1 R3Z         0.1199
      6 C6        -13.6950   -7.1250   -0.1710 C.ar      1 R3Z        -0.0415
      7 O7        -14.4170   -5.0760    0.8020 O.3       1 R3Z        -0.3188
      8 C8        -15.5680   -4.2820    1.1290 C.3       1 R3Z         0.1004
      9 C9        -16.2800   -3.8090   -0.1560 C.3       1 R3Z         0.1310
     10 O10       -16.5820   -4.9640   -0.9630 O.3       1 R3Z        -0.3134
     11 C11       -17.5490   -2.9800    0.1530 C.3       1 R3Z         0.0890
     12 N12       -18.3620   -3.4890    1.2860 N.am      1 R3Z        -0.2011
     13 C13       -19.2920   -4.5210    1.0510 C.2       1 R3Z         0.0775
     14 C14       -19.6010   -5.1850   -0.1320 C.2       1 R3Z        -0.0343
     15 C15       -20.5360   -6.1230   -0.0310 C.2       1 R3Z        -0.0029
     16 S16       -21.1180   -6.2620    1.5660 S.3       1 R3Z        -0.0493
     17 C17       -20.0480   -4.9860    2.1220 C.2       1 R3Z         0.1118
     18 C18       -19.8700   -4.4150    3.4140 C.2       1 R3Z         0.2407
     19 O19       -20.5270   -4.8160    4.3640 O.2       1 R3Z        -0.4037
     20 N20       -18.9710   -3.4240    3.5840 N.am      1 R3Z        -0.0399
     21 C21       -18.2380   -2.9740    2.5380 C.2       1 R3Z         0.3462
     22 O22       -17.4380   -2.0780    2.7440 O.2       1 R3Z        -0.3865
     23 O23       -18.8030   -2.8600    4.8760 O.3       1 R3Z        -0.2426
     24 H1        -13.1677   -8.9593   -1.1560 H         1 R3Z         0.0495
     25 H2        -15.0811   -8.8747   -2.7197 H         1 R3Z         0.0495
     26 H3        -16.6771   -6.9928   -2.6348 H         1 R3Z         0.0509
     27 H4        -12.8600   -7.1636    0.5192 H         1 R3Z         0.0509
     28 H5        -15.2492   -3.4043    1.7104 H         1 R3Z         0.0640
     29 H6        -16.2657   -4.8852    1.7284 H         1 R3Z         0.0640
     30 H7        -15.5879   -3.1642   -0.7175 H         1 R3Z         0.0698
     31 H8        -18.1816   -2.9736   -0.7469 H         1 R3Z         0.0617
     32 H9        -17.2375   -1.9519    0.3896 H         1 R3Z         0.0617
     33 H10       -19.1101   -4.9517   -1.0757 H         1 R3Z         0.0433
     34 H11       -20.8876   -6.7286   -0.8650 H         1 R3Z         0.0813
     35 H12       -17.9047   -2.9830    5.1596 H         1 R3Z         0.2559
@<TRIPOS>BOND
     1    1    2 ar 
     2    1    6 ar 
     3    2    3 ar 
     4    3    4 ar 
     5    4    5 ar 
     6    4   10 1  
     7    5    6 ar 
     8    5    7 1  
     9    7    8 1  
    10    8    9 1  
    11    9   10 1  
    12    9   11 1  
    13   11   12 1  
    14   12   13 1  
    15   12   21 am 
    16   13   14 1  
    17   13   17 2  
    18   14   15 2  
    19   15   16 1  
    20   16   17 1  
    21   17   18 1  
    22   18   19 2  
    23   18   20 am 
    24   20   21 am 
    25   20   23 1  
    26   21   22 2  
    27    1   24 1  
    28    2   25 1  
    29    3   26 1  
    30    6   27 1  
    31    8   28 1  
    32    8   29 1  
    33    9   30 1  
    34   11   31 1  
    35   11   32 1  
    36   14   33 1  
    37   15   34 1  
    38   23   35 1  
@<TRIPOS>SUBSTRUCTURE
     1 R3Z         1

