### 
### Created by X-TOOL on Mon Sep 10 21:12:47 2018
### 

@<TRIPOS>MOLECULE
5fwg_ligand
   61    63     1     0     0
SMALL
GAST_HUCK


@<TRIPOS>ATOM
      1 N1         14.3180   14.6610   25.0810 N.4       1 GPR         0.2328
      2 CA1        13.8440   15.3410   26.2860 C.3       1 GPR         0.0304
      3 C1         12.8800   16.4410   25.9020 C.2       1 GPR         0.0846
      4 O11        12.0080   16.7320   26.7430 O.co2     1 GPR        -0.5643
      5 CB1        14.9760   16.0080   27.0950 C.3       1 GPR         0.0193
      6 CG1        15.6510   15.0970   28.0960 C.3       1 GPR         0.0441
      7 CD1        16.7850   15.7920   28.7200 C.2       1 GPR         0.1785
      8 OE1        17.9520   15.4490   28.6620 O.2       1 GPR        -0.3969
      9 O12        13.0140   16.9340   24.7520 O.co2     1 GPR        -0.5643
     10 N2         16.4380   16.2920   29.8870 N.am      1 GPR        -0.2648
     11 CA2        17.5010   16.8170   30.7190 C.3       1 GPR         0.1399
     12 C2         17.3790   16.2100   32.1160 C.2       1 GPR         0.2040
     13 O2         18.0980   16.6100   33.0470 O.2       1 GPR        -0.3944
     14 CB2        16.7190   18.1990   30.8250 C.3       1 GPR         0.0367
     15 SG2        17.1620   18.9910   29.3910 S.3       1 GPR        -0.1337
     16 CA4        18.8650   18.6760   29.6080 C.3       1 GPR         0.0757
     17 CB4        19.4940   19.8050   30.3770 C.ar      1 GPR        -0.0181
     18 CG4        19.7950   19.5090   31.7290 C.ar      1 GPR        -0.0589
     19 CD4        20.3790   20.5490   32.5010 C.ar      1 GPR        -0.0692
     20 CE4        20.6580   21.8290   31.9850 C.ar      1 GPR        -0.0690
     21 CZ4        20.3610   22.0730   30.6030 C.ar      1 GPR        -0.0618
     22 CH4        19.7830   21.0580   29.8250 C.ar      1 GPR        -0.0174
     23 CH5        19.4740   21.2290   28.4890 C.ar      1 GPR        -0.0161
     24 CZ5        19.2100   22.5400   27.9820 C.ar      1 GPR        -0.0618
     25 CE5        18.8770   22.7030   26.6540 C.ar      1 GPR        -0.0690
     26 CD5        18.8600   21.4920   25.7890 C.ar      1 GPR        -0.0691
     27 CG5        19.1340   20.1550   26.2510 C.ar      1 GPR        -0.0575
     28 CB5        19.4580   20.0750   27.6990 C.ar      1 GPR        -0.0041
     29 CA5        19.7540   18.7240   28.4080 C.3       1 GPR         0.1113
     30 O5         21.1050   18.5790   28.9880 O.3       1 GPR        -0.3758
     31 N3         16.4460   15.2490   32.2190 N.am      1 GPR        -0.2722
     32 CA3        16.1470   14.5780   33.4720 C.3       1 GPR         0.0833
     33 C3         17.0470   13.4030   33.7930 C.2       1 GPR         0.0570
     34 O31        18.0480   13.2090   33.0650 O.co2     1 GPR        -0.5669
     35 O32        16.7250   12.7190   34.7850 O.co2     1 GPR        -0.5669
     36 H1         14.9603   13.9283   25.3393 H         1 GPR         0.2010
     37 H2         14.7870   15.3237   24.4836 H         1 GPR         0.2010
     38 H3         13.5335   14.2622   24.5896 H         1 GPR         0.2010
     39 H4         13.3334   14.6043   26.9236 H         1 GPR         0.1026
     40 H5         14.5507   16.8631   27.6407 H         1 GPR         0.0363
     41 H6         15.7385   16.3667   26.3880 H         1 GPR         0.0363
     42 H7         16.0145   14.1953   27.5813 H         1 GPR         0.0505
     43 H8         14.9275   14.8092   28.8730 H         1 GPR         0.0505
     44 H9         15.4838   16.3087   30.1857 H         1 GPR         0.1883
     45 H10        18.5200   16.8167   30.3048 H         1 GPR         0.0808
     46 H11        17.0406   18.7697   31.7086 H         1 GPR         0.0426
     47 H12        15.6319   18.0370   30.8688 H         1 GPR         0.0426
     48 H13        18.9718   17.7106   30.1243 H         1 GPR         0.0627
     49 H14        19.5892   18.5338   32.1552 H         1 GPR         0.0554
     50 H15        20.6217   20.3471   33.5380 H         1 GPR         0.0593
     51 H16        21.0833   22.6046   32.6116 H         1 GPR         0.0559
     52 H17        20.5822   23.0378   30.1612 H         1 GPR         0.0595
     53 H18        19.2714   23.4007   28.6381 H         1 GPR         0.0595
     54 H19        18.6356   23.6808   26.2532 H         1 GPR         0.0559
     55 H20        18.6253   21.6250   24.7391 H         1 GPR         0.0593
     56 H21        19.1063   19.2872   25.6019 H         1 GPR         0.0555
     57 H22        19.5529   17.8958   27.7126 H         1 GPR         0.0796
     58 H23        21.1836   17.7242   29.3951 H         1 GPR         0.2134
     59 H24        15.9367   14.9849   31.3999 H         1 GPR         0.1873
     60 H25        15.1105   14.2126   33.4258 H         1 GPR         0.0689
     61 H26        16.2408   15.3131   34.2849 H         1 GPR         0.0689
@<TRIPOS>BOND
     1    1    2 1  
     2    2    3 1  
     3    2    5 1  
     4    3    4 ar 
     5    3    9 ar 
     6    5    6 1  
     7    6    7 1  
     8    7    8 2  
     9    7   10 am 
    10   10   11 1  
    11   11   12 1  
    12   11   14 1  
    13   12   13 2  
    14   12   31 am 
    15   14   15 1  
    16   15   16 1  
    17   16   17 1  
    18   16   29 1  
    19   17   18 ar 
    20   17   22 ar 
    21   18   19 ar 
    22   19   20 ar 
    23   20   21 ar 
    24   21   22 ar 
    25   22   23 1  
    26   23   24 ar 
    27   23   28 ar 
    28   24   25 ar 
    29   25   26 ar 
    30   26   27 ar 
    31   27   28 ar 
    32   28   29 1  
    33   29   30 1  
    34   31   32 1  
    35   32   33 1  
    36   33   34 ar 
    37   33   35 ar 
    38    1   36 1  
    39    1   37 1  
    40    1   38 1  
    41    2   39 1  
    42    5   40 1  
    43    5   41 1  
    44    6   42 1  
    45    6   43 1  
    46   10   44 1  
    47   11   45 1  
    48   14   46 1  
    49   14   47 1  
    50   16   48 1  
    51   18   49 1  
    52   19   50 1  
    53   20   51 1  
    54   21   52 1  
    55   24   53 1  
    56   25   54 1  
    57   26   55 1  
    58   27   56 1  
    59   29   57 1  
    60   30   58 1  
    61   31   59 1  
    62   32   60 1  
    63   32   61 1  
@<TRIPOS>SUBSTRUCTURE
     1 GPR         1

