### 
### Created by X-TOOL on Mon Sep 10 21:13:26 2018
### 

@<TRIPOS>MOLECULE
5fwj_ligand
   47    47     1     0     0
SMALL
GAST_HUCK


@<TRIPOS>ATOM
      1 OAT        21.6700   63.5360  -10.3800 O.co2     1 MMK        -0.5575
      2 CAS        20.6950   63.4760   -9.5270 C.2       1 MMK         0.0705
      3 OAU        19.5450   63.2070   -9.8430 O.co2     1 MMK        -0.5575
      4 CAO        21.0570   63.8890   -8.1430 C.ar      1 MMK         0.0232
      5 CAN        20.1290   63.7900   -7.1110 C.ar      1 MMK        -0.0134
      6 CAP        22.2940   64.4560   -7.8770 C.ar      1 MMK        -0.0272
      7 CAQ        22.5480   64.9170   -6.6030 C.ar      1 MMK         0.0064
      8 NAR        21.6770   64.8140   -5.5910 N.ar      1 MMK        -0.2901
      9 CAM        20.4990   64.2240   -5.8470 C.ar      1 MMK         0.0758
     10 CAL        19.6600   63.8880   -4.6380 C.3       1 MMK         0.0180
     11 N          20.4860   63.7320   -3.4310 N.4       1 MMK         0.2579
     12 CA         21.0940   62.4130   -3.3430 C.3       1 MMK         0.0579
     13 C          20.2290   61.5110   -2.5230 C.2       1 MMK         0.2241
     14 O          19.2220   61.9570   -2.0020 O.2       1 MMK        -0.3910
     15 NAC        20.6130   60.2200   -2.3900 N.am      1 MMK        -0.2640
     16 CAB        21.8500   59.8370   -3.0920 C.3       1 MMK         0.0314
     17 CAA        23.0110   59.6530   -2.1490 C.3       1 MMK        -0.0446
     18 CAD        19.9860   59.1440   -1.6000 C.3       1 MMK         0.0739
     19 CAE        18.5600   59.3870   -1.0960 C.3       1 MMK        -0.0115
     20 NAF        17.5640   59.6320   -2.1360 N.4       1 MMK         0.2323
     21 CAH        16.4390   60.3930   -1.6030 C.3       1 MMK        -0.0433
     22 CAG        17.0880   58.3780   -2.7020 C.3       1 MMK        -0.0433
     23 H1         19.1404   63.3833   -7.2908 H         1 MMK         0.0685
     24 H2         23.0454   64.5351   -8.6543 H         1 MMK         0.0684
     25 H3         23.5048   65.3885   -6.4098 H         1 MMK         0.0809
     26 H4         19.1229   62.9468   -4.8268 H         1 MMK         0.1010
     27 H5         18.9340   64.6974   -4.4713 H         1 MMK         0.1010
     28 H6         19.9049   63.8755   -2.6200 H         1 MMK         0.2049
     29 H7         21.2175   64.4254   -3.4472 H         1 MMK         0.2049
     30 H8         22.0840   62.4979   -2.8711 H         1 MMK         0.1062
     31 H9         21.2044   61.9935   -4.3538 H         1 MMK         0.1062
     32 H10        22.1042   60.6253   -3.8159 H         1 MMK         0.0519
     33 H11        21.6751   58.8913   -3.6260 H         1 MMK         0.0519
     34 H12        23.9065   59.3687   -2.7211 H         1 MMK         0.0249
     35 H13        22.7725   58.8610   -1.4239 H         1 MMK         0.0249
     36 H14        23.2016   60.5949   -1.6138 H         1 MMK         0.0249
     37 H15        20.6220   58.9652   -0.7205 H         1 MMK         0.0575
     38 H16        19.9659   58.2409   -2.2277 H         1 MMK         0.0575
     39 H17        18.5792   60.2628   -0.4307 H         1 MMK         0.0834
     40 H18        18.2452   58.5004   -0.5261 H         1 MMK         0.0834
     41 H19        17.9969   60.1708   -2.8697 H         1 MMK         0.2028
     42 H20        15.7023   60.5660   -2.4013 H         1 MMK         0.0777
     43 H21        16.7986   61.3595   -1.2202 H         1 MMK         0.0777
     44 H22        15.9679   59.8272   -0.7857 H         1 MMK         0.0777
     45 H23        17.9404   57.8093   -3.1019 H         1 MMK         0.0777
     46 H24        16.3752   58.5888   -3.5128 H         1 MMK         0.0777
     47 H25        16.5888   57.7883   -1.9190 H         1 MMK         0.0777
@<TRIPOS>BOND
     1    1    2 ar 
     2    2    3 ar 
     3    2    4 1  
     4    4    5 ar 
     5    4    6 ar 
     6    5    9 ar 
     7    6    7 ar 
     8    7    8 ar 
     9    8    9 ar 
    10    9   10 1  
    11   10   11 1  
    12   11   12 1  
    13   12   13 1  
    14   13   14 2  
    15   13   15 am 
    16   15   16 1  
    17   15   18 1  
    18   16   17 1  
    19   18   19 1  
    20   19   20 1  
    21   20   21 1  
    22   20   22 1  
    23    5   23 1  
    24    6   24 1  
    25    7   25 1  
    26   10   26 1  
    27   10   27 1  
    28   11   28 1  
    29   11   29 1  
    30   12   30 1  
    31   12   31 1  
    32   16   32 1  
    33   16   33 1  
    34   17   34 1  
    35   17   35 1  
    36   17   36 1  
    37   18   37 1  
    38   18   38 1  
    39   19   39 1  
    40   19   40 1  
    41   20   41 1  
    42   21   42 1  
    43   21   43 1  
    44   21   44 1  
    45   22   45 1  
    46   22   46 1  
    47   22   47 1  
@<TRIPOS>SUBSTRUCTURE
     1 MMK         1

