### 
### Created by X-TOOL on Mon Sep 10 21:13:29 2018
### 

@<TRIPOS>MOLECULE
5fwr_ligand
   44    46     1     0     0
SMALL
GAST_HUCK


@<TRIPOS>ATOM
      1 C4          8.3900   17.0950  -12.8030 C.3       1 3X8         0.1119
      2 C5          7.3480   17.6250  -13.7680 C.3       1 3X8         0.1134
      3 C6          7.9850   17.5270  -15.1320 C.3       1 3X8         0.0730
      4 C3          7.8870   17.1840  -11.3970 C.3       1 3X8         0.1145
      5 CAH         2.4410   23.5430  -14.5150 C.ar      1 3X8        -0.0567
      6 CAI         1.6300   24.5020  -15.1340 C.ar      1 3X8        -0.0629
      7 CAJ         0.5180   24.1030  -15.8910 C.ar      1 3X8        -0.0632
      8 CAK         0.2210   22.7290  -16.0360 C.ar      1 3X8        -0.0629
      9 CAL         1.0300   21.7590  -15.4050 C.ar      1 3X8        -0.0567
     10 CAG         2.1430   22.1580  -14.6410 C.ar      1 3X8        -0.0247
     11 CAD         2.9840   21.1120  -13.9560 C.ar      1 3X8        -0.0279
     12 CAC         3.5320   21.4030  -12.7010 C.ar      1 3X8        -0.0616
     13 CAB         4.3090   20.4450  -12.0380 C.ar      1 3X8        -0.0310
     14 CAE         3.1830   19.8300  -14.4990 C.ar      1 3X8        -0.0616
     15 CAF         3.9600   18.8900  -13.8290 C.ar      1 3X8        -0.0310
     16 CAA         4.5180   19.1770  -12.5890 C.ar      1 3X8         0.0964
     17 O1          5.2910   18.2650  -11.8910 O.3       1 3X8        -0.2838
     18 C1          5.6000   16.9330  -12.3130 C.3       1 3X8         0.2101
     19 O5          6.1060   16.9230  -13.6540 O.3       1 3X8        -0.3368
     20 O6          8.2440   16.1720  -15.4820 O.3       1 3X8        -0.3924
     21 O4          9.4920   17.9470  -12.8620 O.3       1 3X8        -0.3865
     22 O3          8.9100   16.7220  -10.5700 O.3       1 3X8        -0.3864
     23 C2          6.5560   16.4370  -11.2590 C.3       1 3X8         0.1386
     24 O2          6.6850   15.0290  -11.4240 O.3       1 3X8        -0.3837
     25 H1          8.6645   16.0610  -13.0590 H         1 3X8         0.0647
     26 H2          7.1515   18.6837  -13.5434 H         1 3X8         0.0647
     27 H3          8.9337   18.0838  -15.1260 H         1 3X8         0.0584
     28 H4          7.3063   17.9669  -15.8776 H         1 3X8         0.0584
     29 H5          7.6991   18.2393  -11.1499 H         1 3X8         0.0648
     30 H6          3.3015   23.8582  -13.9360 H         1 3X8         0.0609
     31 H7          1.8619   25.5556  -15.0281 H         1 3X8         0.0614
     32 H8         -0.1123   24.8475  -16.3638 H         1 3X8         0.0605
     33 H9         -0.6294   22.4193  -16.6327 H         1 3X8         0.0614
     34 H10         0.7938   20.7062  -15.5090 H         1 3X8         0.0609
     35 H11         3.3550   22.3693  -12.2428 H         1 3X8         0.0601
     36 H12         4.7560   20.6906  -11.0815 H         1 3X8         0.0548
     37 H13         2.7270   19.5719  -15.4479 H         1 3X8         0.0601
     38 H14         4.1325   17.9199  -14.2808 H         1 3X8         0.0548
     39 H15         4.6916   16.3129  -12.2944 H         1 3X8         0.0994
     40 H16         8.6440   16.1394  -16.3431 H         1 3X8         0.2095
     41 H17         9.8563   17.9314  -13.7392 H         1 3X8         0.2100
     42 H18         9.6802   17.2655  -10.6872 H         1 3X8         0.2100
     43 H19         6.1430   16.6407  -10.2601 H         1 3X8         0.0675
     44 H20         7.2841   14.6883  -10.7703 H         1 3X8         0.2101
@<TRIPOS>BOND
     1    2    1 1  
     2    1    4 1  
     3    1   21 1  
     4    2    3 1  
     5   19    2 1  
     6    3   20 1  
     7    4   22 1  
     8    4   23 1  
     9    5    6 ar 
    10   10    5 ar 
    11    6    7 ar 
    12    8    7 ar 
    13    9    8 ar 
    14   10    9 ar 
    15   11   10 1  
    16   12   11 ar 
    17   14   11 ar 
    18   13   12 ar 
    19   16   13 ar 
    20   15   14 ar 
    21   16   15 ar 
    22   17   16 1  
    23   18   17 1  
    24   18   19 1  
    25   18   23 1  
    26   23   24 1  
    27    1   25 1  
    28    2   26 1  
    29    3   27 1  
    30    3   28 1  
    31    4   29 1  
    32    5   30 1  
    33    6   31 1  
    34    7   32 1  
    35    8   33 1  
    36    9   34 1  
    37   12   35 1  
    38   13   36 1  
    39   14   37 1  
    40   15   38 1  
    41   18   39 1  
    42   20   40 1  
    43   21   41 1  
    44   22   42 1  
    45   23   43 1  
    46   24   44 1  
@<TRIPOS>SUBSTRUCTURE
     1 3X8         1

