### 
### Created by X-TOOL on Wed Jan  1 15:39:34 2020
### 

@<TRIPOS>MOLECULE
5fxq_ligand
   51    55     1     0     0
SMALL
GAST_HUCK


@<TRIPOS>ATOM
      1 C1          8.0030   -3.3010   54.4760 C.3       1 GD5        -0.0085
      2 C2          8.9180   -3.4250   53.3370 C.2       1 GD5         0.0835
      3 C3         10.1960   -2.9760   53.1440 C.2       1 GD5         0.0740
      4 C4         10.5850   -3.3940   51.8420 C.2       1 GD5         0.0088
      5 N1          9.5900   -4.0690   51.2570 N.2       1 GD5        -0.2366
      6 N2          8.6060   -4.0700   52.1780 N.pl3     1 GD5        -0.2120
      7 C5          7.3350   -4.7280   51.9260 C.3       1 GD5         0.0863
      8 C6          6.4560   -3.9080   51.0260 C.3       1 GD5         0.0191
      9 C7          5.1500   -4.6350   50.8170 C.3       1 GD5        -0.0308
     10 N3          5.5290   -5.8680   50.0780 N.4       1 GD5         0.2271
     11 C8          6.2860   -6.7940   50.9510 C.3       1 GD5        -0.0308
     12 C9          7.5760   -6.1120   51.3700 C.3       1 GD5         0.0191
     13 N4         10.8840   -2.2710   54.0670 N.pl3     1 GD5        -0.2679
     14 C10        12.2640   -2.3520   54.1980 C.ar      1 GD5         0.1868
     15 N5         12.8200   -1.4580   55.0250 N.ar      1 GD5        -0.2663
     16 C11        14.1440   -1.5310   55.1530 C.ar      1 GD5         0.0161
     17 C12        14.8780   -2.4570   54.4730 C.ar      1 GD5         0.0738
     18 C13        14.2150   -3.3440   53.6490 C.ar      1 GD5         0.0765
     19 N6         12.9000   -3.3010   53.4980 N.ar      1 GD5        -0.2637
     20 C14        14.8980   -4.4080   52.8610 C.2       1 GD5         0.1195
     21 C15        16.2470   -4.4760   52.5770 C.2       1 GD5        -0.0066
     22 N7         16.4000   -5.6090   51.7950 N.2       1 GD5        -0.3264
     23 C16        15.2260   -6.2180   51.5930 C.2       1 GD5         0.1449
     24 N8         14.3060   -5.5160   52.2420 N.pl3     1 GD5        -0.1916
     25 C17        12.9790   -5.8790   52.2370 C.2       1 GD5         0.0871
     26 C18        12.6220   -6.9760   51.5540 C.2       1 GD5        -0.0201
     27 C19        13.5730   -7.7850   50.8230 C.2       1 GD5        -0.0554
     28 C20        14.8690   -7.4300   50.8240 C.2       1 GD5        -0.0110
     29 CL         16.5660   -2.4070   54.7380 Cl        1 GD5        -0.0724
     30 H1          8.4954   -2.7374   55.2822 H         1 GD5         0.0401
     31 H2          7.7337   -4.3032   54.8408 H         1 GD5         0.0401
     32 H3          7.0935   -2.7693   54.1596 H         1 GD5         0.0401
     33 H4         11.5537   -3.1934   51.3868 H         1 GD5         0.0600
     34 H5          6.8135   -4.8370   52.8884 H         1 GD5         0.0666
     35 H6          6.9553   -3.7614   50.0569 H         1 GD5         0.0348
     36 H7          6.2630   -2.9299   51.4907 H         1 GD5         0.0348
     37 H8          4.4545   -4.0235   50.2235 H         1 GD5         0.0815
     38 H9          4.6855   -4.8865   51.7818 H         1 GD5         0.0815
     39 H10         6.1020   -5.6165   49.2878 H         1 GD5         0.2013
     40 H11         4.6932   -6.3288   49.7538 H         1 GD5         0.2013
     41 H12         6.5164   -7.7182   50.4008 H         1 GD5         0.0815
     42 H13         5.6881   -7.0369   51.8418 H         1 GD5         0.0815
     43 H14         8.0655   -6.7237   52.1421 H         1 GD5         0.0348
     44 H15         8.2353   -6.0317   50.4931 H         1 GD5         0.0348
     45 H16        10.3638   -1.6472   54.7003 H         1 GD5         0.2043
     46 H17        14.6502   -0.8370   55.8142 H         1 GD5         0.0860
     47 H18        17.0253   -3.7858   52.8991 H         1 GD5         0.0630
     48 H19        12.2372   -5.2900   52.7744 H         1 GD5         0.1245
     49 H20        11.5735   -7.2701   51.5492 H         1 GD5         0.0574
     50 H21        13.2431   -8.6692   50.2796 H         1 GD5         0.0676
     51 H22        15.6196   -8.0063   50.2851 H         1 GD5         0.0602
@<TRIPOS>BOND
     1    1    2 1  
     2    2    3 2  
     3    2    6 1  
     4    3    4 1  
     5    3   13 1  
     6    4    5 2  
     7    5    6 1  
     8    6    7 1  
     9    7    8 1  
    10    7   12 1  
    11    8    9 1  
    12    9   10 1  
    13   10   11 1  
    14   11   12 1  
    15   13   14 1  
    16   14   15 ar 
    17   14   19 ar 
    18   15   16 ar 
    19   16   17 ar 
    20   17   18 ar 
    21   17   29 1  
    22   18   19 ar 
    23   18   20 1  
    24   20   21 2  
    25   20   24 1  
    26   21   22 1  
    27   22   23 2  
    28   23   24 1  
    29   23   28 1  
    30   24   25 1  
    31   25   26 2  
    32   26   27 1  
    33   27   28 2  
    34    1   30 1  
    35    1   31 1  
    36    1   32 1  
    37    4   33 1  
    38    7   34 1  
    39    8   35 1  
    40    8   36 1  
    41    9   37 1  
    42    9   38 1  
    43   10   39 1  
    44   10   40 1  
    45   11   41 1  
    46   11   42 1  
    47   12   43 1  
    48   12   44 1  
    49   13   45 1  
    50   16   46 1  
    51   21   47 1  
    52   25   48 1  
    53   26   49 1  
    54   27   50 1  
    55   28   51 1  
@<TRIPOS>SUBSTRUCTURE
     1 GD5         1

