### 
### Created by X-TOOL on Wed Jan  1 15:39:34 2020
### 

@<TRIPOS>MOLECULE
5fxr_ligand
   51    55     1     0     0
SMALL
GAST_HUCK


@<TRIPOS>ATOM
      1 C1         11.9070   -2.9010   51.3130 C.3       1 8LN        -0.0275
      2 C2          9.4250   -3.6230   53.7240 C.2       1 8LN         0.0616
      3 C3         10.6190   -3.0280   53.4160 C.2       1 8LN         0.0783
      4 C4         10.8660   -3.2920   52.0460 C.2       1 8LN         0.0325
      5 N1          9.8710   -4.0200   51.5160 N.2       1 8LN        -0.2322
      6 N2          9.0320   -4.2030   52.5540 N.pl3     1 8LN        -0.2238
      7 C5          7.7810   -4.9270   52.4330 C.3       1 8LN         0.0837
      8 C6          6.7420   -4.0000   51.8490 C.3       1 8LN         0.0189
      9 C7          5.3910   -4.6860   51.7650 C.3       1 8LN        -0.0308
     10 N3          5.5930   -5.9260   50.9860 N.4       1 8LN         0.2271
     11 C8          6.5600   -6.8550   51.6140 C.3       1 8LN        -0.0308
     12 C9          7.8890   -6.1420   51.5630 C.3       1 8LN         0.0189
     13 N4         11.3500   -2.3230   54.2950 N.pl3     1 8LN        -0.2631
     14 C10        12.7250   -2.4270   54.4240 C.ar      1 8LN         0.1889
     15 N5         13.3040   -1.5040   55.2060 N.ar      1 8LN        -0.2655
     16 C11        14.6290   -1.5940   55.3250 C.ar      1 8LN         0.0165
     17 C12        15.3410   -2.5740   54.6850 C.ar      1 8LN         0.0742
     18 C13        14.6520   -3.4950   53.9290 C.ar      1 8LN         0.0769
     19 N6         13.3320   -3.4340   53.7870 N.ar      1 8LN        -0.2629
     20 C14        15.2950   -4.5820   53.1560 C.2       1 8LN         0.1196
     21 C15        16.6240   -4.7610   52.8500 C.2       1 8LN        -0.0066
     22 N7         16.7570   -5.8750   52.0350 N.2       1 8LN        -0.3264
     23 C16        15.5250   -6.3630   51.8310 C.2       1 8LN         0.1449
     24 N8         14.5960   -5.5940   52.5220 N.pl3     1 8LN        -0.1916
     25 C17        13.2640   -5.8750   52.4960 C.2       1 8LN         0.0871
     26 C18        12.8430   -6.9250   51.7760 C.2       1 8LN        -0.0201
     27 C19        13.7580   -7.7580   51.0330 C.2       1 8LN        -0.0554
     28 C20        15.0670   -7.4830   51.0610 C.2       1 8LN        -0.0110
     29 CL         17.0280   -2.5880   54.8830 Cl        1 8LN        -0.0721
     30 H1         11.7925   -3.2748   50.2848 H         1 8LN         0.0367
     31 H2         12.8337   -3.3032   51.7482 H         1 8LN         0.0367
     32 H3         11.9546   -1.8021   51.3005 H         1 8LN         0.0367
     33 H4          8.9082   -3.6312   54.6825 H         1 8LN         0.0813
     34 H5          7.4629   -5.2446   53.4369 H         1 8LN         0.0665
     35 H6          7.0559   -3.6977   50.8390 H         1 8LN         0.0348
     36 H7          6.6544   -3.1089   52.4879 H         1 8LN         0.0348
     37 H8          4.6652   -4.0335   51.2577 H         1 8LN         0.0815
     38 H9          5.0248   -4.9273   52.7738 H         1 8LN         0.0815
     39 H10         5.9346   -5.6779   50.0707 H         1 8LN         0.2013
     40 H11         4.7064   -6.3974   50.8975 H         1 8LN         0.2013
     41 H12         6.6077   -7.7993   51.0518 H         1 8LN         0.0815
     42 H13         6.2740   -7.0625   52.6557 H         1 8LN         0.0815
     43 H14         8.6845   -6.8029   51.9377 H         1 8LN         0.0348
     44 H15         8.1162   -5.8445   50.5287 H         1 8LN         0.0348
     45 H16        10.8564   -1.6628   54.9126 H         1 8LN         0.2066
     46 H17        15.1551   -0.8750   55.9425 H         1 8LN         0.0861
     47 H18        17.4415   -4.1286   53.1931 H         1 8LN         0.0630
     48 H19        12.5553   -5.2598   53.0484 H         1 8LN         0.1245
     49 H20        11.7791   -7.1561   51.7511 H         1 8LN         0.0574
     50 H21        13.3863   -8.6027   50.4549 H         1 8LN         0.0676
     51 H22        15.7737   -8.0999   50.5078 H         1 8LN         0.0602
@<TRIPOS>BOND
     1    4    1 1  
     2    3    2 2  
     3    2    6 1  
     4    3    4 1  
     5    3   13 1  
     6    4    5 2  
     7    5    6 1  
     8    6    7 1  
     9    7    8 1  
    10    7   12 1  
    11    8    9 1  
    12    9   10 1  
    13   10   11 1  
    14   11   12 1  
    15   13   14 1  
    16   14   15 ar 
    17   14   19 ar 
    18   15   16 ar 
    19   16   17 ar 
    20   17   18 ar 
    21   17   29 1  
    22   18   19 ar 
    23   18   20 1  
    24   20   21 2  
    25   20   24 1  
    26   21   22 1  
    27   22   23 2  
    28   23   24 1  
    29   23   28 1  
    30   24   25 1  
    31   25   26 2  
    32   26   27 1  
    33   27   28 2  
    34    1   30 1  
    35    1   31 1  
    36    1   32 1  
    37    2   33 1  
    38    7   34 1  
    39    8   35 1  
    40    8   36 1  
    41    9   37 1  
    42    9   38 1  
    43   10   39 1  
    44   10   40 1  
    45   11   41 1  
    46   11   42 1  
    47   12   43 1  
    48   12   44 1  
    49   13   45 1  
    50   16   46 1  
    51   21   47 1  
    52   25   48 1  
    53   26   49 1  
    54   27   50 1  
    55   28   51 1  
@<TRIPOS>SUBSTRUCTURE
     1 8LN         1

