### 
### Created by X-TOOL on Wed Jan  1 15:39:34 2020
### 

@<TRIPOS>MOLECULE
5fxs_ligand
   67    71     1     0     0
SMALL
GAST_HUCK


@<TRIPOS>ATOM
      1 C28        16.2790   -4.3860   52.8210 C.2       1 OZN         0.0010
      2 C23        14.2750   -1.2270   55.3720 C.ar      1 OZN         0.0120
      3 C27        14.9330   -4.1590   53.1770 C.2       1 OZN         0.0193
      4 C3         10.2670   -2.5660   53.4770 C.2       1 OZN         0.0771
      5 C24        14.9850   -2.2050   54.7280 C.ar      1 OZN         0.0654
      6 C25        14.3010   -3.0900   53.9240 C.ar      1 OZN         0.0334
      7 C31        14.2550   -5.1930   52.5800 C.2       1 OZN         0.1199
      8 C2         10.5180   -2.8650   52.0990 C.2       1 OZN         0.0200
      9 C4          9.1080   -3.1690   53.7670 C.2       1 OZN         0.0789
     10 C21        12.3950   -1.9870   54.4310 C.ar      1 OZN         0.1817
     11 C32        12.9140   -5.5880   52.5150 C.2       1 OZN        -0.0186
     12 C33        12.5490   -6.7070   51.8160 C.2       1 OZN        -0.0539
     13 C34        13.4880   -7.4660   51.1600 C.2       1 OZN        -0.0164
     14 C35        14.8110   -7.0950   51.2170 C.2       1 OZN         0.1041
     15 C14         3.3750   -5.5590   49.5330 C.2       1 OZN         0.2235
     16 C8          6.3210   -3.6400   51.9660 C.3       1 OZN         0.0185
     17 C12         7.4440   -5.7250   51.6850 C.3       1 OZN         0.0185
     18 C9          4.9990   -4.3190   52.1230 C.3       1 OZN        -0.0272
     19 C11         6.1480   -6.4610   51.7960 C.3       1 OZN        -0.0272
     20 C7          7.3900   -4.5040   52.5060 C.3       1 OZN         0.0830
     21 C1         11.6380   -2.4630   51.1940 C.3       1 OZN        -0.0303
     22 C19         8.2760   -3.0540   55.0100 C.3       1 OZN        -0.0095
     23 C17         3.1720   -7.1820   51.3030 C.3       1 OZN         0.0224
     24 C18         1.2210   -6.5760   49.8900 C.3       1 OZN         0.0224
     25 C13         4.8300   -5.4630   49.9680 C.3       1 OZN         0.0581
     26 N22        12.9640   -1.0880   55.2370 N.ar      1 OZN        -0.2706
     27 N29        16.4430   -5.4590   52.0790 N.2       1 OZN        -0.2034
     28 N26        12.9920   -2.9820   53.7700 N.ar      1 OZN        -0.2731
     29 N6          9.5310   -3.6210   51.6130 N.2       1 OZN        -0.2458
     30 N30        15.1920   -5.9890   51.9130 N.pl3     1 OZN        -0.1466
     31 N5          8.6710   -3.8120   52.6780 N.pl3     1 OZN        -0.2209
     32 N10         4.9480   -5.6360   51.4160 N.4       1 OZN         0.2522
     33 N20        11.0460   -1.8290   54.2840 N.pl3     1 OZN        -0.2699
     34 N16         2.6100   -6.4180   50.2270 N.am      1 OZN        -0.2750
     35 O15         2.9070   -4.9010   48.6190 O.2       1 OZN        -0.3910
     36 CL36       16.6830   -2.2670   54.9590 Cl        1 OZN        -0.0757
     37 H1         17.0986   -3.7386   53.1293 H         1 OZN         0.0696
     38 H2         14.8070   -0.5385   56.0185 H         1 OZN         0.0848
     39 H3         12.1533   -4.9993   53.0256 H         1 OZN         0.0619
     40 H4         11.5007   -6.9995   51.7794 H         1 OZN         0.0678
     41 H5         13.1879   -8.3513   50.6013 H         1 OZN         0.0594
     42 H6         15.5611   -7.6919   50.7003 H         1 OZN         0.1266
     43 H7          6.3098   -2.6862   52.5138 H         1 OZN         0.0347
     44 H8          6.5094   -3.4481   50.8994 H         1 OZN         0.0347
     45 H9          7.6213   -5.4521   50.6343 H         1 OZN         0.0347
     46 H10         8.2623   -6.3688   52.0398 H         1 OZN         0.0347
     47 H11         4.2153   -3.6662   51.7111 H         1 OZN         0.0816
     48 H12         4.8121   -4.4855   53.1941 H         1 OZN         0.0816
     49 H13         6.0253   -6.7927   52.8376 H         1 OZN         0.0816
     50 H14         6.1894   -7.3386   51.1341 H         1 OZN         0.0816
     51 H15         7.0793   -4.8123   53.5152 H         1 OZN         0.0659
     52 H16        11.4758   -2.8952   50.1956 H         1 OZN         0.0364
     53 H17        12.5902   -2.8319   51.6029 H         1 OZN         0.0364
     54 H18        11.6721   -1.3662   51.1176 H         1 OZN         0.0364
     55 H19         8.8317   -2.4878   55.7720 H         1 OZN         0.0400
     56 H20         8.0488   -4.0596   55.3935 H         1 OZN         0.0400
     57 H21         7.3375   -2.5302   54.7759 H         1 OZN         0.0400
     58 H22         2.3937   -7.8224   51.7436 H         1 OZN         0.0486
     59 H23         3.5638   -6.4996   52.0717 H         1 OZN         0.0486
     60 H24         3.9894   -7.8099   50.9190 H         1 OZN         0.0486
     61 H25         0.9708   -5.9152   49.0470 H         1 OZN         0.0486
     62 H26         0.6005   -6.3124   50.7592 H         1 OZN         0.0486
     63 H27         1.0292   -7.6212   49.6060 H         1 OZN         0.0486
     64 H28         5.2263   -4.4756   49.6886 H         1 OZN         0.1063
     65 H29         5.4110   -6.2480   49.4618 H         1 OZN         0.1063
     66 H30         4.1249   -6.1259   51.7300 H         1 OZN         0.2053
     67 H31        10.5916   -1.0869   54.8351 H         1 OZN         0.2034
@<TRIPOS>BOND
     1    3    1 1  
     2    1   27 2  
     3    2    5 ar 
     4   26    2 ar 
     5    6    3 1  
     6    3    7 2  
     7    4    8 1  
     8    9    4 2  
     9    4   33 1  
    10    6    5 ar 
    11    5   36 1  
    12   28    6 ar 
    13    7   11 1  
    14    7   30 1  
    15    8   21 1  
    16    8   29 2  
    17    9   22 1  
    18   31    9 1  
    19   10   26 ar 
    20   10   28 ar 
    21   33   10 1  
    22   11   12 2  
    23   12   13 1  
    24   14   13 2  
    25   30   14 1  
    26   25   15 1  
    27   15   34 am 
    28   15   35 2  
    29   18   16 1  
    30   16   20 1  
    31   19   17 1  
    32   17   20 1  
    33   32   18 1  
    34   32   19 1  
    35   20   31 1  
    36   34   23 1  
    37   34   24 1  
    38   25   32 1  
    39   27   30 1  
    40   29   31 1  
    41    1   37 1  
    42    2   38 1  
    43   11   39 1  
    44   12   40 1  
    45   13   41 1  
    46   14   42 1  
    47   16   43 1  
    48   16   44 1  
    49   17   45 1  
    50   17   46 1  
    51   18   47 1  
    52   18   48 1  
    53   19   49 1  
    54   19   50 1  
    55   20   51 1  
    56   21   52 1  
    57   21   53 1  
    58   21   54 1  
    59   22   55 1  
    60   22   56 1  
    61   22   57 1  
    62   23   58 1  
    63   23   59 1  
    64   23   60 1  
    65   24   61 1  
    66   24   62 1  
    67   24   63 1  
    68   25   64 1  
    69   25   65 1  
    70   32   66 1  
    71   33   67 1  
@<TRIPOS>SUBSTRUCTURE
     1 OZN         1

