### 
### Created by X-TOOL on Mon Sep 10 21:13:34 2018
### 

@<TRIPOS>MOLECULE
5fyx_ligand
   51    54     1     0     0
SMALL
GAST_HUCK


@<TRIPOS>ATOM
      1 SAQ        11.5350  -23.9120  -19.0870 S.3       1 FD6        -0.0555
      2 CAR        14.8940  -23.6380  -16.1060 C.ar      1 FD6         0.0225
      3 NAY        13.2340  -21.4120  -18.5510 N.pl3     1 FD6        -0.2590
      4 CAE        14.2030  -24.8140  -16.2610 C.ar      1 FD6        -0.0662
      5 NAX        15.5290  -18.8250  -15.9640 N.4       1 FD6         0.3329
      6 CAH        13.1780  -24.8740  -17.1800 C.ar      1 FD6        -0.0572
      7 NAP        15.7800  -19.6170  -17.1600 N.4       1 FD6         0.3234
      8 NAW        13.7820  -17.6130  -14.0660 N.4       1 FD6         0.2406
      9 CAT        12.8630  -23.7610  -17.9580 C.ar      1 FD6         0.0510
     10 CAV        13.5530  -22.5550  -17.7810 C.ar      1 FD6         0.0756
     11 CAI        14.5840  -22.5130  -16.8410 C.ar      1 FD6        -0.0313
     12 CAS        11.7890  -22.5540  -20.1620 C.ar      1 FD6         0.0508
     13 CAF        11.1280  -22.5660  -21.3870 C.ar      1 FD6        -0.0579
     14 CAC        11.2820  -21.5130  -22.2640 C.ar      1 FD6        -0.0802
     15 CAD        12.0650  -20.4410  -21.9240 C.ar      1 FD6        -0.0795
     16 CLAB       16.1870  -23.5600  -14.9430 Cl        1 FD6        -0.0801
     17 CAG        12.7040  -20.4000  -20.6970 C.ar      1 FD6        -0.0451
     18 CAU        12.5750  -21.4560  -19.7950 C.ar      1 FD6         0.0751
     19 CAO        13.4280  -20.0760  -17.9360 C.3       1 FD6         0.0833
     20 CAJ        14.8020  -19.4390  -18.2180 C.3       1 FD6         0.0164
     21 CAN        14.7970  -19.6220  -14.9750 C.3       1 FD6         0.0363
     22 CAL        14.5420  -18.8110  -13.7460 C.3       1 FD6         0.0107
     23 CAK        14.5340  -16.8090  -15.0220 C.3       1 FD6         0.0107
     24 CAM        14.8070  -17.5950  -16.2870 C.3       1 FD6         0.0363
     25 CAA        13.5100  -16.8480  -12.8550 C.3       1 FD6        -0.0427
     26 H1         14.4604  -25.6842  -15.6681 H         1 FD6         0.0501
     27 H2         16.4182  -18.5680  -15.5649 H         1 FD6         0.2355
     28 H3         12.6135  -25.7918  -17.2986 H         1 FD6         0.0530
     29 H4         15.7856  -20.5902  -16.8974 H         1 FD6         0.2327
     30 H5         16.6853  -19.3614  -17.5223 H         1 FD6         0.2327
     31 H6         12.9046  -17.8822  -14.4829 H         1 FD6         0.2035
     32 H7         15.1412  -21.5958  -16.6887 H         1 FD6         0.0507
     33 H8         10.4922  -23.4031  -21.6516 H         1 FD6         0.0529
     34 H9         10.7820  -21.5333  -23.2256 H         1 FD6         0.0494
     35 H10        12.1847  -19.6194  -22.6209 H         1 FD6         0.0529
     36 H11        13.3097  -19.5401  -20.4349 H         1 FD6         0.0502
     37 H12        13.3135  -20.1787  -16.8468 H         1 FD6         0.0611
     38 H13        12.6502  -19.4022  -18.3245 H         1 FD6         0.0611
     39 H14        15.2059  -19.8879  -19.1375 H         1 FD6         0.0851
     40 H15        14.6547  -18.3597  -18.3709 H         1 FD6         0.0851
     41 H16        15.3928  -20.5075  -14.7089 H         1 FD6         0.0883
     42 H17        13.8364  -19.9420  -15.4050 H         1 FD6         0.0883
     43 H18        13.9732  -19.4172  -13.0256 H         1 FD6         0.0868
     44 H19        15.5045  -18.5192  -13.3005 H         1 FD6         0.0868
     45 H20        15.4910  -16.5110  -14.5689 H         1 FD6         0.0868
     46 H21        13.9521  -15.9103  -15.2742 H         1 FD6         0.0868
     47 H22        13.8526  -17.8490  -16.7714 H         1 FD6         0.0883
     48 H23        15.4146  -16.9847  -16.9714 H         1 FD6         0.0883
     49 H24        12.9429  -17.4708  -12.1475 H         1 FD6         0.0778
     50 H25        12.9215  -15.9544  -13.1102 H         1 FD6         0.0778
     51 H26        14.4604  -16.5417  -12.3936 H         1 FD6         0.0778
@<TRIPOS>BOND
     1    9    1 1  
     2   12    1 1  
     3    2    4 ar 
     4   11    2 ar 
     5    2   16 1  
     6    3   10 1  
     7    3   18 1  
     8   19    3 1  
     9    6    4 ar 
    10    5    7 1  
    11   21    5 1  
    12    5   24 1  
    13    9    6 ar 
    14    7   20 1  
    15   22    8 1  
    16    8   23 1  
    17    8   25 1  
    18   10    9 ar 
    19   10   11 ar 
    20   12   13 ar 
    21   18   12 ar 
    22   13   14 ar 
    23   15   14 ar 
    24   17   15 ar 
    25   18   17 ar 
    26   20   19 1  
    27   21   22 1  
    28   23   24 1  
    29    4   26 1  
    30    5   27 1  
    31    6   28 1  
    32    7   29 1  
    33    7   30 1  
    34    8   31 1  
    35   11   32 1  
    36   13   33 1  
    37   14   34 1  
    38   15   35 1  
    39   17   36 1  
    40   19   37 1  
    41   19   38 1  
    42   20   39 1  
    43   20   40 1  
    44   21   41 1  
    45   21   42 1  
    46   22   43 1  
    47   22   44 1  
    48   23   45 1  
    49   23   46 1  
    50   24   47 1  
    51   24   48 1  
    52   25   49 1  
    53   25   50 1  
    54   25   51 1  
@<TRIPOS>SUBSTRUCTURE
     1 FD6         1

