### 
### Created by X-TOOL on Mon Sep 10 21:13:30 2018
### 

@<TRIPOS>MOLECULE
5g0q_ligand
   52    52     1     0     0
SMALL
GAST_HUCK


@<TRIPOS>ATOM
      1 O6        -30.7950   10.9490   23.5590 O.co2     1 IF6        -0.5684
      2 C6        -31.4670   11.2580   22.5150 C.2       1 IF6         0.0458
      3 O7        -31.6090   12.4390   22.0680 O.co2     1 IF6        -0.5684
      4 C5        -32.1160   10.0930   21.7820 C.3       1 IF6         0.0829
      5 C4        -31.3880    9.9180   20.4450 C.3       1 IF6         0.1028
      6 O4        -30.0170    9.5910   20.7700 O.3       1 IF6        -0.3869
      7 C3        -32.0260    8.8670   19.5760 C.3       1 IF6         0.1090
      8 O3        -31.2740    8.7310   18.3170 O.3       1 IF6        -0.3865
      9 C2        -33.4930    9.2050   19.3240 C.3       1 IF6         0.0888
     10 O         -34.0230    8.2720   18.4290 O.3       1 IF6        -0.3889
     11 C1        -34.2040    9.1680   20.6560 C.3       1 IF6         0.0208
     12 C         -33.6290   10.2740   21.5230 C.3       1 IF6        -0.0032
     13 N1        -34.0480   11.6340   21.0070 N.4       1 IF6         0.2307
     14 C7        -35.0220   12.3670   21.8920 C.3       1 IF6        -0.0333
     15 C8        -35.2100   13.7910   21.5020 C.3       1 IF6        -0.0126
     16 C9        -36.1920   14.5210   22.4210 C.3       1 IF6        -0.0483
     17 C16       -36.2870   16.0350   22.0830 C.3       1 IF6        -0.0529
     18 C17       -37.2810   16.6860   23.0400 C.3       1 IF6        -0.0529
     19 C18       -37.9250   18.0090   22.5590 C.3       1 IF6        -0.0483
     20 C19       -39.3370   18.1700   23.1830 C.3       1 IF6         0.0029
     21 C21       -39.3990   18.0610   24.7420 C.3       1 IF6         0.2089
     22 N22       -39.8320   16.7060   25.1810 N.2       1 IF6         0.1658
     23 N25       -39.3350   15.9810   26.0030 N.1       1 IF6         0.1292
     24 N26       -38.8460   15.2530   26.8210 N.1       1 IF6         0.2334
     25 H1        -31.9820    9.1856   22.3891 H         1 IF6         0.0548
     26 H2        -31.4113   10.8710   19.8962 H         1 IF6         0.0643
     27 H3        -29.6355   10.2982   21.2768 H         1 IF6         0.2101
     28 H4        -31.9836    7.9043   20.1065 H         1 IF6         0.0646
     29 H5        -30.3791    8.4772   18.5098 H         1 IF6         0.2100
     30 H6        -33.5790   10.2122   18.8904 H         1 IF6         0.0622
     31 H7        -33.9523    7.4012   18.8022 H         1 IF6         0.2099
     32 H8        -34.0428    8.1928   21.1387 H         1 IF6         0.0347
     33 H9        -35.2819    9.3307   20.5089 H         1 IF6         0.0347
     34 H10       -34.1063   10.1719   22.5088 H         1 IF6         0.0874
     35 H11       -34.4767   11.5091   20.1033 H         1 IF6         0.2017
     36 H12       -33.2211   12.2024   20.9110 H         1 IF6         0.2017
     37 H13       -34.6483   12.3340   22.9260 H         1 IF6         0.0814
     38 H14       -35.9956   11.8580   21.8375 H         1 IF6         0.0814
     39 H15       -35.5954   13.8277   20.4724 H         1 IF6         0.0317
     40 H16       -34.2368   14.3016   21.5477 H         1 IF6         0.0317
     41 H17       -35.8545   14.4097   23.4620 H         1 IF6         0.0267
     42 H18       -37.1882   14.0684   22.3081 H         1 IF6         0.0267
     43 H19       -36.6328   16.1623   21.0466 H         1 IF6         0.0265
     44 H20       -35.2987   16.5036   22.2001 H         1 IF6         0.0265
     45 H21       -36.7534   16.8927   23.9828 H         1 IF6         0.0265
     46 H22       -38.0915   15.9654   23.2237 H         1 IF6         0.0265
     47 H23       -38.0109   17.9947   21.4625 H         1 IF6         0.0267
     48 H24       -37.2925   18.8548   22.8663 H         1 IF6         0.0267
     49 H25       -39.9851   17.3871   22.7623 H         1 IF6         0.0316
     50 H26       -39.7236   19.1592   22.8966 H         1 IF6         0.0316
     51 H27       -40.1138   18.8049   25.1235 H         1 IF6         0.0957
     52 H28       -38.4002   18.2672   25.1541 H         1 IF6         0.0957
@<TRIPOS>BOND
     1    1    2 ar 
     2    2    3 ar 
     3    2    4 1  
     4    4    5 1  
     5    4   12 1  
     6    5    6 1  
     7    5    7 1  
     8    7    8 1  
     9    7    9 1  
    10    9   10 1  
    11    9   11 1  
    12   11   12 1  
    13   12   13 1  
    14   13   14 1  
    15   14   15 1  
    16   15   16 1  
    17   16   17 1  
    18   17   18 1  
    19   18   19 1  
    20   19   20 1  
    21   20   21 1  
    22   21   22 1  
    23   22   23 2  
    24   23   24 3  
    25    4   25 1  
    26    5   26 1  
    27    6   27 1  
    28    7   28 1  
    29    8   29 1  
    30    9   30 1  
    31   10   31 1  
    32   11   32 1  
    33   11   33 1  
    34   12   34 1  
    35   13   35 1  
    36   13   36 1  
    37   14   37 1  
    38   14   38 1  
    39   15   39 1  
    40   15   40 1  
    41   16   41 1  
    42   16   42 1  
    43   17   43 1  
    44   17   44 1  
    45   18   45 1  
    46   18   46 1  
    47   19   47 1  
    48   19   48 1  
    49   20   49 1  
    50   20   50 1  
    51   21   51 1  
    52   21   52 1  
@<TRIPOS>SUBSTRUCTURE
     1 IF6         1

