### 
### Created by X-TOOL on Mon Sep 10 21:13:26 2018
### 

@<TRIPOS>MOLECULE
5g10_ligand
   42    42     1     0     0
SMALL
GAST_HUCK


@<TRIPOS>ATOM
      1 N         -20.8690    4.3430   -1.5750 N.am      1 6DK        -0.2339
      2 C1        -19.7440    5.8820    8.3240 C.3       1 6DK         0.2629
      3 O1        -18.7040    6.8100    8.1400 O.3       1 6DK        -0.3581
      4 C2        -19.9590    5.0480    7.0440 C.3       1 6DK         0.0101
      5 O2        -20.7350    6.8640    8.5800 O.3       1 6DK        -0.3581
      6 C3        -20.2350    5.8200    5.7570 C.3       1 6DK        -0.0479
      7 C4        -20.6490    4.8310    4.6630 C.3       1 6DK        -0.0527
      8 C5        -20.6230    5.4570    3.2670 C.3       1 6DK        -0.0510
      9 C6        -20.8970    4.3850    2.2040 C.3       1 6DK        -0.0356
     10 C7        -21.0080    5.0120    0.8010 C.3       1 6DK         0.0432
     11 C8        -20.9690    3.9370   -0.2800 C.2       1 6DK         0.2036
     12 C9        -20.9340    3.4890   -2.6760 C.ar      1 6DK         0.0662
     13 C10       -21.6380    3.9530   -3.7880 C.ar      1 6DK        -0.0413
     14 C11       -21.8920    3.1510   -4.9150 C.ar      1 6DK        -0.0755
     15 C12       -21.4380    1.8280   -4.9440 C.ar      1 6DK        -0.0772
     16 C13       -20.7430    1.3270   -3.8210 C.ar      1 6DK        -0.0755
     17 C14       -20.5020    2.1460   -2.7110 C.ar      1 6DK        -0.0413
     18 F2        -20.4740    4.1320    9.7250 F         1 6DK        -0.1654
     19 C         -19.4680    4.9530    9.5180 C.3       1 6DK         0.4438
     20 F         -18.4070    4.2250    9.2830 F         1 6DK        -0.1654
     21 F1        -19.2620    5.6610   10.6120 F         1 6DK        -0.1654
     22 O         -21.0280    2.7740    0.0920 O.2       1 6DK        -0.3849
     23 H1        -20.7403    5.3193   -1.7490 H         1 6DK         0.2257
     24 H2        -17.8978    6.3462    7.9462 H         1 6DK         0.2130
     25 H3        -20.8153    4.3808    7.2217 H         1 6DK         0.0320
     26 H4        -19.0524    4.4462    6.8829 H         1 6DK         0.0320
     27 H5        -20.4858    7.3725    9.3428 H         1 6DK         0.2130
     28 H6        -19.3260    6.3554    5.4456 H         1 6DK         0.0267
     29 H7        -21.0464    6.5430    5.9271 H         1 6DK         0.0267
     30 H8        -21.6700    4.4796    4.8730 H         1 6DK         0.0265
     31 H9        -19.9565    3.9765    4.6794 H         1 6DK         0.0265
     32 H10       -19.6341    5.9038    3.0868 H         1 6DK         0.0267
     33 H11       -21.3952    6.2378    3.2038 H         1 6DK         0.0267
     34 H12       -21.8405    3.8731    2.4445 H         1 6DK         0.0290
     35 H13       -20.0731    3.6562    2.2078 H         1 6DK         0.0290
     36 H14       -20.1682    5.7060    0.6492 H         1 6DK         0.0508
     37 H15       -21.9571    5.5630    0.7268 H         1 6DK         0.0508
     38 H16       -22.0040    4.9733   -3.7829 H         1 6DK         0.0502
     39 H17       -22.4381    3.5568   -5.7589 H         1 6DK         0.0577
     40 H18       -21.6158    1.2007   -5.8100 H         1 6DK         0.0487
     41 H19       -20.3936    0.3009   -3.8184 H         1 6DK         0.0577
     42 H20       -19.9709    1.7387   -1.8583 H         1 6DK         0.0502
@<TRIPOS>BOND
     1   11    1 am 
     2    1   12 1  
     3    2    3 1  
     4    4    2 1  
     5    2    5 1  
     6    2   19 1  
     7    6    4 1  
     8    7    6 1  
     9    8    7 1  
    10    9    8 1  
    11   10    9 1  
    12   10   11 1  
    13   11   22 2  
    14   12   13 ar 
    15   12   17 ar 
    16   13   14 ar 
    17   14   15 ar 
    18   15   16 ar 
    19   16   17 ar 
    20   19   18 1  
    21   19   20 1  
    22   19   21 1  
    23    1   23 1  
    24    3   24 1  
    25    4   25 1  
    26    4   26 1  
    27    5   27 1  
    28    6   28 1  
    29    6   29 1  
    30    7   30 1  
    31    7   31 1  
    32    8   32 1  
    33    8   33 1  
    34    9   34 1  
    35    9   35 1  
    36   10   36 1  
    37   10   37 1  
    38   13   38 1  
    39   14   39 1  
    40   15   40 1  
    41   16   41 1  
    42   17   42 1  
@<TRIPOS>SUBSTRUCTURE
     1 6DK         1

