### 
### Created by X-TOOL on Mon Sep 10 21:13:27 2018
### 

@<TRIPOS>MOLECULE
5g11_ligand
   39    39     1     0     0
SMALL
GAST_HUCK


@<TRIPOS>ATOM
      1 O1         21.8130  -33.7850    7.3660 O.2       1 7H1        -0.3401
      2 C          21.1750  -34.8200    7.3050 C.2       1 7H1         0.2935
      3 N          20.5490  -35.1720    8.4010 N.am      1 7H1        -0.1577
      4 O          20.5160  -34.2180    9.3920 O.3       1 7H1        -0.2705
      5 C1         21.0630  -35.6680    6.0380 C.3       1 7H1         0.3922
      6 F          20.1280  -36.5890    6.2520 F         1 7H1        -0.1938
      7 F1         22.2670  -36.2180    5.8700 F         1 7H1        -0.1938
      8 C2         20.6570  -34.9230    4.7400 C.3       1 7H1         0.3856
      9 F2         19.4650  -34.5920    5.0930 F         1 7H1        -0.1935
     10 F3         21.6180  -34.0680    4.7460 F         1 7H1        -0.1935
     11 C3         20.8190  -35.9680    3.6890 C.3       1 7H1         0.3829
     12 F4         20.4530  -37.1830    4.0750 F         1 7H1        -0.1922
     13 F5         22.0700  -35.9000    3.2940 F         1 7H1        -0.1922
     14 C4         19.9950  -35.6410    2.4860 C.3       1 7H1         0.3828
     15 F6         20.1340  -34.3740    2.1430 F         1 7H1        -0.1922
     16 F7         18.7870  -35.9450    2.8700 F         1 7H1        -0.1922
     17 C5         20.3330  -36.5710    1.3330 C.3       1 7H1         0.3858
     18 F8         19.8520  -37.7720    1.6310 F         1 7H1        -0.1936
     19 F9         21.6320  -36.5760    1.1580 F         1 7H1        -0.1936
     20 C6         19.7670  -36.1370    0.0090 C.3       1 7H1         0.3955
     21 F10        20.2810  -34.9450   -0.2920 F         1 7H1        -0.1938
     22 F11        18.4650  -36.1540    0.2250 F         1 7H1        -0.1938
     23 C7         20.0980  -37.1290   -1.0850 C.2       1 7H1         0.2975
     24 O2         20.8970  -37.9860   -0.7980 O.2       1 7H1        -0.3288
     25 N1         19.4700  -37.0590   -2.2690 N.am      1 7H1        -0.2279
     26 C8         19.5500  -37.9850   -3.2750 C.ar      1 7H1         0.0678
     27 C9         18.6780  -37.8050   -4.3610 C.ar      1 7H1        -0.0404
     28 C10        18.6610  -38.6900   -5.4380 C.ar      1 7H1        -0.0749
     29 C11        19.5210  -39.7910   -5.4400 C.ar      1 7H1        -0.0767
     30 C12        20.3820  -39.9970   -4.3620 C.ar      1 7H1        -0.0749
     31 C13        20.4060  -39.1030   -3.2910 C.ar      1 7H1        -0.0404
     32 H1         20.1249  -36.0711    8.5096 H         1 7H1         0.2234
     33 H2         21.4041  -33.9973    9.6472 H         1 7H1         0.2497
     34 H3         18.8920  -36.2593   -2.4312 H         1 7H1         0.2274
     35 H4         18.0020  -36.9576   -4.3618 H         1 7H1         0.0507
     36 H5         17.9846  -38.5249   -6.2688 H         1 7H1         0.0579
     37 H6         19.5192  -40.4819   -6.2753 H         1 7H1         0.0492
     38 H7         21.0385  -40.8596   -4.3563 H         1 7H1         0.0579
     39 H8         21.0884  -39.2703   -2.4655 H         1 7H1         0.0507
@<TRIPOS>BOND
     1    1    2 2  
     2    2    3 am 
     3    2    5 1  
     4    3    4 1  
     5    5    6 1  
     6    5    7 1  
     7    5    8 1  
     8    8    9 1  
     9    8   10 1  
    10    8   11 1  
    11   11   12 1  
    12   11   13 1  
    13   11   14 1  
    14   14   15 1  
    15   14   16 1  
    16   14   17 1  
    17   17   18 1  
    18   17   19 1  
    19   17   20 1  
    20   20   21 1  
    21   20   22 1  
    22   20   23 1  
    23   23   24 2  
    24   23   25 am 
    25   25   26 1  
    26   26   27 ar 
    27   26   31 ar 
    28   27   28 ar 
    29   28   29 ar 
    30   29   30 ar 
    31   30   31 ar 
    32    3   32 1  
    33    4   33 1  
    34   25   34 1  
    35   27   35 1  
    36   28   36 1  
    37   29   37 1  
    38   30   38 1  
    39   31   39 1  
@<TRIPOS>SUBSTRUCTURE
     1 7H1         1

