### 
### Created by X-TOOL on Mon Sep 10 21:13:30 2018
### 

@<TRIPOS>MOLECULE
5g17_ligand
   42    42     1     0     0
SMALL
GAST_HUCK


@<TRIPOS>ATOM
      1 N          11.1610   61.0630   21.5340 N.am      1 6DK        -0.2339
      2 C1         13.7560   51.8020   22.7550 C.3       1 6DK         0.2629
      3 O1         12.6000   50.9960   22.8430 O.3       1 6DK        -0.3581
      4 C2         13.4460   53.2480   23.1930 C.3       1 6DK         0.0101
      5 O2         14.0500   51.6680   21.3480 O.3       1 6DK        -0.3581
      6 C3         12.3620   54.0180   22.4550 C.3       1 6DK        -0.0479
      7 C4         12.4240   55.4570   23.0040 C.3       1 6DK        -0.0527
      8 C5         11.3150   56.3640   22.5390 C.3       1 6DK        -0.0510
      9 C6         11.5880   57.7560   23.1370 C.3       1 6DK        -0.0356
     10 C7         10.8330   58.8050   22.3230 C.3       1 6DK         0.0432
     11 C8         11.2970   60.2280   22.5930 C.2       1 6DK         0.2036
     12 C9         11.1810   62.4430   21.5400 C.ar      1 6DK         0.0662
     13 C10        10.9740   63.0770   20.2980 C.ar      1 6DK        -0.0413
     14 C11        10.9840   64.4690   20.1790 C.ar      1 6DK        -0.0755
     15 C12        11.1970   65.2540   21.3130 C.ar      1 6DK        -0.0772
     16 C13        11.3990   64.6460   22.5530 C.ar      1 6DK        -0.0755
     17 C14        11.3870   63.2530   22.6750 C.ar      1 6DK        -0.0413
     18 F2         15.9860   51.8700   23.4870 F         1 6DK        -0.1654
     19 C          14.8560   51.1970   23.6170 C.3       1 6DK         0.4438
     20 F          14.4570   51.1730   24.8930 F         1 6DK        -0.1654
     21 F1         15.1590   49.9540   23.2280 F         1 6DK        -0.1654
     22 O          11.6730   60.5280   23.7270 O.2       1 6DK        -0.3849
     23 H1         11.0308   60.6278   20.6431 H         1 6DK         0.2257
     24 H2         12.2863   50.9910   23.7397 H         1 6DK         0.2130
     25 H3         14.3778   53.8237   23.0921 H         1 6DK         0.0320
     26 H4         13.1517   53.2095   24.2522 H         1 6DK         0.0320
     27 H5         14.8270   52.1729   21.1385 H         1 6DK         0.2130
     28 H6         11.3749   53.5746   22.6523 H         1 6DK         0.0267
     29 H7         12.5569   54.0120   21.3724 H         1 6DK         0.0267
     30 H8         13.3810   55.9004   22.6918 H         1 6DK         0.0265
     31 H9         12.3847   55.4053   24.1021 H         1 6DK         0.0265
     32 H10        10.3446   55.9853   22.8924 H         1 6DK         0.0267
     33 H11        11.3088   56.4199   21.4405 H         1 6DK         0.0267
     34 H12        12.6668   57.9677   23.1007 H         1 6DK         0.0290
     35 H13        11.2441   57.7824   24.1815 H         1 6DK         0.0290
     36 H14         9.7634   58.7344   22.5697 H         1 6DK         0.0508
     37 H15        10.9780   58.5879   21.2544 H         1 6DK         0.0508
     38 H16        10.8033   62.4709   19.4156 H         1 6DK         0.0502
     39 H17        10.8275   64.9357   19.2132 H         1 6DK         0.0577
     40 H18        11.2056   66.3349   21.2309 H         1 6DK         0.0487
     41 H19        11.5669   65.2599   23.4305 H         1 6DK         0.0577
     42 H20        11.5366   62.7945   23.6458 H         1 6DK         0.0502
@<TRIPOS>BOND
     1   11    1 am 
     2    1   12 1  
     3    2    3 1  
     4    4    2 1  
     5    2    5 1  
     6    2   19 1  
     7    6    4 1  
     8    7    6 1  
     9    8    7 1  
    10    9    8 1  
    11   10    9 1  
    12   10   11 1  
    13   11   22 2  
    14   12   13 ar 
    15   12   17 ar 
    16   13   14 ar 
    17   14   15 ar 
    18   15   16 ar 
    19   16   17 ar 
    20   19   18 1  
    21   19   20 1  
    22   19   21 1  
    23    1   23 1  
    24    3   24 1  
    25    4   25 1  
    26    4   26 1  
    27    5   27 1  
    28    6   28 1  
    29    6   29 1  
    30    7   30 1  
    31    7   31 1  
    32    8   32 1  
    33    8   33 1  
    34    9   34 1  
    35    9   35 1  
    36   10   36 1  
    37   10   37 1  
    38   13   38 1  
    39   14   39 1  
    40   15   40 1  
    41   16   41 1  
    42   17   42 1  
@<TRIPOS>SUBSTRUCTURE
     1 6DK         1

