### 
### Created by X-TOOL on Mon Sep 10 21:13:30 2018
### 

@<TRIPOS>MOLECULE
5g1a_ligand
   39    39     1     0     0
SMALL
GAST_HUCK


@<TRIPOS>ATOM
      1 O1         51.6870   12.2710  -23.1980 O.2       1 7H1        -0.3401
      2 C          52.8060   12.7080  -22.9850 C.2       1 7H1         0.2935
      3 N          52.8490   13.6210  -22.0950 N.am      1 7H1        -0.1577
      4 O          51.7100   14.1310  -21.5610 O.3       1 7H1        -0.2705
      5 C1         54.1760   12.4570  -23.6260 C.3       1 7H1         0.3922
      6 F          54.7740   13.6390  -23.7250 F         1 7H1        -0.1938
      7 F1         54.0560   11.9670  -24.8320 F         1 7H1        -0.1938
      8 C2         55.0940   11.5650  -22.7810 C.3       1 7H1         0.3856
      9 F2         54.4430   10.4370  -22.6150 F         1 7H1        -0.1935
     10 F3         55.2340   12.1480  -21.6090 F         1 7H1        -0.1935
     11 C3         56.4770   11.1850  -23.3390 C.3       1 7H1         0.3829
     12 F4         56.2970   10.4200  -24.3960 F         1 7H1        -0.1922
     13 F5         57.0520   10.4210  -22.4330 F         1 7H1        -0.1922
     14 C4         57.4360   12.3310  -23.7200 C.3       1 7H1         0.3828
     15 F6         57.3730   13.3170  -22.8480 F         1 7H1        -0.1922
     16 F7         57.0520   12.8590  -24.8560 F         1 7H1        -0.1922
     17 C5         58.9010   11.9080  -23.8180 C.3       1 7H1         0.3858
     18 F8         59.0060   10.7340  -24.3960 F         1 7H1        -0.1936
     19 F9         59.3400   11.7300  -22.5890 F         1 7H1        -0.1936
     20 C6         59.8290   12.9150  -24.5200 C.3       1 7H1         0.3955
     21 F10        59.5020   14.1630  -24.2430 F         1 7H1        -0.1938
     22 F11        59.7260   12.7790  -25.8240 F         1 7H1        -0.1938
     23 C7         61.2430   12.6900  -24.0290 C.2       1 7H1         0.2975
     24 O2         61.5800   11.5300  -23.8780 O.2       1 7H1        -0.3288
     25 N1         62.0070   13.7750  -23.7640 N.am      1 7H1        -0.2279
     26 C8         63.3170   13.7730  -23.3480 C.ar      1 7H1         0.0678
     27 C9         64.0430   14.9570  -23.4880 C.ar      1 7H1        -0.0404
     28 C10        65.3980   15.0330  -23.1590 C.ar      1 7H1        -0.0749
     29 C11        66.0700   13.9150  -22.6760 C.ar      1 7H1        -0.0767
     30 C12        65.3730   12.7220  -22.5260 C.ar      1 7H1        -0.0749
     31 C13        64.0150   12.6620  -22.8540 C.ar      1 7H1        -0.0404
     32 H1         53.7352   13.9662  -21.7861 H         1 7H1         0.2234
     33 H2         51.9322   14.7954  -20.9194 H         1 7H1         0.2497
     34 H3         61.5747   14.6689  -23.8829 H         1 7H1         0.2274
     35 H4         63.5411   15.8419  -23.8624 H         1 7H1         0.0507
     36 H5         65.9298   15.9697  -23.2809 H         1 7H1         0.0579
     37 H6         67.1218   13.9734  -22.4204 H         1 7H1         0.0492
     38 H7         65.8814   11.8393  -22.1553 H         1 7H1         0.0579
     39 H8         63.4846   11.7259  -22.7220 H         1 7H1         0.0507
@<TRIPOS>BOND
     1    1    2 2  
     2    2    3 am 
     3    2    5 1  
     4    3    4 1  
     5    5    6 1  
     6    5    7 1  
     7    5    8 1  
     8    8    9 1  
     9    8   10 1  
    10    8   11 1  
    11   11   12 1  
    12   11   13 1  
    13   11   14 1  
    14   14   15 1  
    15   14   16 1  
    16   14   17 1  
    17   17   18 1  
    18   17   19 1  
    19   17   20 1  
    20   20   21 1  
    21   20   22 1  
    22   20   23 1  
    23   23   24 2  
    24   23   25 am 
    25   25   26 1  
    26   26   27 ar 
    27   26   31 ar 
    28   27   28 ar 
    29   28   29 ar 
    30   29   30 ar 
    31   30   31 ar 
    32    3   32 1  
    33    4   33 1  
    34   25   34 1  
    35   27   35 1  
    36   28   36 1  
    37   29   37 1  
    38   30   38 1  
    39   31   39 1  
@<TRIPOS>SUBSTRUCTURE
     1 7H1         1

