### 
### Created by X-TOOL on Mon Sep 10 21:13:27 2018
### 

@<TRIPOS>MOLECULE
5g1c_ligand
   39    40     1     0     0
SMALL
GAST_HUCK


@<TRIPOS>ATOM
      1 C1          9.2760   63.1930   24.4950 C.2       1 9RB         0.1067
      2 C2         10.3800   62.4010   23.9050 C.2       1 9RB         0.1080
      3 C3         11.4400   58.9390   23.9360 C.ar      1 9RB         0.0622
      4 C4         12.6490   58.2780   23.8110 C.ar      1 9RB        -0.0357
      5 C5         12.6960   56.8980   23.6140 C.ar      1 9RB        -0.0483
      6 C6         11.5150   56.1320   23.5160 C.ar      1 9RB        -0.0148
      7 C7         11.5120   54.6500   23.2880 C.2       1 9RB        -0.0381
      8 C8         12.6560   53.9810   23.1640 C.2       1 9RB         0.0127
      9 C9         12.7810   52.5430   22.8820 C.2       1 9RB         0.2147
     10 C10        10.2980   56.8010   23.6390 C.ar      1 9RB        -0.0483
     11 C11        10.2590   58.1840   23.8320 C.ar      1 9RB        -0.0357
     12 C12        11.3790   63.3020   23.2900 C.2       1 9RB         0.0310
     13 C13         8.0310   62.7580   25.2150 C.3       1 9RB         0.0087
     14 C14        12.6490   62.9470   22.5650 C.3       1 9RB        -0.0254
     15 O          11.8820   51.7280   22.8620 O.2       1 9RB        -0.3909
     16 N3         13.9720   52.1850   22.4870 N.am      1 9RB        -0.1658
     17 O1         14.1600   51.1310   21.6710 O.3       1 9RB        -0.2725
     18 N2         11.4550   60.3460   24.1160 N.2       1 9RB        -0.2021
     19 N1         10.4560   61.0350   23.8290 N.2       1 9RB        -0.2022
     20 N4         10.8960   64.5480   23.5430 N.2       1 9RB        -0.2286
     21 N           9.6720   64.4500   24.2490 N.pl3     1 9RB        -0.2027
     22 C           9.0660   65.7670   24.5690 C.3       1 9RB         0.0593
     23 H1         13.5736   58.8411   23.8670 H         1 9RB         0.0645
     24 H2         13.6580   56.4046   23.5347 H         1 9RB         0.0650
     25 H3         10.5651   54.1161   23.2233 H         1 9RB         0.0742
     26 H4         13.5788   54.5472   23.2815 H         1 9RB         0.0668
     27 H5          9.3712   56.2414   23.5842 H         1 9RB         0.0650
     28 H6          9.3000   58.6843   23.9029 H         1 9RB         0.0645
     29 H7          7.9942   61.6593   25.2527 H         1 9RB         0.0480
     30 H8          7.1472   63.1362   24.6805 H         1 9RB         0.0480
     31 H9          8.0401   63.1599   26.2389 H         1 9RB         0.0480
     32 H10        13.1535   63.8678   22.2368 H         1 9RB         0.0385
     33 H11        12.4097   62.3275   21.6881 H         1 9RB         0.0385
     34 H12        13.3122   62.3863   23.2401 H         1 9RB         0.0385
     35 H13        14.7658   52.7073   22.7986 H         1 9RB         0.2204
     36 H14        15.0882   51.0286   21.4966 H         1 9RB         0.2490
     37 H15         9.7135   66.5707   24.1885 H         1 9RB         0.0596
     38 H16         8.9601   65.8667   25.6593 H         1 9RB         0.0596
     39 H17         8.0755   65.8395   24.0962 H         1 9RB         0.0596
@<TRIPOS>BOND
     1    2    1 2  
     2    1   13 1  
     3    1   21 1  
     4    2   12 1  
     5   19    2 1  
     6    3    4 ar 
     7    3   11 ar 
     8   18    3 1  
     9    4    5 ar 
    10    5    6 ar 
    11    6    7 1  
    12   10    6 ar 
    13    7    8 2  
    14    8    9 1  
    15    9   15 2  
    16    9   16 am 
    17   11   10 ar 
    18   12   14 1  
    19   12   20 2  
    20   16   17 1  
    21   18   19 2  
    22   20   21 1  
    23   21   22 1  
    24    4   23 1  
    25    5   24 1  
    26    7   25 1  
    27    8   26 1  
    28   10   27 1  
    29   11   28 1  
    30   13   29 1  
    31   13   30 1  
    32   13   31 1  
    33   14   32 1  
    34   14   33 1  
    35   14   34 1  
    36   16   35 1  
    37   17   36 1  
    38   22   37 1  
    39   22   38 1  
    40   22   39 1  
@<TRIPOS>SUBSTRUCTURE
     1 9RB         1

