### 
### Created by X-TOOL on Mon Sep 10 21:13:30 2018
### 

@<TRIPOS>MOLECULE
5g1z_ligand
   38    39     1     0     0
SMALL
GAST_HUCK


@<TRIPOS>ATOM
      1 O2         20.5350   46.0700   59.5550 O.2       1 U53        -0.3616
      2 C12        20.3970   45.9840   60.7600 C.2       1 U53         0.2619
      3 O1         19.0560   45.8180   61.2380 O.3       1 U53        -0.2790
      4 C13        18.0030   46.0600   60.2840 C.3       1 U53         0.0727
      5 C14        17.6260   47.5080   60.2950 C.3       1 U53        -0.0373
      6 C10        21.5960   46.3240   61.5580 C.ar      1 U53         0.0981
      7 C11        21.4920   47.2510   62.5740 C.ar      1 U53         0.0163
      8 N1         22.5300   47.6500   63.3100 N.ar      1 U53        -0.3090
      9 C4         23.7860   47.2650   63.0250 C.ar      1 U53         0.0352
     10 C3         24.8570   47.7330   63.7830 C.ar      1 U53        -0.0432
     11 C2         26.0930   47.2330   63.4300 C.ar      1 U53        -0.0227
     12 C6         22.8920   45.8260   61.1470 C.ar      1 U53         0.0639
     13 S          23.1080   44.6540   59.9200 S.3       1 U53        -0.0770
     14 C7         23.9230   43.2040   60.5450 C.3       1 U53         0.0357
     15 C8         23.2320   42.8750   61.8600 C.3       1 U53         0.0844
     16 C9         21.8580   42.5190   61.6220 C.1       1 U53         0.0907
     17 N          20.7520   42.3060   61.3610 N.1       1 U53        -0.3035
     18 C5         24.0200   46.3250   61.9280 C.ar      1 U53         0.0192
     19 C15        25.2730   45.8710   61.6170 C.ar      1 U53        -0.0183
     20 C1         26.3130   46.3330   62.3710 C.ar      1 U53         0.0973
     21 O          27.5720   45.8490   62.0450 O.3       1 U53        -0.3195
     22 C          27.7160   44.9330   60.9250 C.3       1 U53         0.0598
     23 H1         17.1248   45.4529   60.5488 H         1 U53         0.0608
     24 H2         18.3514   45.7819   59.2784 H         1 U53         0.0608
     25 H3         16.8224   47.6832   59.5645 H         1 U53         0.0255
     26 H4         18.5025   48.1171   60.0290 H         1 U53         0.0255
     27 H5         17.2759   47.7881   61.2994 H         1 U53         0.0255
     28 H6         20.5176   47.6766   62.7848 H         1 U53         0.0844
     29 H7         24.7280   48.4408   64.5938 H         1 U53         0.0626
     30 H8         26.9524   47.5549   64.0070 H         1 U53         0.0631
     31 H9         24.9908   43.4074   60.7137 H         1 U53         0.0430
     32 H10        23.8162   42.3692   59.8368 H         1 U53         0.0430
     33 H11        23.2708   43.7534   62.5210 H         1 U53         0.0566
     34 H12        23.7482   42.0311   62.3409 H         1 U53         0.0566
     35 H13        25.4333   45.1721   60.8040 H         1 U53         0.0548
     36 H14        28.7743   44.6547   60.8127 H         1 U53         0.0578
     37 H15        27.3658   45.4220   60.0040 H         1 U53         0.0578
     38 H16        27.1170   44.0293   61.1110 H         1 U53         0.0578
@<TRIPOS>BOND
     1    1    2 2  
     2    2    3 1  
     3    2    6 1  
     4    3    4 1  
     5    4    5 1  
     6    6    7 ar 
     7    6   12 ar 
     8    7    8 ar 
     9    8    9 ar 
    10    9   10 ar 
    11    9   18 ar 
    12   10   11 ar 
    13   11   20 ar 
    14   12   13 1  
    15   12   18 ar 
    16   13   14 1  
    17   14   15 1  
    18   15   16 1  
    19   16   17 3  
    20   18   19 ar 
    21   19   20 ar 
    22   20   21 1  
    23   21   22 1  
    24    4   23 1  
    25    4   24 1  
    26    5   25 1  
    27    5   26 1  
    28    5   27 1  
    29    7   28 1  
    30   10   29 1  
    31   11   30 1  
    32   14   31 1  
    33   14   32 1  
    34   15   33 1  
    35   15   34 1  
    36   19   35 1  
    37   22   36 1  
    38   22   37 1  
    39   22   38 1  
@<TRIPOS>SUBSTRUCTURE
     1 U53         1

