### 
### Created by X-TOOL on Mon Sep 10 21:13:34 2018
### 

@<TRIPOS>MOLECULE
5g22_ligand
   62    65     1     0     0
SMALL
GAST_HUCK


@<TRIPOS>ATOM
      1 N          21.9580   45.4280   63.5440 N.1       1 YN4        -0.3035
      2 C7         22.7880   45.4560   62.7650 C.1       1 YN4         0.0907
      3 C6         23.7620   45.5000   61.7070 C.3       1 YN4         0.0844
      4 C5         23.6840   46.6940   60.7470 C.3       1 YN4         0.0357
      5 S          22.4560   47.9070   61.0690 S.3       1 YN4        -0.0770
      6 C4         22.8570   48.7320   62.4820 C.ar      1 YN4         0.0639
      7 C8         24.2640   48.9900   62.9240 C.ar      1 YN4         0.0192
      8 C23        24.4410   49.6940   64.2070 C.ar      1 YN4         0.0352
      9 N4         23.3490   50.0720   64.8980 N.ar      1 YN4        -0.3090
     10 C24        22.0730   49.8460   64.5100 C.ar      1 YN4         0.0163
     11 C3         21.7400   49.1930   63.3340 C.ar      1 YN4         0.0981
     12 C          20.2890   48.9640   62.9840 C.2       1 YN4         0.2619
     13 O1         19.7780   49.2190   61.6560 O.3       1 YN4        -0.2790
     14 C1         18.3780   49.0940   61.3690 C.3       1 YN4         0.0727
     15 C2         17.7360   50.4610   61.4950 C.3       1 YN4        -0.0373
     16 O          19.5000   48.5650   63.8340 O.2       1 YN4        -0.3616
     17 C22        25.7200   49.9840   64.6790 C.ar      1 YN4        -0.0432
     18 C21        26.8370   49.5790   63.9400 C.ar      1 YN4        -0.0224
     19 C10        26.6970   48.9010   62.7180 C.ar      1 YN4         0.1002
     20 C9         25.4080   48.6250   62.2170 C.ar      1 YN4        -0.0181
     21 O2         27.8370   48.5150   62.0170 O.3       1 YN4        -0.3045
     22 C11        27.9430   47.2720   61.2770 C.3       1 YN4         0.1047
     23 C12        28.0450   46.1900   62.3230 C.ar      1 YN4         0.0012
     24 C20        26.9200   45.4720   62.7320 C.ar      1 YN4        -0.0005
     25 N3         27.0340   44.5250   63.6850 N.ar      1 YN4        -0.2931
     26 C15        28.2270   44.2590   64.2900 C.ar      1 YN4         0.1070
     27 C14        29.3730   44.9730   63.8910 C.ar      1 YN4        -0.0219
     28 C13        29.2830   45.9530   62.9140 C.ar      1 YN4        -0.0493
     29 N1         28.3380   43.2880   65.3040 N.pl3     1 YN4        -0.2875
     30 C19        29.7020   42.8800   65.7030 C.3       1 YN4         0.0685
     31 C18        29.6750   41.9270   66.8940 C.3       1 YN4        -0.0132
     32 N2         28.6350   42.2600   67.8700 N.4       1 YN4         0.2298
     33 C17        27.3020   42.6970   67.4610 C.3       1 YN4        -0.0132
     34 C16        27.1170   42.7610   65.9400 C.3       1 YN4         0.0685
     35 H1         23.6463   44.5839   61.1093 H         1 YN4         0.0566
     36 H2         24.7588   45.5110   62.1720 H         1 YN4         0.0566
     37 H3         23.4986   46.2957   59.7386 H         1 YN4         0.0430
     38 H4         24.6609   47.1992   60.7678 H         1 YN4         0.0430
     39 H5         21.2708   50.1931   65.1511 H         1 YN4         0.0844
     40 H6         17.9135   48.3989   62.0839 H         1 YN4         0.0608
     41 H7         18.2417   48.7132   60.3460 H         1 YN4         0.0608
     42 H8         16.6605   50.3824   61.2777 H         1 YN4         0.0255
     43 H9         18.2048   51.1536   60.7804 H         1 YN4         0.0255
     44 H10        17.8766   50.8392   62.5183 H         1 YN4         0.0255
     45 H11        25.8485   50.5198   65.6125 H         1 YN4         0.0626
     46 H12        27.8302   49.7928   64.3182 H         1 YN4         0.0631
     47 H13        25.3051   48.1193   61.2637 H         1 YN4         0.0548
     48 H14        28.8405   47.2781   60.6410 H         1 YN4         0.0769
     49 H15        27.0512   47.1194   60.6513 H         1 YN4         0.0769
     50 H16        25.9545   45.6758   62.2834 H         1 YN4         0.0718
     51 H17        30.3307   44.7555   64.3499 H         1 YN4         0.0595
     52 H18        30.1568   46.5217   62.6172 H         1 YN4         0.0645
     53 H19        30.2778   43.7767   65.9758 H         1 YN4         0.0570
     54 H20        30.1873   42.3769   64.8537 H         1 YN4         0.0570
     55 H21        30.6527   41.9662   67.3965 H         1 YN4         0.0834
     56 H22        29.4940   40.9074   66.5231 H         1 YN4         0.0834
     57 H23        29.0113   42.9995   68.4424 H         1 YN4         0.2015
     58 H24        28.5012   41.4345   68.4328 H         1 YN4         0.2015
     59 H25        27.1222   43.6998   67.8757 H         1 YN4         0.0834
     60 H26        26.5637   41.9926   67.8718 H         1 YN4         0.0834
     61 H27        26.9131   41.7508   65.5553 H         1 YN4         0.0570
     62 H28        26.2695   43.4213   65.7039 H         1 YN4         0.0570
@<TRIPOS>BOND
     1    1    2 3  
     2    2    3 1  
     3    3    4 1  
     4    4    5 1  
     5    5    6 1  
     6    6    7 ar 
     7    6   11 ar 
     8    7    8 ar 
     9    7   20 ar 
    10    8    9 ar 
    11    8   17 ar 
    12    9   10 ar 
    13   10   11 ar 
    14   11   12 1  
    15   12   13 1  
    16   12   16 2  
    17   13   14 1  
    18   14   15 1  
    19   17   18 ar 
    20   18   19 ar 
    21   19   20 ar 
    22   19   21 1  
    23   21   22 1  
    24   22   23 1  
    25   23   24 ar 
    26   23   28 ar 
    27   24   25 ar 
    28   25   26 ar 
    29   26   27 ar 
    30   26   29 1  
    31   27   28 ar 
    32   29   30 1  
    33   29   34 1  
    34   30   31 1  
    35   31   32 1  
    36   32   33 1  
    37   33   34 1  
    38    3   35 1  
    39    3   36 1  
    40    4   37 1  
    41    4   38 1  
    42   10   39 1  
    43   14   40 1  
    44   14   41 1  
    45   15   42 1  
    46   15   43 1  
    47   15   44 1  
    48   17   45 1  
    49   18   46 1  
    50   20   47 1  
    51   22   48 1  
    52   22   49 1  
    53   24   50 1  
    54   27   51 1  
    55   28   52 1  
    56   30   53 1  
    57   30   54 1  
    58   31   55 1  
    59   31   56 1  
    60   32   57 1  
    61   32   58 1  
    62   33   59 1  
    63   33   60 1  
    64   34   61 1  
    65   34   62 1  
@<TRIPOS>SUBSTRUCTURE
     1 YN4         1

