### 
### Created by X-TOOL on Wed Jan  1 15:39:34 2020
### 

@<TRIPOS>MOLECULE
5g2b_ligand
   75    79     1     0     0
SMALL
GAST_HUCK


@<TRIPOS>ATOM
      1 C          28.8480   13.3050    1.0390 C.3       1 LQY         0.0608
      2 N          30.5210   18.3410   -5.5970 N.am      1 LQY        -0.2680
      3 O          28.4000   13.7500   -0.2450 O.3       1 LQY        -0.3177
      4 C1         27.9640   12.8030   -1.1330 C.ar      1 LQY         0.1028
      5 N1         33.1220   20.8360   -5.3380 N.am      1 LQY        -0.2992
      6 O1         28.6760   19.2510   -4.6890 O.2       1 LQY        -0.3857
      7 C2         27.5980   11.4990   -0.7720 C.ar      1 LQY        -0.0301
      8 N2         26.1380   10.6370   -5.1930 N.2       1 LQY        -0.2033
      9 O2         31.6630   20.2870   -3.7160 O.2       1 LQY        -0.3951
     10 C3         27.2060   10.5950   -1.7520 C.ar      1 LQY        -0.0614
     11 N3         25.5340    9.8420   -6.1500 N.am      1 LQY        -0.1659
     12 O3         25.2130    7.7760   -7.1290 O.2       1 LQY        -0.3833
     13 C4         27.1500   10.9840   -3.1000 C.ar      1 LQY        -0.0173
     14 C5         27.5270   12.2820   -3.4450 C.ar      1 LQY        -0.0529
     15 C6         27.9360   13.2040   -2.4770 C.ar      1 LQY         0.0155
     16 C7         28.4070   14.5380   -2.9470 C.ar      1 LQY        -0.0175
     17 C8         29.4940   14.6330   -3.8120 C.ar      1 LQY        -0.0516
     18 C9         29.8610   15.8390   -4.3780 C.ar      1 LQY        -0.0437
     19 C10        29.1510   17.0050   -4.0950 C.ar      1 LQY         0.0477
     20 C11        28.0830   16.9260   -3.1970 C.ar      1 LQY        -0.0437
     21 C12        27.7190   15.7110   -2.6350 C.ar      1 LQY        -0.0516
     22 C13        29.4450   18.2970   -4.8000 C.2       1 LQY         0.2052
     23 C14        31.1580   19.5890   -5.9640 C.3       1 LQY         0.1193
     24 C15        32.0100   20.2680   -4.9050 C.2       1 LQY         0.1960
     25 C16        26.6190   10.0690   -4.1430 C.2       1 LQY         0.0453
     26 C17        24.6200   10.6940   -6.9340 C.3       1 LQY         0.0794
     27 C18        23.4710   11.2630   -5.9790 C.3       1 LQY        -0.0230
     28 C19        22.5490   12.3750   -6.4680 C.3       1 LQY        -0.0504
     29 C20        23.2510   13.6350   -6.9560 C.3       1 LQY        -0.0530
     30 C21        23.7100   13.6220   -8.4210 C.3       1 LQY        -0.0530
     31 C22        24.7110   12.5360   -8.8940 C.3       1 LQY        -0.0504
     32 C23        25.4590   11.7630   -7.8020 C.3       1 LQY        -0.0230
     33 C24        25.7680    8.4920   -6.3150 C.2       1 LQY         0.2243
     34 C25        26.7710    7.8950   -5.3450 C.3       1 LQY         0.0759
     35 C26        26.7930    6.3700   -5.2040 C.3       1 LQY        -0.0140
     36 C27        25.6680    5.8700   -4.3410 C.2       1 LQY        -0.0958
     37 C28        25.0060    6.6420   -3.4700 C.2       1 LQY        -0.0963
     38 C29        25.2200    8.1310   -3.3580 C.3       1 LQY        -0.0215
     39 C30        26.5660    8.5630   -3.9610 C.3       1 LQY         0.0297
     40 H1         29.1648   14.1719    1.6375 H         1 LQY         0.0581
     41 H2         29.6967   12.6166    0.9130 H         1 LQY         0.0581
     42 H3         28.0269   12.7845    1.5537 H         1 LQY         0.0581
     43 H4         30.8967   17.4841   -5.9501 H         1 LQY         0.1873
     44 H5         33.3598   20.7940   -6.3084 H         1 LQY         0.1815
     45 H6         33.7256   21.3078   -4.6952 H         1 LQY         0.1815
     46 H7         27.6207   11.1965    0.2687 H         1 LQY         0.0548
     47 H8         26.9413    9.5814   -1.4735 H         1 LQY         0.0595
     48 H9         27.5023   12.5823   -4.4863 H         1 LQY         0.0595
     49 H10        30.0646   13.7417   -4.0465 H         1 LQY         0.0617
     50 H11        30.7108   15.8789   -5.0498 H         1 LQY         0.0663
     51 H12        27.5334   17.8234   -2.9369 H         1 LQY         0.0663
     52 H13        26.8863   15.6723   -1.9420 H         1 LQY         0.0617
     53 H14        30.3645   20.2938   -6.2530 H         1 LQY         0.0763
     54 H15        31.8044   19.3888   -6.8312 H         1 LQY         0.0763
     55 H16        24.1130   10.0466   -7.6647 H         1 LQY         0.0640
     56 H17        23.9693   11.6399   -5.0737 H         1 LQY         0.0293
     57 H18        22.8273   10.4109   -5.7154 H         1 LQY         0.0293
     58 H19        21.8852   12.6560   -5.6371 H         1 LQY         0.0266
     59 H20        21.9481   11.9773   -7.2991 H         1 LQY         0.0266
     60 H21        24.1390   13.7916   -6.3260 H         1 LQY         0.0265
     61 H22        22.5570   14.4787   -6.8278 H         1 LQY         0.0265
     62 H23        24.1779   14.5976   -8.6192 H         1 LQY         0.0265
     63 H24        22.8064   13.5163   -9.0393 H         1 LQY         0.0265
     64 H25        25.4632   13.0297   -9.5268 H         1 LQY         0.0266
     65 H26        24.1497   11.8048   -9.4942 H         1 LQY         0.0266
     66 H27        26.2810   11.2182   -8.2893 H         1 LQY         0.0293
     67 H28        25.8738   12.5025   -7.1012 H         1 LQY         0.0293
     68 H29        27.7676    8.1806   -5.7127 H         1 LQY         0.0588
     69 H30        27.7492    6.0685   -4.7515 H         1 LQY         0.0417
     70 H31        26.7019    5.9192   -6.2032 H         1 LQY         0.0417
     71 H32        25.3761    4.8245   -4.4290 H         1 LQY         0.0452
     72 H33        24.2778    6.1722   -2.8105 H         1 LQY         0.0452
     73 H34        25.1990    8.4145   -2.2954 H         1 LQY         0.0413
     74 H35        24.4089    8.6481   -3.8916 H         1 LQY         0.0413
     75 H36        27.3748    8.2521   -3.2833 H         1 LQY         0.0505
@<TRIPOS>BOND
     1    3    1 1  
     2    2   22 am 
     3   23    2 1  
     4    4    3 1  
     5    4    7 ar 
     6   15    4 ar 
     7   24    5 am 
     8   22    6 2  
     9    7   10 ar 
    10    8   11 1  
    11   25    8 2  
    12   24    9 2  
    13   13   10 ar 
    14   11   26 1  
    15   11   33 am 
    16   33   12 2  
    17   14   13 ar 
    18   13   25 1  
    19   15   14 ar 
    20   16   15 1  
    21   17   16 ar 
    22   21   16 ar 
    23   18   17 ar 
    24   19   18 ar 
    25   19   20 ar 
    26   22   19 1  
    27   20   21 ar 
    28   23   24 1  
    29   25   39 1  
    30   26   27 1  
    31   26   32 1  
    32   27   28 1  
    33   28   29 1  
    34   29   30 1  
    35   30   31 1  
    36   31   32 1  
    37   33   34 1  
    38   34   35 1  
    39   34   39 1  
    40   35   36 1  
    41   36   37 2  
    42   37   38 1  
    43   38   39 1  
    44    1   40 1  
    45    1   41 1  
    46    1   42 1  
    47    2   43 1  
    48    5   44 1  
    49    5   45 1  
    50    7   46 1  
    51   10   47 1  
    52   14   48 1  
    53   17   49 1  
    54   18   50 1  
    55   20   51 1  
    56   21   52 1  
    57   23   53 1  
    58   23   54 1  
    59   26   55 1  
    60   27   56 1  
    61   27   57 1  
    62   28   58 1  
    63   28   59 1  
    64   29   60 1  
    65   29   61 1  
    66   30   62 1  
    67   30   63 1  
    68   31   64 1  
    69   31   65 1  
    70   32   66 1  
    71   32   67 1  
    72   34   68 1  
    73   35   69 1  
    74   35   70 1  
    75   36   71 1  
    76   37   72 1  
    77   38   73 1  
    78   38   74 1  
    79   39   75 1  
@<TRIPOS>SUBSTRUCTURE
     1 LQY         1

