### 
### Created by X-TOOL on Mon Sep 10 21:13:28 2018
### 

@<TRIPOS>MOLECULE
5g2g_ligand
   34    37     1     0     0
SMALL
GAST_HUCK


@<TRIPOS>ATOM
      1 C1          2.9620  -14.1560  -12.4350 C.ar      1 EQU         0.0934
      2 C2          3.1330  -13.0260  -13.2410 C.ar      1 EQU        -0.0216
      3 C3          2.4500  -11.8480  -12.9430 C.ar      1 EQU        -0.0133
      4 C4          1.5730  -11.7690  -11.8240 C.ar      1 EQU        -0.0049
      5 C5          1.4060  -12.8990  -11.0150 C.ar      1 EQU        -0.0521
      6 C6          2.0820  -14.1010  -11.3180 C.ar      1 EQU        -0.0246
      7 C10         2.6280  -10.6270  -13.7820 C.ar      1 EQU        -0.0428
      8 C11         1.9180   -9.4040  -13.4710 C.ar      1 EQU        -0.0389
      9 C12         1.0490   -9.2800  -12.3750 C.ar      1 EQU        -0.0069
     10 C13         0.8770  -10.5910  -11.5220 C.ar      1 EQU         0.0133
     11 C16         0.5580   -8.4740  -12.0810 C.2       1 EQU        -0.0499
     12 C17         0.3050   -8.2600  -10.8270 C.3       1 EQU        -0.0326
     13 C18        -0.5680   -9.3450  -10.2390 C.2       1 EQU        -0.1454
     14 C19        -0.0490  -10.4470  -10.3540 C.2       1 EQU        -0.0498
     15 C24         0.9580   -7.1800  -12.5140 C.2       1 EQU         0.0115
     16 C25         0.2950   -6.1590  -11.6750 C.3       1 EQU         0.0818
     17 C26        -0.2730   -6.8090  -10.7530 C.2       1 EQU         0.0679
     18 C27         1.5510   -8.1320   -9.9170 C.3       1 EQU        -0.1249
     19 O1          3.6650  -15.3330  -12.7040 O.3       1 EQU        -0.3313
     20 O26        -1.0810   -6.4010   -9.9860 O.2       1 EQU        -0.3726
     21 H1          3.7965  -13.0662  -14.0973 H         1 EQU         0.0552
     22 H2          0.7537  -12.8510  -10.1506 H         1 EQU         0.0627
     23 H3          1.9311  -14.9797  -10.7014 H         1 EQU         0.0611
     24 H4          3.2969  -10.6559  -14.6346 H         1 EQU         0.0746
     25 H5          2.0641   -8.5439  -14.1144 H         1 EQU         0.0654
     26 H6         -1.5359   -9.1682   -9.7723 H         1 EQU         0.0383
     27 H7         -0.2457  -11.2620   -9.6591 H         1 EQU         0.0896
     28 H8          1.6442   -6.9736  -13.3340 H         1 EQU         0.1706
     29 H9         -0.4450   -5.5968  -12.2634 H         1 EQU         0.0921
     30 H10         1.0363   -5.4625  -11.2562 H         1 EQU         0.0921
     31 H11         2.0726   -9.0994   -9.8714 H         1 EQU        -0.0022
     32 H12         1.2372   -7.8366   -8.9050 H         1 EQU        -0.0022
     33 H13         2.2285   -7.3692  -10.3281 H         1 EQU        -0.0022
     34 H14         4.2172  -15.5475  -11.9613 H         1 EQU         0.2488
@<TRIPOS>BOND
     1    1    2 ar 
     2    1    6 ar 
     3    1   19 1  
     4    2    3 ar 
     5    3    4 ar 
     6    3    7 ar 
     7    4    5 ar 
     8    4   10 ar 
     9    5    6 ar 
    10    7    8 ar 
    11    8    9 ar 
    12    9   10 ar 
    13    9   11 1  
    14   10   14 1  
    15   11   12 1  
    16   11   15 2  
    17   12   13 1  
    18   12   17 1  
    19   12   18 1  
    20   13   14 2  
    21   15   16 1  
    22   16   17 1  
    23   17   20 2  
    24    2   21 1  
    25    5   22 1  
    26    6   23 1  
    27    7   24 1  
    28    8   25 1  
    29   13   26 1  
    30   14   27 1  
    31   15   28 1  
    32   16   29 1  
    33   16   30 1  
    34   18   31 1  
    35   18   32 1  
    36   18   33 1  
    37   19   34 1  
@<TRIPOS>SUBSTRUCTURE
     1 EQU         1

