### 
### Created by X-TOOL on Mon Sep 10 21:13:29 2018
### 

@<TRIPOS>MOLECULE
5g2n_ligand
   62    66     1     0     0
SMALL
GAST_HUCK


@<TRIPOS>ATOM
      1 C28        54.6710   16.2650   34.1890 C.3       1 6E2        -0.0078
      2 C30        55.8160   15.6520   35.0700 C.3       1 6E2         0.0878
      3 O31        55.7810   15.9130   36.5310 O.3       1 6E2        -0.3693
      4 C29        54.4440   15.8370   37.0770 C.3       1 6E2         0.0878
      5 C27        53.6720   16.9930   36.4250 C.3       1 6E2        -0.0078
      6 N26        53.4830   16.8540   34.9340 N.4       1 6E2         0.2385
      7 C25        52.1570   16.2690   34.5150 C.3       1 6E2        -0.0293
      8 C24        51.5370   17.0090   33.2860 C.3       1 6E2         0.0150
      9 C23        51.3680   16.0990   32.0420 C.3       1 6E2         0.0728
     10 O22        50.0060   15.8510   31.9950 O.3       1 6E2        -0.3227
     11 C6         49.3340   14.8280   31.3870 C.ar      1 6E2         0.1153
     12 C4         47.9800   14.5910   31.7110 C.ar      1 6E2         0.1278
     13 C2         47.2390   13.5890   31.1130 C.ar      1 6E2         0.0376
     14 N9         45.9400   13.3980   31.3880 N.2       1 6E2        -0.2819
     15 O20        47.3480   15.3570   32.6130 O.3       1 6E2        -0.3285
     16 C21        46.6780   16.4650   32.0030 C.3       1 6E2         0.0553
     17 C5         49.9260   14.0130   30.4600 C.ar      1 6E2        -0.0450
     18 C3         49.1840   13.0020   29.8540 C.ar      1 6E2        -0.0719
     19 C1         47.8560   12.7890   30.1640 C.ar      1 6E2         0.0192
     20 C7         47.1090   11.7860   29.5480 C.2       1 6E2         0.1478
     21 N32        47.4310   10.9260   28.6360 N.2       1 6E2        -0.3341
     22 C33        46.4820    9.8320   28.6600 C.2       1 6E2        -0.0259
     23 C34        45.2410   10.5060   29.1220 C.2       1 6E2         0.0589
     24 N8         45.7730   11.6090   29.8570 N.pl3     1 6E2        -0.1560
     25 C10        45.1900   12.4170   30.7900 C.2       1 6E2         0.2902
     26 N11        43.8900   12.1410   31.0680 N.am      1 6E2        -0.1701
     27 C12        43.2330   12.6920   32.0840 C.2       1 6E2         0.2515
     28 O13        43.7490   13.4720   32.8840 O.2       1 6E2        -0.3682
     29 C14        41.8240   12.1690   32.3350 C.ar      1 6E2         0.0970
     30 C16        41.1200   12.5570   33.4830 C.ar      1 6E2         0.0353
     31 N18        39.9100   12.0770   33.7080 N.ar      1 6E2        -0.2464
     32 C19        39.3780   11.2150   32.8200 C.ar      1 6E2         0.1955
     33 N35        38.1720   10.7220   33.0320 N.pl3     1 6E2        -0.3001
     34 N17        40.0440   10.8150   31.7090 N.ar      1 6E2        -0.2464
     35 C15        41.2480   11.2570   31.4780 C.ar      1 6E2         0.0353
     36 H1         54.2919   15.4683   33.5321 H         1 6E2         0.0837
     37 H2         55.1122   17.0657   33.5773 H         1 6E2         0.0837
     38 H3         56.7697   16.0463   34.6892 H         1 6E2         0.0613
     39 H4         55.7885   14.5612   34.9310 H         1 6E2         0.0613
     40 H5         54.4671   15.9576   38.1701 H         1 6E2         0.0613
     41 H6         53.9791   14.8727   36.8242 H         1 6E2         0.0613
     42 H7         54.2227   17.9257   36.6164 H         1 6E2         0.0837
     43 H8         52.6786   17.0509   36.8937 H         1 6E2         0.0837
     44 H9         53.4414   17.8073   34.6091 H         1 6E2         0.2035
     45 H10        51.4568   16.3415   35.3602 H         1 6E2         0.0815
     46 H11        52.3056   15.2114   34.2516 H         1 6E2         0.0815
     47 H12        52.1938   17.8493   33.0169 H         1 6E2         0.0343
     48 H13        50.5476   17.3943   33.5734 H         1 6E2         0.0343
     49 H14        51.9326   15.1626   32.1621 H         1 6E2         0.0612
     50 H15        51.7037   16.6153   31.1306 H         1 6E2         0.0612
     51 H16        46.1761   17.0621   32.7786 H         1 6E2         0.0570
     52 H17        45.9311   16.0926   31.2864 H         1 6E2         0.0570
     53 H18        47.4118   17.0919   31.4753 H         1 6E2         0.0570
     54 H19        50.9685   14.1540   30.1985 H         1 6E2         0.0473
     55 H20        49.6625   12.3651   29.1189 H         1 6E2         0.0500
     56 H21        46.6379    8.7848   28.4050 H         1 6E2         0.0479
     57 H22        44.2018   10.2318   28.9467 H         1 6E2         0.0846
     58 H23        43.4041   11.4932   30.4813 H         1 6E2         0.2452
     59 H24        41.5679   13.2503   34.1857 H         1 6E2         0.0953
     60 H25        37.6392   11.0054   33.8667 H         1 6E2         0.1844
     61 H26        37.7638   10.0539   32.3627 H         1 6E2         0.1844
     62 H27        41.7966   10.9069   30.6111 H         1 6E2         0.0953
@<TRIPOS>BOND
     1    1    2 1  
     2    1    6 1  
     3    2    3 1  
     4    3    4 1  
     5    4    5 1  
     6    5    6 1  
     7    6    7 1  
     8    7    8 1  
     9    8    9 1  
    10    9   10 1  
    11   10   11 1  
    12   11   12 ar 
    13   11   17 ar 
    14   12   13 ar 
    15   12   15 1  
    16   13   14 1  
    17   13   19 ar 
    18   14   25 2  
    19   15   16 1  
    20   17   18 ar 
    21   18   19 ar 
    22   19   20 1  
    23   20   21 2  
    24   20   24 1  
    25   21   22 1  
    26   22   23 2  
    27   23   24 1  
    28   24   25 1  
    29   25   26 1  
    30   26   27 am 
    31   27   28 2  
    32   27   29 1  
    33   29   30 ar 
    34   29   35 ar 
    35   30   31 ar 
    36   31   32 ar 
    37   32   33 1  
    38   32   34 ar 
    39   34   35 ar 
    40    1   36 1  
    41    1   37 1  
    42    2   38 1  
    43    2   39 1  
    44    4   40 1  
    45    4   41 1  
    46    5   42 1  
    47    5   43 1  
    48    6   44 1  
    49    7   45 1  
    50    7   46 1  
    51    8   47 1  
    52    8   48 1  
    53    9   49 1  
    54    9   50 1  
    55   16   51 1  
    56   16   52 1  
    57   16   53 1  
    58   17   54 1  
    59   18   55 1  
    60   22   56 1  
    61   23   57 1  
    62   26   58 1  
    63   30   59 1  
    64   33   60 1  
    65   33   61 1  
    66   35   62 1  
@<TRIPOS>SUBSTRUCTURE
     1 6E2         1

