### 
### Created by X-TOOL on Mon Sep 10 21:13:28 2018
### 

@<TRIPOS>MOLECULE
5g3m_ligand
   29    30     1     0     0
SMALL
GAST_HUCK


@<TRIPOS>ATOM
      1 O15        -1.7930    0.5230   -4.3420 O.2       1 9JH        -0.3880
      2 C14        -0.8860    0.1600   -3.5890 C.2       1 9JH         0.1975
      3 N16        -0.3980   -1.0960   -3.7040 N.am      1 9JH        -0.3010
      4 C3          0.2400    3.2470    2.3800 C.ar      1 9JH        -0.0582
      5 C4          0.4610    4.0960    1.3120 C.ar      1 9JH        -0.0311
      6 C5         -0.2890    5.2530    1.1800 C.ar      1 9JH        -0.0582
      7 C7          1.5140    3.7390    0.2970 C.3       1 9JH         0.0161
      8 C6         -1.2560    5.5430    2.1340 C.ar      1 9JH        -0.0681
      9 C1         -1.4750    4.6890    3.2000 C.ar      1 9JH        -0.0684
     10 C2         -0.7260    3.5310    3.3250 C.ar      1 9JH        -0.0681
     11 C10         0.9300    0.7810   -1.9840 C.ar      1 9JH        -0.0482
     12 C11        -0.2980    1.0870   -2.5850 C.ar      1 9JH         0.0427
     13 C9          1.5120    1.6340   -1.0510 C.ar      1 9JH        -0.0525
     14 C8          0.8770    2.8120   -0.7190 C.ar      1 9JH        -0.0273
     15 C13        -0.3460    3.1320   -1.3090 C.ar      1 9JH        -0.0525
     16 C12        -0.9490    2.2830   -2.2330 C.ar      1 9JH        -0.0482
     17 H1          0.3373   -1.4040   -3.1003 H         1 9JH         0.1806
     18 H2         -0.7724   -1.7168   -4.3928 H         1 9JH         0.1806
     19 H3          0.8336    2.3452    2.4772 H         1 9JH         0.0561
     20 H4         -0.1236    5.9228    0.3439 H         1 9JH         0.0561
     21 H5          2.3551    3.2315    0.7920 H         1 9JH         0.0593
     22 H6          1.8775    4.6493   -0.2022 H         1 9JH         0.0593
     23 H7         -1.8453    6.4482    2.0422 H         1 9JH         0.0600
     24 H8         -2.2331    4.9263    3.9376 H         1 9JH         0.0561
     25 H9         -0.8961    2.8551    4.1553 H         1 9JH         0.0600
     26 H10         1.4372   -0.1390   -2.2512 H         1 9JH         0.0652
     27 H11         2.4575    1.3742   -0.5888 H         1 9JH         0.0573
     28 H12        -0.8370    4.0610   -1.0425 H         1 9JH         0.0573
     29 H13        -1.9053    2.5397   -2.6742 H         1 9JH         0.0652
@<TRIPOS>BOND
     1    2    1 2  
     2    2    3 am 
     3   12    2 1  
     4    5    4 ar 
     5    4   10 ar 
     6    5    6 ar 
     7    7    5 1  
     8    6    8 ar 
     9   14    7 1  
    10    8    9 ar 
    11   10    9 ar 
    12   11   12 ar 
    13   13   11 ar 
    14   12   16 ar 
    15   13   14 ar 
    16   14   15 ar 
    17   15   16 ar 
    18    3   17 1  
    19    3   18 1  
    20    4   19 1  
    21    6   20 1  
    22    7   21 1  
    23    7   22 1  
    24    8   23 1  
    25    9   24 1  
    26   10   25 1  
    27   11   26 1  
    28   13   27 1  
    29   15   28 1  
    30   16   29 1  
@<TRIPOS>SUBSTRUCTURE
     1 9JH         1

