### 
### Created by X-TOOL on Mon Sep 10 21:13:25 2018
### 

@<TRIPOS>MOLECULE
5g3w_ligand
   31    32     1     0     0
SMALL
GAST_HUCK


@<TRIPOS>ATOM
      1 CAA        33.0450   36.6300   53.8560 C.ar      1 C65        -0.0552
      2 CAB        33.8460   36.5770   52.7130 C.ar      1 C65        -0.0574
      3 CAC        33.8150   35.4030   51.9970 C.ar      1 C65        -0.0552
      4 CAD        33.0100   34.3360   52.4330 C.ar      1 C65        -0.0319
      5 CAE        32.1460   34.3190   53.5650 C.ar      1 C65         0.0795
      6 CAF        32.2450   35.5310   54.2890 C.ar      1 C65        -0.0319
      7 NAG        31.3510   33.0950   53.8940 N.2       1 C65        -0.1736
      8 NAH        30.3280   32.7260   54.6450 N.2       1 C65        -0.1727
      9 CAI        29.5290   31.5000   55.0380 C.ar      1 C65         0.0814
     10 CAJ        29.9120   30.2150   55.5880 C.ar      1 C65        -0.0288
     11 CAK        29.0490   29.1740   55.9670 C.ar      1 C65        -0.0441
     12 CAL        27.6980   29.3690   55.8750 C.ar      1 C65        -0.0102
     13 CAM        27.2640   30.5960   55.4260 C.ar      1 C65        -0.0441
     14 CAN        28.1350   31.5870   55.0150 C.ar      1 C65        -0.0288
     15 CAO        26.7810   28.3310   56.2390 C.2       1 C65        -0.0330
     16 CAP        25.4730   28.3030   55.9150 C.2       1 C65         0.0287
     17 CAQ        24.7870   27.0630   56.3170 C.2       1 C65         0.3031
     18 NAR        25.0130   26.7690   57.5440 N.2       1 C65         0.0330
     19 OAS        24.1190   26.2640   55.7120 O.2       1 C65        -0.3246
     20 OAT        24.0800   26.0480   58.0940 O.2       1 C65        -0.1755
     21 H1         33.0306   37.5442   54.4383 H         1 C65         0.0630
     22 H2         34.4595   37.4165   52.4065 H         1 C65         0.0654
     23 H3         34.4108   35.3005   51.0972 H         1 C65         0.0630
     24 H4         33.0515   33.4273   51.8434 H         1 C65         0.0674
     25 H5         31.6881   35.6286   55.2139 H         1 C65         0.0674
     26 H6         30.9735   30.0394   55.7204 H         1 C65         0.0679
     27 H7         29.4466   28.2318   56.3264 H         1 C65         0.0662
     28 H8         26.1984   30.7922   55.3936 H         1 C65         0.0662
     29 H9         27.7005   32.5082   54.6440 H         1 C65         0.0679
     30 H10        27.1711   27.4990   56.8234 H         1 C65         0.0761
     31 H11        24.9696   29.1218   55.4031 H         1 C65         0.0706
@<TRIPOS>BOND
     1    1    2 ar 
     2    1    6 ar 
     3    2    3 ar 
     4    3    4 ar 
     5    4    5 ar 
     6    5    6 ar 
     7    5    7 1  
     8    7    8 2  
     9    8    9 1  
    10    9   10 ar 
    11    9   14 ar 
    12   10   11 ar 
    13   11   12 ar 
    14   12   13 ar 
    15   12   15 1  
    16   13   14 ar 
    17   15   16 2  
    18   16   17 1  
    19   17   18 1  
    20   17   19 2  
    21   18   20 2  
    22    1   21 1  
    23    2   22 1  
    24    3   23 1  
    25    4   24 1  
    26    6   25 1  
    27   10   26 1  
    28   11   27 1  
    29   13   28 1  
    30   14   29 1  
    31   15   30 1  
    32   16   31 1  
@<TRIPOS>SUBSTRUCTURE
     1 C65         1

