### 
### Created by X-TOOL on Mon Sep 10 21:13:28 2018
### 

@<TRIPOS>MOLECULE
5g42_ligand
   20    21     1     0     0
SMALL
GAST_HUCK


@<TRIPOS>ATOM
      1 C1        -27.0210    6.0200  -13.2770 C.ar      1 4TU        -0.0392
      2 C2        -26.8210    7.3840  -13.4300 C.ar      1 4TU        -0.0642
      3 C3        -28.6440    7.5070  -14.9970 C.ar      1 4TU        -0.0642
      4 C4        -28.8400    6.1550  -14.8300 C.ar      1 4TU        -0.0274
      5 C5        -28.0510    5.4220  -13.9850 C.ar      1 4TU         0.0964
      6 C6        -27.6360    8.1120  -14.2810 C.ar      1 4TU         0.0203
      7 C7        -28.0970    3.0630  -13.1190 C.2       1 4TU         0.3312
      8 C8        -29.8620    5.3390  -15.5190 C.2       1 4TU        -0.0652
      9 C9        -29.5240    3.9420  -15.0090 C.2       1 4TU         0.0532
     10 N10       -28.4520    4.0690  -14.0340 N.am      1 4TU        -0.1623
     11 N11       -28.7880    1.8760  -13.2770 N.am      1 4TU        -0.2720
     12 O12       -27.2330    3.1470  -12.2520 O.2       1 4TU        -0.3693
     13 CL1       -27.4380    9.8150  -14.5090 Cl        1 4TU        -0.0832
     14 H1        -26.3870    5.4361  -12.6196 H         1 4TU         0.0543
     15 H2        -26.0270    7.8801  -12.8837 H         1 4TU         0.0522
     16 H3        -29.2668    8.0801  -15.6743 H         1 4TU         0.0533
     17 H4        -30.6464    5.6517  -16.2067 H         1 4TU         0.0242
     18 H5        -30.0009    3.0136  -15.3198 H         1 4TU         0.0952
     19 H6        -28.6008    1.1038  -12.6698 H         1 4TU         0.1833
     20 H7        -29.4750    1.7896  -13.9985 H         1 4TU         0.1833
@<TRIPOS>BOND
     1    2    1 ar 
     2    1    5 ar 
     3    6    2 ar 
     4    3    4 ar 
     5    3    6 ar 
     6    4    5 ar 
     7    4    8 1  
     8    5   10 1  
     9    6   13 1  
    10   10    7 am 
    11    7   11 am 
    12    7   12 2  
    13    8    9 2  
    14    9   10 1  
    15    1   14 1  
    16    2   15 1  
    17    3   16 1  
    18    8   17 1  
    19    9   18 1  
    20   11   19 1  
    21   11   20 1  
@<TRIPOS>SUBSTRUCTURE
     1 4TU         1

