### 
### Created by X-TOOL on Mon Sep 10 21:13:28 2018
### 

@<TRIPOS>MOLECULE
5g43_ligand
   25    26     1     0     0
SMALL
GAST_HUCK


@<TRIPOS>ATOM
      1 C1        -23.8920   12.4850  -14.9960 C.2       1 5IM        -0.0057
      2 C2        -23.3750   11.5740  -14.1090 C.2       1 5IM         0.0491
      3 C3        -25.1700   10.3940  -14.7730 C.2       1 5IM         0.1771
      4 C4        -28.1290    7.3570  -14.7540 C.3       1 5IM        -0.0493
      5 C5        -28.0210    8.3450  -15.9030 C.3       1 5IM        -0.0317
      6 C6        -26.8300    7.1490  -13.9940 C.3       1 5IM        -0.0317
      7 C7        -27.3750    9.6370  -15.4480 C.3       1 5IM         0.0362
      8 C8        -26.1350    8.4610  -13.6900 C.3       1 5IM         0.0362
      9 N9        -24.0950   10.4140  -13.9990 N.2       1 5IM        -0.2949
     10 N10       -26.0760    9.3610  -14.8510 N.pl3     1 5IM        -0.2708
     11 N11       -22.2570   11.7740  -13.3780 N.pl3     1 5IM        -0.3444
     12 S12       -25.3120   11.8370  -15.7050 S.3       1 5IM        -0.0147
     13 H1        -23.4676   13.4638  -15.2146 H         1 5IM         0.0301
     14 H2        -28.4508    6.3870  -15.1609 H         1 5IM         0.0267
     15 H3        -28.8869    7.7283  -14.0485 H         1 5IM         0.0267
     16 H4        -29.0287    8.5623  -16.2867 H         1 5IM         0.0285
     17 H5        -27.4116    7.9006  -16.7037 H         1 5IM         0.0285
     18 H6        -26.1590    6.5239  -14.6015 H         1 5IM         0.0285
     19 H7        -27.0510    6.6361  -13.0463 H         1 5IM         0.0285
     20 H8        -28.0215   10.1252  -14.7039 H         1 5IM         0.0531
     21 H9        -27.2440   10.3033  -16.3134 H         1 5IM         0.0531
     22 H10       -25.1078    8.2457  -13.3606 H         1 5IM         0.0531
     23 H11       -26.6810    8.9679  -12.8807 H         1 5IM         0.0531
     24 H12       -21.9274   11.0437  -12.7307 H         1 5IM         0.1673
     25 H13       -21.7340   12.6568  -13.4678 H         1 5IM         0.1673
@<TRIPOS>BOND
     1    1    2 2  
     2   12    1 1  
     3    9    2 1  
     4    2   11 1  
     5    3    9 2  
     6   10    3 1  
     7    3   12 1  
     8    5    4 1  
     9    4    6 1  
    10    7    5 1  
    11    6    8 1  
    12    7   10 1  
    13    8   10 1  
    14    1   13 1  
    15    4   14 1  
    16    4   15 1  
    17    5   16 1  
    18    5   17 1  
    19    6   18 1  
    20    6   19 1  
    21    7   20 1  
    22    7   21 1  
    23    8   22 1  
    24    8   23 1  
    25   11   24 1  
    26   11   25 1  
@<TRIPOS>SUBSTRUCTURE
     1 5IM         1

