### 
### Created by X-TOOL on Mon Sep 10 21:13:29 2018
### 

@<TRIPOS>MOLECULE
5g45_ligand
   20    21     1     0     0
SMALL
GAST_HUCK


@<TRIPOS>ATOM
      1 C1        -29.3720    6.8300  -17.6620 C.ar      1 A7W        -0.0772
      2 C2        -29.2640    6.7070  -16.2920 C.ar      1 A7W        -0.0694
      3 C3        -29.3810    5.7070  -18.4690 C.ar      1 A7W        -0.0443
      4 C4        -29.0490    5.3210  -14.3590 C.ar      1 A7W        -0.0151
      5 C5        -29.0120    2.9450  -14.6990 C.ar      1 A7W         0.0416
      6 C6        -29.1470    5.4470  -15.7360 C.ar      1 A7W        -0.0147
      7 C7        -29.1570    4.2990  -16.5340 C.ar      1 A7W         0.0652
      8 C8        -29.2760    4.4460  -17.9080 C.ar      1 A7W         0.0599
      9 C9        -28.9840    4.0340  -13.8550 C.ar      1 A7W         0.1144
     10 N10       -29.1060    3.0550  -16.0250 N.ar      1 A7W        -0.2980
     11 N11       -29.3220    3.3010  -18.7270 N.pl3     1 A7W        -0.3315
     12 O12       -28.8860    3.7910  -12.5160 O.3       1 A7W        -0.3265
     13 H1        -29.4504    7.8144  -18.1092 H         1 A7W         0.0586
     14 H2        -29.2708    7.5874  -15.6597 H         1 A7W         0.0465
     15 H3        -29.4705    5.8146  -19.5439 H         1 A7W         0.0467
     16 H4        -29.0245    6.1881  -13.7090 H         1 A7W         0.0614
     17 H5        -28.9550    1.9532  -14.2653 H         1 A7W         0.0803
     18 H6        -29.4103    3.4015  -19.7483 H         1 A7W         0.1760
     19 H7        -29.2674    2.3632  -18.3046 H         1 A7W         0.1760
     20 H8        -29.6308    3.2731  -12.2340 H         1 A7W         0.2501
@<TRIPOS>BOND
     1    1    2 ar 
     2    1    3 ar 
     3    2    6 ar 
     4    3    8 ar 
     5    6    4 ar 
     6    4    9 ar 
     7    9    5 ar 
     8    5   10 ar 
     9    6    7 ar 
    10    7    8 ar 
    11    7   10 ar 
    12    8   11 1  
    13    9   12 1  
    14    1   13 1  
    15    2   14 1  
    16    3   15 1  
    17    4   16 1  
    18    5   17 1  
    19   11   18 1  
    20   11   19 1  
    21   12   20 1  
@<TRIPOS>SUBSTRUCTURE
     1 A7W         1

