### 
### Created by X-TOOL on Mon Sep 10 21:13:28 2018
### 

@<TRIPOS>MOLECULE
5g46_ligand
   24    25     1     0     0
SMALL
GAST_HUCK


@<TRIPOS>ATOM
      1 C1        -27.1960    4.1860  -30.3160 C.ar      1 6VD        -0.0671
      2 C2        -27.3090    2.8480  -30.6350 C.ar      1 6VD        -0.0662
      3 C3        -26.9320    5.1270  -31.2850 C.ar      1 6VD        -0.0534
      4 C4        -27.1820    2.4260  -31.9440 C.ar      1 6VD        -0.0301
      5 C5        -26.7910    4.6870  -32.5880 C.ar      1 6VD         0.0439
      6 C6        -26.9230    3.3520  -32.9320 C.ar      1 6VD         0.0886
      7 C7        -26.3620    5.1990  -35.0240 C.2       1 6VD        -0.0164
      8 C8        -26.5060    5.6780  -33.6340 C.2       1 6VD         0.0898
      9 C9        -26.5070    3.8820  -35.2370 C.2       1 6VD         0.0626
     10 C10       -27.6430    3.0650  -37.3040 C.3       1 6VD        -0.0482
     11 C11       -26.3270    3.3600  -36.6270 C.3       1 6VD         0.0140
     12 N12       -26.7710    2.9350  -34.2650 N.pl3     1 6VD        -0.2519
     13 O13       -26.3700    6.8590  -33.3440 O.2       1 6VD        -0.4314
     14 H1        -27.3171    4.5008  -29.2858 H         1 6VD         0.0540
     15 H2        -27.4989    2.1227  -29.8521 H         1 6VD         0.0623
     16 H3        -26.8378    6.1776  -31.0350 H         1 6VD         0.0636
     17 H4        -27.2851    1.3759  -32.1923 H         1 6VD         0.0558
     18 H5        -26.1472    5.8857  -35.8414 H         1 6VD         0.0199
     19 H6        -27.4560    2.6853  -38.3193 H         1 6VD         0.0261
     20 H7        -28.2405    3.9868  -37.3615 H         1 6VD         0.0261
     21 H8        -28.1918    2.3078  -36.7247 H         1 6VD         0.0261
     22 H9        -25.7366    2.4330  -36.5828 H         1 6VD         0.0520
     23 H10       -25.7853    4.1119  -37.2197 H         1 6VD         0.0520
     24 H11       -26.8550    1.9391  -34.5142 H         1 6VD         0.2281
@<TRIPOS>BOND
     1    1    2 ar 
     2    1    3 ar 
     3    2    4 ar 
     4    3    5 ar 
     5    4    6 ar 
     6    5    6 ar 
     7    5    8 1  
     8    6   12 1  
     9    8    7 1  
    10    7    9 2  
    11    8   13 2  
    12    9   11 1  
    13    9   12 1  
    14   11   10 1  
    15    1   14 1  
    16    2   15 1  
    17    3   16 1  
    18    4   17 1  
    19    7   18 1  
    20   10   19 1  
    21   10   20 1  
    22   10   21 1  
    23   11   22 1  
    24   11   23 1  
    25   12   24 1  
@<TRIPOS>SUBSTRUCTURE
     1 6VD         1

