### 
### Created by X-TOOL on Mon Sep 10 21:13:26 2018
### 

@<TRIPOS>MOLECULE
5g4m_ligand
   37    39     1     0     0
SMALL
GAST_HUCK


@<TRIPOS>ATOM
      1 C1        124.6260  102.8380  -43.9720 C.ar      1 O82         0.0672
      2 F1        127.2850  102.6340  -40.9430 F         1 O82        -0.2465
      3 N1        124.8990  102.9660  -42.6320 N.pl3     1 O82        -0.2603
      4 C2        124.3890  104.1240  -44.4590 C.ar      1 O82        -0.0048
      5 N2        123.1220  108.9790  -41.5990 N.4       1 O82         0.2354
      6 C3        124.5340  105.0320  -43.3650 C.ar      1 O82        -0.0093
      7 C4        124.8520  104.2800  -42.2310 C.ar      1 O82         0.0626
      8 C5        124.5690  101.7010  -44.7810 C.ar      1 O82        -0.0401
      9 C6        124.2570  101.8890  -46.1260 C.ar      1 O82        -0.0730
     10 C7        124.0130  103.1560  -46.6350 C.ar      1 O82        -0.0747
     11 C8        124.0770  104.2900  -45.8230 C.ar      1 O82        -0.0679
     12 C9        125.0690  104.8600  -40.9710 C.ar      1 O82        -0.0447
     13 C10       124.9500  106.2510  -40.8760 C.ar      1 O82        -0.0651
     14 C11       124.6270  107.0210  -41.9930 C.ar      1 O82        -0.0113
     15 C12       124.4190  106.4270  -43.2390 C.ar      1 O82        -0.0617
     16 C13       125.2090  101.8560  -41.7530 C.3       1 O82         0.0749
     17 C14       126.7000  101.6370  -41.6490 C.3       1 O82         0.1146
     18 C15       124.5100  108.5010  -41.8620 C.3       1 O82        -0.0055
     19 C16       123.1270  110.4590  -41.4420 C.3       1 O82        -0.0437
     20 H1        122.7745  108.5529  -40.7541 H         1 O82         0.2023
     21 H2        122.5273  108.7254  -42.3724 H         1 O82         0.2023
     22 H3        124.7597  100.7125  -44.3790 H         1 O82         0.0539
     23 H4        124.2041  101.0305  -46.7857 H         1 O82         0.0570
     24 H5        123.7676  103.2681  -47.6849 H         1 O82         0.0517
     25 H6        123.8908  105.2761  -46.2328 H         1 O82         0.0578
     26 H7        125.3186  104.2549  -40.1069 H         1 O82         0.0528
     27 H8        125.1112  106.7370  -39.9205 H         1 O82         0.0523
     28 H9        124.1712  107.0358  -44.1010 H         1 O82         0.0510
     29 H10       124.7398  100.9434  -42.1493 H         1 O82         0.0603
     30 H11       124.8077  102.0694  -40.7513 H         1 O82         0.0603
     31 H12       126.8892  100.6784  -41.1438 H         1 O82         0.0640
     32 H13       127.1318  101.6100  -42.6603 H         1 O82         0.0640
     33 H14       125.1514  108.8263  -41.0296 H         1 O82         0.0956
     34 H15       124.8624  108.9599  -42.7975 H         1 O82         0.0956
     35 H16       122.1029  110.8106  -41.2481 H         1 O82         0.0777
     36 H17       123.5059  110.9243  -42.3639 H         1 O82         0.0777
     37 H18       123.7757  110.7360  -40.5980 H         1 O82         0.0777
@<TRIPOS>BOND
     1    3    1 1  
     2    1    4 ar 
     3    1    8 ar 
     4   17    2 1  
     5    3    7 1  
     6   16    3 1  
     7    6    4 1  
     8    4   11 ar 
     9   18    5 1  
    10    5   19 1  
    11    7    6 ar 
    12    6   15 ar 
    13    7   12 ar 
    14    8    9 ar 
    15    9   10 ar 
    16   11   10 ar 
    17   12   13 ar 
    18   13   14 ar 
    19   15   14 ar 
    20   14   18 1  
    21   16   17 1  
    22    5   20 1  
    23    5   21 1  
    24    8   22 1  
    25    9   23 1  
    26   10   24 1  
    27   11   25 1  
    28   12   26 1  
    29   13   27 1  
    30   15   28 1  
    31   16   29 1  
    32   16   30 1  
    33   17   31 1  
    34   17   32 1  
    35   18   33 1  
    36   18   34 1  
    37   19   35 1  
    38   19   36 1  
    39   19   37 1  
@<TRIPOS>SUBSTRUCTURE
     1 O82         1

