### 
### Created by X-TOOL on Mon Sep 10 21:13:26 2018
### 

@<TRIPOS>MOLECULE
5g4n_ligand
   37    39     1     0     0
SMALL
GAST_HUCK


@<TRIPOS>ATOM
      1 C1        124.5860  102.9100  -44.0370 C.ar      1 O83         0.0673
      2 F1        127.3170  102.6330  -41.0550 F         1 O83        -0.2066
      3 N1        124.8920  103.0100  -42.7020 N.pl3     1 O83        -0.2573
      4 C2        124.3320  104.2040  -44.4910 C.ar      1 O83        -0.0048
      5 F2        127.0220  100.4930  -41.2170 F         1 O83        -0.2066
      6 N2        123.1270  109.0030  -41.4740 N.4       1 O83         0.2354
      7 C3        124.5000  105.0900  -43.3840 C.ar      1 O83        -0.0093
      8 C4        124.8510  104.3160  -42.2740 C.ar      1 O83         0.0627
      9 C5        124.5120  101.7850  -44.8650 C.ar      1 O83        -0.0401
     10 C6        124.1670  102.0000  -46.1990 C.ar      1 O83        -0.0730
     11 C7        123.9080  103.2760  -46.6790 C.ar      1 O83        -0.0747
     12 C8        123.9860  104.3930  -45.8430 C.ar      1 O83        -0.0679
     13 C9        125.0950  104.8700  -41.0070 C.ar      1 O83        -0.0447
     14 C10       124.9720  106.2580  -40.8830 C.ar      1 O83        -0.0651
     15 C11       124.6190  107.0520  -41.9740 C.ar      1 O83        -0.0113
     16 C12       124.3830  106.4800  -43.2260 C.ar      1 O83        -0.0617
     17 C13       125.2300  101.8810  -41.8580 C.3       1 O83         0.1071
     18 C14       126.7290  101.6760  -41.8130 C.3       1 O83         0.2633
     19 C15       124.4980  108.5310  -41.8180 C.3       1 O83        -0.0055
     20 C16       123.1310  110.4820  -41.3060 C.3       1 O83        -0.0437
     21 H1        122.8296  108.5693  -40.6141 H         1 O83         0.2023
     22 H2        122.4909  108.7520  -42.2145 H         1 O83         0.2023
     23 H3        124.7140  100.7896  -44.4863 H         1 O83         0.0539
     24 H4        124.0999  101.1543  -46.8738 H         1 O83         0.0570
     25 H5        123.6404  103.4086  -47.7210 H         1 O83         0.0517
     26 H6        123.7840  105.3861  -46.2278 H         1 O83         0.0578
     27 H7        125.3670  104.2488  -40.1613 H         1 O83         0.0528
     28 H8        125.1543  106.7248  -39.9218 H         1 O83         0.0523
     29 H9        124.1115  107.1046  -44.0694 H         1 O83         0.0510
     30 H10       124.7536  100.9745  -42.2597 H         1 O83         0.0634
     31 H11       124.8606  102.0686  -40.8390 H         1 O83         0.0634
     32 H12       127.1325  101.6989  -42.8361 H         1 O83         0.1044
     33 H13       125.1825  108.8498  -41.0182 H         1 O83         0.0956
     34 H14       124.7966  109.0026  -42.7659 H         1 O83         0.0956
     35 H15       122.1171  110.8249  -41.0523 H         1 O83         0.0777
     36 H16       123.4546  110.9567  -42.2440 H         1 O83         0.0777
     37 H17       123.8242  110.7573  -40.4975 H         1 O83         0.0777
@<TRIPOS>BOND
     1    3    1 1  
     2    1    4 ar 
     3    1    9 ar 
     4   18    2 1  
     5    3    8 1  
     6   17    3 1  
     7    7    4 1  
     8    4   12 ar 
     9   18    5 1  
    10   19    6 1  
    11    6   20 1  
    12    8    7 ar 
    13    7   16 ar 
    14    8   13 ar 
    15    9   10 ar 
    16   10   11 ar 
    17   12   11 ar 
    18   13   14 ar 
    19   14   15 ar 
    20   16   15 ar 
    21   15   19 1  
    22   17   18 1  
    23    6   21 1  
    24    6   22 1  
    25    9   23 1  
    26   10   24 1  
    27   11   25 1  
    28   12   26 1  
    29   13   27 1  
    30   14   28 1  
    31   16   29 1  
    32   17   30 1  
    33   17   31 1  
    34   18   32 1  
    35   19   33 1  
    36   19   34 1  
    37   20   35 1  
    38   20   36 1  
    39   20   37 1  
@<TRIPOS>SUBSTRUCTURE
     1 O83         1

