### 
### Created by X-TOOL on Mon Sep 10 21:13:26 2018
### 

@<TRIPOS>MOLECULE
5g4o_ligand
   40    42     1     0     0
SMALL
GAST_HUCK


@<TRIPOS>ATOM
      1 C1         91.5310   93.2210  -44.2720 C.ar      1 O80         0.0674
      2 F1         94.2510   93.5720  -41.1270 F         1 O80        -0.1680
      3 N1         91.8380   93.4660  -42.9490 N.pl3     1 O80        -0.2541
      4 C2         91.1050   94.4250  -44.8220 C.ar      1 O80        -0.0048
      5 F2         94.2470   91.4000  -41.2450 F         1 O80        -0.1680
      6 N2         91.9430   99.7870  -42.5300 N.4       1 O80         0.2414
      7 C3         91.1680   95.4030  -43.7890 C.ar      1 O80        -0.0093
      8 F3         94.4060   92.5870  -43.0660 F         1 O80        -0.1680
      9 C4         91.6290   94.7800  -42.6280 C.ar      1 O80         0.0628
     10 C5         91.5840   92.0450  -45.0240 C.ar      1 O80        -0.0401
     11 C6         91.2020   92.1010  -46.3650 C.ar      1 O80        -0.0730
     12 C7         90.7740   93.2940  -46.9370 C.ar      1 O80        -0.0747
     13 C8         90.7210   94.4660  -46.1770 C.ar      1 O80        -0.0679
     14 C9         91.8110   95.4540  -41.4150 C.ar      1 O80        -0.0447
     15 C10        91.5100   96.8130  -41.3930 C.ar      1 O80        -0.0651
     16 C11        91.0480   97.4620  -42.5330 C.ar      1 O80        -0.0112
     17 C12        90.8730   96.7690  -43.7320 C.ar      1 O80        -0.0617
     18 C13        92.3190   92.4910  -42.0010 C.3       1 O80         0.1416
     19 C14        93.8190   92.5240  -41.8570 C.3       1 O80         0.4140
     20 C15        90.7380   98.9130  -42.4700 C.3       1 O80        -0.0040
     21 C16        92.5410   99.7380  -43.8930 C.3       1 O80        -0.0421
     22 C17        91.5620  101.1900  -42.2180 C.3       1 O80        -0.0421
     23 H1         92.6201   99.4657  -41.8560 H         1 O80         0.2040
     24 H2         91.9131   91.1136  -44.5777 H         1 O80         0.0539
     25 H3         91.2394   91.2018  -46.9693 H         1 O80         0.0570
     26 H4         90.4793   93.3153  -47.9800 H         1 O80         0.0517
     27 H5         90.3884   95.3954  -46.6248 H         1 O80         0.0578
     28 H6         92.1708   94.9401  -40.5310 H         1 O80         0.0528
     29 H7         91.6376   97.3735  -40.4740 H         1 O80         0.0523
     30 H8         90.5108   97.2861  -44.6132 H         1 O80         0.0510
     31 H9         92.0184   91.4890  -42.3409 H         1 O80         0.0667
     32 H10        91.8650   92.6972  -41.0205 H         1 O80         0.0667
     33 H11        90.0837   99.1652  -43.3175 H         1 O80         0.0957
     34 H12        90.2098   99.1144  -41.5264 H         1 O80         0.0957
     35 H13        93.4293  100.3859  -43.9272 H         1 O80         0.0778
     36 H14        91.8032  100.0882  -44.6299 H         1 O80         0.0778
     37 H15        92.8323   98.7038  -44.1287 H         1 O80         0.0778
     38 H16        91.1192  101.2346  -41.2121 H         1 O80         0.0778
     39 H17        90.8286  101.5439  -42.9575 H         1 O80         0.0778
     40 H18        92.4564  101.8294  -42.2536 H         1 O80         0.0778
@<TRIPOS>BOND
     1    3    1 1  
     2    1    4 ar 
     3    1   10 ar 
     4   19    2 1  
     5    3    9 1  
     6   18    3 1  
     7    7    4 1  
     8    4   13 ar 
     9   19    5 1  
    10   20    6 1  
    11    6   21 1  
    12    6   22 1  
    13    9    7 ar 
    14    7   17 ar 
    15   19    8 1  
    16    9   14 ar 
    17   10   11 ar 
    18   11   12 ar 
    19   13   12 ar 
    20   14   15 ar 
    21   15   16 ar 
    22   17   16 ar 
    23   16   20 1  
    24   18   19 1  
    25    6   23 1  
    26   10   24 1  
    27   11   25 1  
    28   12   26 1  
    29   13   27 1  
    30   14   28 1  
    31   15   29 1  
    32   17   30 1  
    33   18   31 1  
    34   18   32 1  
    35   20   33 1  
    36   20   34 1  
    37   21   35 1  
    38   21   36 1  
    39   21   37 1  
    40   22   38 1  
    41   22   39 1  
    42   22   40 1  
@<TRIPOS>SUBSTRUCTURE
     1 O80         1

