### 
### Created by X-TOOL on Mon Sep 10 21:13:30 2018
### 

@<TRIPOS>MOLECULE
5g53_ligand
   38    40     1     0     0
SMALL
GAST_HUCK


@<TRIPOS>ATOM
      1 C5'        -3.9690  -41.6580   19.1080 C.2       1 NEC         0.2080
      2 O5'        -2.7680  -41.8540   19.2430 O.2       1 NEC        -0.3941
      3 N5'        -4.5090  -41.2840   17.9480 N.am      1 NEC        -0.2850
      4 C51        -3.7090  -41.1170   16.7500 C.3       1 NEC         0.0281
      5 C52        -4.5490  -40.8610   15.5240 C.3       1 NEC        -0.0449
      6 C4'        -4.9320  -41.8600   20.2450 C.3       1 NEC         0.1788
      7 O4'        -5.2780  -43.2480   20.2540 O.3       1 NEC        -0.3181
      8 C3'        -4.3790  -41.5100   21.6270 C.3       1 NEC         0.1295
      9 O3'        -4.9390  -40.2910   22.1330 O.3       1 NEC        -0.3840
     10 C2'        -4.7220  -42.7090   22.4990 C.3       1 NEC         0.1408
     11 O2'        -5.8820  -42.4930   23.3160 O.3       1 NEC        -0.3834
     12 C1'        -4.9960  -43.8480   21.5260 C.3       1 NEC         0.2035
     13 N9         -3.8290  -44.7780   21.4590 N.pl3     1 NEC        -0.1918
     14 C8         -2.9180  -44.9010   20.4650 C.2       1 NEC         0.1123
     15 N7         -2.0030  -45.8560   20.7630 N.2       1 NEC        -0.2958
     16 C5         -2.3250  -46.3560   21.9640 C.ar      1 NEC         0.1045
     17 C6         -1.7850  -47.3940   22.8710 C.ar      1 NEC         0.1298
     18 N6         -0.6780  -48.0910   22.5240 N.pl3     1 NEC        -0.3152
     19 N1         -2.4290  -47.6170   24.0450 N.ar      1 NEC        -0.2698
     20 C2         -3.5320  -46.9220   24.4000 C.ar      1 NEC         0.0533
     21 N3         -4.0710  -45.9640   23.6200 N.ar      1 NEC        -0.2714
     22 C4         -3.5290  -45.6500   22.4180 C.ar      1 NEC         0.1613
     23 H1         -5.4934  -41.1138   17.9026 H         1 NEC         0.1851
     24 H2         -3.1201  -42.0320   16.5890 H         1 NEC         0.0517
     25 H3         -3.0294  -40.2645   16.8959 H         1 NEC         0.0517
     26 H4         -3.8935  -40.7426   14.6486 H         1 NEC         0.0249
     27 H5         -5.1377  -39.9430   15.6680 H         1 NEC         0.0249
     28 H6         -5.2284  -41.7106   15.3610 H         1 NEC         0.0249
     29 H7         -5.8271  -41.2476   20.0616 H         1 NEC         0.0869
     30 H8         -3.2867  -41.3920   21.5721 H         1 NEC         0.0673
     31 H9         -4.5727  -40.1074   22.9901 H         1 NEC         0.2102
     32 H10        -3.8680  -42.9535   23.1478 H         1 NEC         0.0678
     33 H11        -5.7300  -41.7514   23.8901 H         1 NEC         0.2101
     34 H12        -5.8759  -44.4157   21.8628 H         1 NEC         0.0998
     35 H13        -2.9200  -44.3119   19.5491 H         1 NEC         0.1349
     36 H14        -0.3044  -48.8126   23.1569 H         1 NEC         0.1820
     37 H15        -0.2091  -47.8998   21.6270 H         1 NEC         0.1820
     38 H16        -4.0026  -47.1440   25.3510 H         1 NEC         0.0996
@<TRIPOS>BOND
     1    1    2 2  
     2    1    3 am 
     3    1    6 1  
     4    3    4 1  
     5    4    5 1  
     6    6    7 1  
     7    6    8 1  
     8    7   12 1  
     9    8    9 1  
    10    8   10 1  
    11   10   11 1  
    12   10   12 1  
    13   12   13 1  
    14   13   14 1  
    15   13   22 1  
    16   14   15 2  
    17   15   16 1  
    18   16   17 ar 
    19   16   22 ar 
    20   17   18 1  
    21   17   19 ar 
    22   19   20 ar 
    23   20   21 ar 
    24   21   22 ar 
    25    3   23 1  
    26    4   24 1  
    27    4   25 1  
    28    5   26 1  
    29    5   27 1  
    30    5   28 1  
    31    6   29 1  
    32    8   30 1  
    33    9   31 1  
    34   10   32 1  
    35   11   33 1  
    36   12   34 1  
    37   14   35 1  
    38   18   36 1  
    39   18   37 1  
    40   20   38 1  
@<TRIPOS>SUBSTRUCTURE
     1 NEC         1

