### 
### Created by X-TOOL on Wed Jan  1 15:39:34 2020
### 

@<TRIPOS>MOLECULE
5g57_ligand
   83    88     1     0     0
SMALL
GAST_HUCK


@<TRIPOS>ATOM
      1 C1         28.6120   12.6970   -0.6610 C.ar      1 6M5         0.1201
      2 C2         28.2610   13.2860   -1.8940 C.ar      1 6M5         0.1196
      3 C3         28.1510   15.2740   -3.2870 C.3       1 6M5         0.0680
      4 C4         28.2950   16.7740   -3.1560 C.3       1 6M5        -0.0230
      5 C5         28.0660   17.5190   -4.4570 C.3       1 6M5        -0.0224
      6 C6         26.6950   18.1200   -4.6140 C.3       1 6M5         0.0720
      7 C7         24.4440   17.3840   -5.0660 C.ar      1 6M5         0.0973
      8 N1         18.5590   17.7770   -7.3940 N.2       1 6M5        -0.1422
      9 N2         18.8270   19.0420   -7.4370 N.2       1 6M5        -0.0667
     10 N3         20.0860   19.2670   -6.9800 N.pl3     1 6M5        -0.1536
     11 N4         26.5930   10.9020   -4.8620 N.2       1 6M5        -0.2035
     12 C8         23.9900   18.6860   -5.2460 C.ar      1 6M5        -0.0266
     13 C10        21.8980   17.8450   -6.0740 C.ar      1 6M5         0.0300
     14 C20        23.8850   11.4660   -5.9050 C.3       1 6M5        -0.0230
     15 C30        25.3070    6.9020   -3.4070 C.2       1 6M5        -0.0963
     16 O3         25.5950    8.2010   -6.9530 O.2       1 6M5        -0.3833
     17 C26        26.2020    8.8180   -6.0760 C.2       1 6M5         0.2244
     18 N5         25.9760   10.1700   -5.8520 N.am      1 6M5        -0.1658
     19 C19        25.0660   10.9520   -6.7150 C.3       1 6M5         0.0795
     20 C25        25.8730   12.0170   -7.4540 C.3       1 6M5        -0.0230
     21 C24        25.3180   12.4600   -8.8070 C.3       1 6M5        -0.0504
     22 C23        23.8530   12.9000   -8.8770 C.3       1 6M5        -0.0530
     23 C22        23.2010   13.2700   -7.5460 C.3       1 6M5        -0.0530
     24 C21        22.7550   12.0780   -6.7270 C.3       1 6M5        -0.0504
     25 C27        27.1760    8.1550   -5.1420 C.3       1 6M5         0.0759
     26 C32        27.0090    8.7650   -3.7330 C.3       1 6M5         0.0294
     27 C31        25.6510    8.3310   -3.1600 C.3       1 6M5        -0.0215
     28 C29        25.8930    6.1680   -4.3350 C.2       1 6M5        -0.0958
     29 C28        27.0900    6.6250   -5.1040 C.3       1 6M5        -0.0140
     30 C18        27.0740   10.2830   -3.8430 C.2       1 6M5         0.0422
     31 C15        27.6250   11.0990   -2.7270 C.ar      1 6M5        -0.0282
     32 C16        27.9540   10.5340   -1.5020 C.ar      1 6M5        -0.0736
     33 C17        28.4600   11.3270   -0.4840 C.ar      1 6M5        -0.0405
     34 O          29.0810   13.5570    0.2950 O.3       1 6M5        -0.3243
     35 C          29.8970   13.0000    1.3380 C.3       1 6M5         0.0572
     36 C14        27.7490   12.4810   -2.9010 C.ar      1 6M5        -0.0344
     37 O1         28.4320   14.6500   -2.0170 O.3       1 6M5        -0.3219
     38 O2         25.6970   17.0810   -4.5960 O.3       1 6M5        -0.3140
     39 C12        23.6320   16.3140   -5.4090 C.ar      1 6M5        -0.0266
     40 C11        22.3690   16.5460   -5.9150 C.ar      1 6M5        -0.0514
     41 C9         22.7170   18.9110   -5.7280 C.ar      1 6M5        -0.0514
     42 C13        20.5720   18.0870   -6.6290 C.2       1 6M5         0.1774
     43 N          19.6460   17.1620   -6.8990 N.2       1 6M5        -0.2130
     44 H1         28.8590   14.9025   -4.0424 H         1 6M5         0.0609
     45 H2         27.1238   15.0300   -3.5958 H         1 6M5         0.0609
     46 H3         29.3123   16.9966   -2.8016 H         1 6M5         0.0292
     47 H4         27.5628   17.1310   -2.4168 H         1 6M5         0.0292
     48 H5         28.2265   16.8144   -5.2863 H         1 6M5         0.0292
     49 H6         28.8040   18.3323   -4.5188 H         1 6M5         0.0292
     50 H7         26.6413   18.6602   -5.5707 H         1 6M5         0.0617
     51 H8         26.5071   18.8200   -3.7866 H         1 6M5         0.0617
     52 H9         20.5671   20.1757   -6.9187 H         1 6M5         0.2695
     53 H10        24.6357   19.5235   -5.0078 H         1 6M5         0.0559
     54 H11        24.2562   12.2342   -5.2108 H         1 6M5         0.0293
     55 H12        23.4717   10.6228   -5.3320 H         1 6M5         0.0293
     56 H13        24.5351    6.4411   -2.7925 H         1 6M5         0.0452
     57 H14        24.6552   10.2746   -7.4781 H         1 6M5         0.0640
     58 H15        26.8845   11.6179   -7.6197 H         1 6M5         0.0293
     59 H16        25.9305   12.9047   -6.8070 H         1 6M5         0.0293
     60 H17        25.4389   11.6158   -9.5018 H         1 6M5         0.0266
     61 H18        25.9301   13.3074   -9.1494 H         1 6M5         0.0266
     62 H19        23.2743   12.0747   -9.3173 H         1 6M5         0.0265
     63 H20        23.7967   13.7794   -9.5353 H         1 6M5         0.0265
     64 H21        22.3205   13.8956   -7.7541 H         1 6M5         0.0265
     65 H22        23.9274   13.8449   -6.9529 H         1 6M5         0.0265
     66 H23        21.9579   12.4017   -6.0416 H         1 6M5         0.0266
     67 H24        22.3621   11.3103   -7.4098 H         1 6M5         0.0266
     68 H25        28.1865    8.4041   -5.4981 H         1 6M5         0.0588
     69 H26        27.8158    8.4094   -3.0752 H         1 6M5         0.0504
     70 H27        25.6671    8.4981   -2.0729 H         1 6M5         0.0413
     71 H28        24.8695    8.9568   -3.6157 H         1 6M5         0.0413
     72 H29        25.4842    5.1819   -4.5504 H         1 6M5         0.0452
     73 H30        27.9969    6.2268   -4.6255 H         1 6M5         0.0417
     74 H31        27.0213    6.2442   -6.1337 H         1 6M5         0.0417
     75 H32        27.8149    9.4710   -1.3416 H         1 6M5         0.0497
     76 H33        28.7401   10.8738    0.4601 H         1 6M5         0.0514
     77 H34        30.2014   13.7981    2.0310 H         1 6M5         0.0574
     78 H35        30.7917   12.5372    0.8960 H         1 6M5         0.0574
     79 H36        29.3227   12.2383    1.8856 H         1 6M5         0.0574
     80 H37        27.4401   12.9304   -3.8378 H         1 6M5         0.0497
     81 H38        23.9879   15.2982   -5.2802 H         1 6M5         0.0559
     82 H39        21.7386   15.7084   -6.1909 H         1 6M5         0.0639
     83 H40        22.3541   19.9266   -5.8372 H         1 6M5         0.0639
@<TRIPOS>BOND
     1    2    1 ar 
     2    1   33 ar 
     3    1   34 1  
     4   36    2 ar 
     5    2   37 1  
     6    3    4 1  
     7   37    3 1  
     8    4    5 1  
     9    5    6 1  
    10    6   38 1  
    11    7   12 ar 
    12   38    7 1  
    13    7   39 ar 
    14    9    8 2  
    15    8   43 1  
    16   10    9 1  
    17   42   10 1  
    18   11   18 1  
    19   30   11 2  
    20   12   41 ar 
    21   13   40 ar 
    22   41   13 ar 
    23   13   42 1  
    24   19   14 1  
    25   14   24 1  
    26   27   15 1  
    27   15   28 2  
    28   17   16 2  
    29   18   17 am 
    30   25   17 1  
    31   18   19 1  
    32   19   20 1  
    33   20   21 1  
    34   21   22 1  
    35   22   23 1  
    36   24   23 1  
    37   26   25 1  
    38   25   29 1  
    39   26   27 1  
    40   30   26 1  
    41   29   28 1  
    42   31   30 1  
    43   31   32 ar 
    44   31   36 ar 
    45   32   33 ar 
    46   34   35 1  
    47   39   40 ar 
    48   42   43 2  
    49    3   44 1  
    50    3   45 1  
    51    4   46 1  
    52    4   47 1  
    53    5   48 1  
    54    5   49 1  
    55    6   50 1  
    56    6   51 1  
    57   10   52 1  
    58   12   53 1  
    59   14   54 1  
    60   14   55 1  
    61   15   56 1  
    62   19   57 1  
    63   20   58 1  
    64   20   59 1  
    65   21   60 1  
    66   21   61 1  
    67   22   62 1  
    68   22   63 1  
    69   23   64 1  
    70   23   65 1  
    71   24   66 1  
    72   24   67 1  
    73   25   68 1  
    74   26   69 1  
    75   27   70 1  
    76   27   71 1  
    77   28   72 1  
    78   29   73 1  
    79   29   74 1  
    80   32   75 1  
    81   33   76 1  
    82   35   77 1  
    83   35   78 1  
    84   35   79 1  
    85   36   80 1  
    86   39   81 1  
    87   40   82 1  
    88   41   83 1  
@<TRIPOS>SUBSTRUCTURE
     1 6M5         1

