### 
### Created by X-TOOL on Mon Sep 10 21:13:33 2018
### 

@<TRIPOS>MOLECULE
5g5f_ligand
   36    35     1     0     0
SMALL
GAST_HUCK


@<TRIPOS>ATOM
      1 N1         -3.8370  -27.9090   19.1950 N.4       1 GSH         0.2328
      2 CA1        -3.2300  -27.7900   17.9200 C.3       1 GSH         0.0304
      3 C1         -3.5960  -26.4690   17.2680 C.2       1 GSH         0.0846
      4 O11        -2.7630  -25.8920   16.5190 O.co2     1 GSH        -0.5643
      5 O12        -4.7340  -25.9370   17.4680 O.co2     1 GSH        -0.5643
      6 CB1        -3.6500  -28.9340   17.0090 C.3       1 GSH         0.0193
      7 CG1        -2.6160  -29.0860   15.8910 C.3       1 GSH         0.0441
      8 CD1        -2.8710  -30.3370   15.0750 C.2       1 GSH         0.1785
      9 OE1        -3.2140  -31.3610   15.6200 O.2       1 GSH        -0.3969
     10 N2         -2.7070  -30.3440   13.6260 N.am      1 GSH        -0.2648
     11 CA2        -2.9410  -31.6210   12.9740 C.3       1 GSH         0.1395
     12 C2         -1.6030  -32.1510   12.5050 C.2       1 GSH         0.2039
     13 O2         -1.4290  -32.5170   11.3590 O.2       1 GSH        -0.3944
     14 CB2        -3.8430  -31.5590   11.8480 C.3       1 GSH         0.0311
     15 SG2        -4.7210  -30.0430   11.8280 S.3       1 GSH        -0.1735
     16 N3         -0.5660  -32.1590   13.4950 N.am      1 GSH        -0.2722
     17 CA3         0.7220  -32.6550   13.1720 C.3       1 GSH         0.0833
     18 C3          0.5410  -33.9160   13.9650 C.2       1 GSH         0.0570
     19 O31        -0.5760  -34.1630   14.4640 O.co2     1 GSH        -0.5669
     20 O32         1.4670  -34.7270   14.1680 O.co2     1 GSH        -0.5669
     21 H1         -3.5805  -28.7919   19.6081 H         1 GSH         0.2010
     22 H2         -4.8390  -27.8630   19.0957 H         1 GSH         0.2010
     23 H3         -3.5232  -27.1568   19.7881 H         1 GSH         0.2010
     24 H4         -2.1385  -27.8274   18.0513 H         1 GSH         0.1026
     25 H5         -4.6356  -28.7150   16.5724 H         1 GSH         0.0363
     26 H6         -3.7051  -29.8667   17.5896 H         1 GSH         0.0363
     27 H7         -1.6121  -29.1468   16.3366 H         1 GSH         0.0505
     28 H8         -2.6712  -28.2088   15.2296 H         1 GSH         0.0505
     29 H9         -2.4504  -29.5238   13.1148 H         1 GSH         0.1883
     30 H10        -3.3682  -32.3132   13.7145 H         1 GSH         0.0808
     31 H11        -4.5611  -32.3894   11.9164 H         1 GSH         0.0422
     32 H12        -3.2635  -31.6511   10.9176 H         1 GSH         0.0422
     33 H13        -4.0674  -29.2784   11.7614 H         1 GSH         0.1019
     34 H14        -0.7517  -31.8140   14.4151 H         1 GSH         0.1873
     35 H15         1.5385  -32.0200   13.5462 H         1 GSH         0.0689
     36 H16         0.8610  -32.8348   12.0958 H         1 GSH         0.0689
@<TRIPOS>BOND
     1    1    2 1  
     2    2    3 1  
     3    2    6 1  
     4    3    4 ar 
     5    3    5 ar 
     6    6    7 1  
     7    7    8 1  
     8    8    9 2  
     9    8   10 am 
    10   10   11 1  
    11   11   12 1  
    12   11   14 1  
    13   12   13 2  
    14   12   16 am 
    15   14   15 1  
    16   16   17 1  
    17   17   18 1  
    18   18   19 ar 
    19   18   20 ar 
    20    1   21 1  
    21    1   22 1  
    22    1   23 1  
    23    2   24 1  
    24    6   25 1  
    25    6   26 1  
    26    7   27 1  
    27    7   28 1  
    28   10   29 1  
    29   11   30 1  
    30   14   31 1  
    31   14   32 1  
    32   15   33 1  
    33   16   34 1  
    34   17   35 1  
    35   17   36 1  
@<TRIPOS>SUBSTRUCTURE
     1 GSH         1

