### 
### Created by X-TOOL on Wed Jan  1 15:39:35 2020
### 

@<TRIPOS>MOLECULE
5g5v_ligand
   69    73     1     0     0
SMALL
GAST_HUCK


@<TRIPOS>ATOM
      1 O3        135.9070   85.7140   63.9910 O.2       1 8Z4        -0.3833
      2 C28       135.7240   86.7580   64.6020 C.2       1 8Z4         0.2243
      3 N         134.7600   87.6810   64.1930 N.am      1 8Z4        -0.1664
      4 C1        133.8830   87.4410   63.0180 C.3       1 8Z4         0.0738
      5 C2        134.2830   88.3340   61.8630 C.3       1 8Z4        -0.0353
      6 C         132.4310   87.6270   63.4010 C.3       1 8Z4        -0.0353
      7 C27       136.5570   87.1320   65.8110 C.3       1 8Z4         0.0759
      8 C26       137.2950   85.9680   66.4910 C.3       1 8Z4        -0.0140
      9 C25       136.4410   85.2200   67.4580 C.2       1 8Z4        -0.0958
     10 C24       135.2760   85.6600   67.8870 C.2       1 8Z4        -0.0963
     11 C23       134.7030   86.9830   67.5080 C.3       1 8Z4        -0.0215
     12 C22       135.6980   87.9390   66.8080 C.3       1 8Z4         0.0297
     13 C3        134.9880   89.0280   66.0240 C.2       1 8Z4         0.0453
     14 N1        134.5570   88.8820   64.8210 N.2       1 8Z4        -0.2033
     15 C4        134.7310   90.3490   66.6470 C.ar      1 8Z4        -0.0173
     16 C21       134.6220   91.4860   65.8430 C.ar      1 8Z4        -0.0529
     17 C9        134.3180   92.7130   66.4190 C.ar      1 8Z4         0.0155
     18 C7        134.1940   92.8060   67.8210 C.ar      1 8Z4         0.1028
     19 O         133.9430   94.0660   68.3030 O.3       1 8Z4        -0.3177
     20 C8        133.5420   94.2370   69.6590 C.3       1 8Z4         0.0608
     21 C6        134.3070   91.6720   68.6160 C.ar      1 8Z4        -0.0301
     22 C5        134.5700   90.4500   68.0260 C.ar      1 8Z4        -0.0614
     23 C10       134.2990   93.8900   65.6510 C.ar      1 8Z4        -0.0175
     24 C20       133.1240   94.5680   65.3330 C.ar      1 8Z4        -0.0516
     25 C19       133.1650   95.7830   64.6660 C.ar      1 8Z4        -0.0437
     26 C13       134.3820   96.3670   64.3250 C.ar      1 8Z4         0.0477
     27 C12       135.5550   95.7180   64.6940 C.ar      1 8Z4        -0.0437
     28 C11       135.5100   94.4990   65.3430 C.ar      1 8Z4        -0.0516
     29 C14       134.4220   97.7230   63.6890 C.2       1 8Z4         0.2058
     30 O2        133.7030   98.6150   64.1500 O.2       1 8Z4        -0.3856
     31 N2        135.3270   98.0040   62.7370 N.am      1 8Z4        -0.2702
     32 C18       135.3600   99.3200   62.0770 C.3       1 8Z4         0.0593
     33 C17       135.8800   98.9320   60.7040 C.3       1 8Z4         0.0772
     34 O1        134.8690   98.2480   59.9730 O.3       1 8Z4        -0.3897
     35 C16       137.0040   97.9860   61.0880 C.3       1 8Z4        -0.0045
     36 C15       136.4040   97.1500   62.2040 C.3       1 8Z4         0.0358
     37 H1        134.0168   86.3971   62.6981 H         1 8Z4         0.0635
     38 H2        133.6227   88.1411   61.0047 H         1 8Z4         0.0258
     39 H3        135.3244   88.1222   61.5793 H         1 8Z4         0.0258
     40 H4        134.1925   89.3876   62.1657 H         1 8Z4         0.0258
     41 H5        131.7941   87.4464   62.5225 H         1 8Z4         0.0258
     42 H6        132.2756   88.6545   63.7615 H         1 8Z4         0.0258
     43 H7        132.1677   86.9152   64.1973 H         1 8Z4         0.0258
     44 H8        137.3421   87.8099   65.4449 H         1 8Z4         0.0588
     45 H9        138.1640   86.3720   67.0310 H         1 8Z4         0.0417
     46 H10       137.6385   85.2694   65.7139 H         1 8Z4         0.0417
     47 H11       136.7990   84.2606   67.8285 H         1 8Z4         0.0452
     48 H12       134.6996   85.0221   68.5554 H         1 8Z4         0.0452
     49 H13       134.3406   87.4748   68.4228 H         1 8Z4         0.0413
     50 H14       133.8577   86.8082   66.8261 H         1 8Z4         0.0413
     51 H15       136.3439   88.4020   67.5685 H         1 8Z4         0.0505
     52 H16       134.7742   91.4111   64.7724 H         1 8Z4         0.0595
     53 H17       133.3871   95.3067   69.8634 H         1 8Z4         0.0581
     54 H18       134.3252   93.8461   70.3251 H         1 8Z4         0.0581
     55 H19       132.6039   93.6904   69.8357 H         1 8Z4         0.0581
     56 H20       134.1897   91.7451   69.6912 H         1 8Z4         0.0548
     57 H21       134.6516   89.5623   68.6427 H         1 8Z4         0.0595
     58 H22       132.1670   94.1408   65.6101 H         1 8Z4         0.0617
     59 H23       132.2391   96.2838   64.4072 H         1 8Z4         0.0663
     60 H24       136.5134   96.1725   64.4705 H         1 8Z4         0.0663
     61 H25       136.4368   94.0082   65.6172 H         1 8Z4         0.0617
     62 H26       136.0439  100.0132   62.5886 H         1 8Z4         0.0547
     63 H27       134.3578   99.7697   62.0188 H         1 8Z4         0.0547
     64 H28       136.2434   99.7994   60.1335 H         1 8Z4         0.0614
     65 H29       134.6155   97.4630   60.4440 H         1 8Z4         0.2099
     66 H30       137.8822   98.5442   61.4446 H         1 8Z4         0.0310
     67 H31       137.2929   97.3534   60.2357 H         1 8Z4         0.0310
     68 H32       135.9987   96.2054   61.8124 H         1 8Z4         0.0522
     69 H33       137.1538   96.9339   62.9793 H         1 8Z4         0.0522
@<TRIPOS>BOND
     1    1    2 2  
     2    2    3 am 
     3    2    7 1  
     4    3    4 1  
     5    3   14 1  
     6    4    5 1  
     7    4    6 1  
     8    7    8 1  
     9    7   12 1  
    10    8    9 1  
    11    9   10 2  
    12   10   11 1  
    13   11   12 1  
    14   12   13 1  
    15   13   14 2  
    16   13   15 1  
    17   15   16 ar 
    18   15   22 ar 
    19   16   17 ar 
    20   17   18 ar 
    21   17   23 1  
    22   18   19 1  
    23   18   21 ar 
    24   19   20 1  
    25   21   22 ar 
    26   23   24 ar 
    27   23   28 ar 
    28   24   25 ar 
    29   25   26 ar 
    30   26   27 ar 
    31   26   29 1  
    32   27   28 ar 
    33   29   30 2  
    34   29   31 am 
    35   31   32 1  
    36   31   36 1  
    37   32   33 1  
    38   33   34 1  
    39   33   35 1  
    40   35   36 1  
    41    4   37 1  
    42    5   38 1  
    43    5   39 1  
    44    5   40 1  
    45    6   41 1  
    46    6   42 1  
    47    6   43 1  
    48    7   44 1  
    49    8   45 1  
    50    8   46 1  
    51    9   47 1  
    52   10   48 1  
    53   11   49 1  
    54   11   50 1  
    55   12   51 1  
    56   16   52 1  
    57   20   53 1  
    58   20   54 1  
    59   20   55 1  
    60   21   56 1  
    61   22   57 1  
    62   24   58 1  
    63   25   59 1  
    64   27   60 1  
    65   28   61 1  
    66   32   62 1  
    67   32   63 1  
    68   33   64 1  
    69   34   65 1  
    70   35   66 1  
    71   35   67 1  
    72   36   68 1  
    73   36   69 1  
@<TRIPOS>SUBSTRUCTURE
     1 8Z4         1

