### 
### Created by X-TOOL on Mon Sep 10 21:13:31 2018
### 

@<TRIPOS>MOLECULE
5g5z_ligand
   66    68     1     0     0
SMALL
GAST_HUCK


@<TRIPOS>ATOM
      1 C1        -17.4300  -65.5680  -48.6000 C.3       1 DQR         0.1912
      2 C10       -17.9780  -66.6820  -51.4600 C.3       1 DQR         0.1078
      3 C11       -16.8790  -67.8240  -53.8490 C.3       1 DQR         0.1008
      4 C2        -16.0820  -66.0030  -48.0500 C.3       1 DQR         0.1342
      5 C20       -19.0620  -66.3480  -50.4160 C.3       1 DQR         0.2256
      6 C21       -17.7700  -68.6400  -52.9760 C.3       1 DQR         0.2231
      7 C3        -16.2380  -67.0100  -46.9630 C.3       1 DQR         0.1141
      8 C30       -20.1580  -67.3480  -49.9380 C.3       1 DQR         0.1395
      9 C31       -17.5150  -69.9340  -52.9610 C.3       1 DQR         0.1394
     10 C4        -17.0350  -66.4560  -45.8570 C.3       1 DQR         0.1119
     11 C40       -21.0510  -66.4410  -49.1300 C.3       1 DQR         0.1145
     12 C41       -18.9180  -70.5980  -52.7080 C.3       1 DQR         0.1145
     13 C5        -18.3810  -66.0230  -46.3810 C.3       1 DQR         0.1130
     14 C50       -20.8660  -65.2410  -49.6680 C.3       1 DQR         0.1134
     15 C51       -19.7870  -69.7450  -53.6720 C.3       1 DQR         0.1134
     16 C6        -19.1770  -65.4520  -45.2470 C.3       1 DQR         0.0730
     17 C60       -21.2320  -64.1840  -48.6820 C.3       1 DQR         0.0730
     18 C61       -21.2590  -69.6620  -53.2660 C.3       1 DQR         0.0730
     19 O1        -18.1010  -66.6540  -49.2730 O.3       1 DQR        -0.3125
     20 O10       -17.8280  -68.0890  -51.5950 O.3       1 DQR        -0.3391
     21 O11       -15.5030  -67.9790  -53.5130 O.3       1 DQR        -0.3896
     22 O2        -15.2940  -66.5550  -49.1280 O.3       1 DQR        -0.3841
     23 O20       -19.3070  -65.1680  -50.0340 O.3       1 DQR        -0.3362
     24 O21       -19.2580  -68.5410  -53.6450 O.3       1 DQR        -0.3363
     25 O3        -14.9460  -67.4930  -46.4620 O.3       1 DQR        -0.3864
     26 O30       -19.7430  -68.3900  -49.1700 O.3       1 DQR        -0.3837
     27 O31       -16.5800  -70.3340  -51.9240 O.3       1 DQR        -0.3837
     28 O4        -17.2710  -67.5020  -44.8810 O.3       1 DQR        -0.3865
     29 O40       -22.5080  -66.8010  -49.1890 O.3       1 DQR        -0.3864
     30 O41       -18.9780  -71.8780  -53.1200 O.3       1 DQR        -0.3864
     31 O5        -18.1950  -65.0250  -47.4410 O.3       1 DQR        -0.3404
     32 O60       -20.4520  -63.0250  -48.9340 O.3       1 DQR        -0.3924
     33 O61       -21.7920  -68.6410  -54.0540 O.3       1 DQR        -0.3924
     34 O6        -18.7420  -64.1650  -44.9520 O.3       1 DQR        -0.3924
     35 H1        -17.2783  -64.7620  -49.3330 H         1 DQR         0.0939
     36 H2        -17.0206  -66.2459  -51.1389 H         1 DQR         0.0616
     37 H3        -18.2681  -66.2549  -52.4313 H         1 DQR         0.0616
     38 H4        -17.1522  -66.7640  -53.7410 H         1 DQR         0.0612
     39 H5        -17.0253  -68.1358  -54.8937 H         1 DQR         0.0612
     40 H6        -15.5648  -65.1227  -47.6407 H         1 DQR         0.0671
     41 H7        -16.7809  -67.8713  -47.3793 H         1 DQR         0.0648
     42 H8        -20.6912  -67.7573  -50.8087 H         1 DQR         0.0675
     43 H9        -17.1115  -70.2448  -53.9360 H         1 DQR         0.0675
     44 H10       -16.5084  -65.6072  -45.3964 H         1 DQR         0.0647
     45 H11       -20.7304  -66.4473  -48.0778 H         1 DQR         0.0648
     46 H12       -19.2304  -70.5171  -51.6564 H         1 DQR         0.0648
     47 H13       -18.9117  -66.8931  -46.7948 H         1 DQR         0.0647
     48 H14       -21.4776  -65.1253  -50.5750 H         1 DQR         0.0647
     49 H15       -19.7262  -70.1654  -54.6867 H         1 DQR         0.0647
     50 H16       -19.0526  -66.0894  -44.3592 H         1 DQR         0.0584
     51 H17       -20.2396  -65.4200  -45.5295 H         1 DQR         0.0584
     52 H18       -21.0344  -64.5467  -47.6625 H         1 DQR         0.0584
     53 H19       -22.2995  -63.9390  -48.7836 H         1 DQR         0.0584
     54 H20       -21.3526  -69.4155  -52.1981 H         1 DQR         0.0584
     55 H21       -21.7707  -70.6144  -53.4687 H         1 DQR         0.0584
     56 H22       -15.2554  -68.8910  -53.6096 H         1 DQR         0.2096
     57 H23       -15.7295  -67.3247  -49.4752 H         1 DQR         0.2101
     58 H24       -15.0927  -68.1710  -45.8129 H         1 DQR         0.2100
     59 H25       -19.2602  -68.0582  -48.4221 H         1 DQR         0.2101
     60 H26       -15.7365  -69.9280  -52.0859 H         1 DQR         0.2101
     61 H27       -16.4399  -67.7989  -44.5294 H         1 DQR         0.2100
     62 H28       -22.7936  -66.8134  -50.0950 H         1 DQR         0.2100
     63 H29       -19.8804  -72.1742  -53.0992 H         1 DQR         0.2100
     64 H30       -19.5307  -63.2395  -48.8466 H         1 DQR         0.2095
     65 H31       -22.7139  -68.5345  -53.8512 H         1 DQR         0.2095
     66 H32       -18.8504  -63.6122  -45.7170 H         1 DQR         0.2095
@<TRIPOS>BOND
     1    1    4 1  
     2   19    1 1  
     3    1   31 1  
     4    2    5 1  
     5   20    2 1  
     6    6    3 1  
     7    3   21 1  
     8    4    7 1  
     9    4   22 1  
    10    5    8 1  
    11    5   19 1  
    12    5   23 1  
    13    6    9 1  
    14    6   20 1  
    15    6   24 1  
    16    7   10 1  
    17    7   25 1  
    18    8   11 1  
    19    8   26 1  
    20    9   12 1  
    21    9   27 1  
    22   10   13 1  
    23   10   28 1  
    24   11   14 1  
    25   11   29 1  
    26   12   15 1  
    27   12   30 1  
    28   13   16 1  
    29   13   31 1  
    30   14   17 1  
    31   14   23 1  
    32   15   18 1  
    33   15   24 1  
    34   16   34 1  
    35   17   32 1  
    36   18   33 1  
    37    1   35 1  
    38    2   36 1  
    39    2   37 1  
    40    3   38 1  
    41    3   39 1  
    42    4   40 1  
    43    7   41 1  
    44    8   42 1  
    45    9   43 1  
    46   10   44 1  
    47   11   45 1  
    48   12   46 1  
    49   13   47 1  
    50   14   48 1  
    51   15   49 1  
    52   16   50 1  
    53   16   51 1  
    54   17   52 1  
    55   17   53 1  
    56   18   54 1  
    57   18   55 1  
    58   21   56 1  
    59   22   57 1  
    60   25   58 1  
    61   26   59 1  
    62   27   60 1  
    63   28   61 1  
    64   29   62 1  
    65   30   63 1  
    66   32   64 1  
    67   33   65 1  
    68   34   66 1  
@<TRIPOS>SUBSTRUCTURE
     1 DQR         1

