### 
### Created by X-TOOL on Mon Sep 10 21:13:31 2018
### 

@<TRIPOS>MOLECULE
5g60_ligand
   87    90     1     0     0
SMALL
GAST_HUCK


@<TRIPOS>ATOM
      1 C1         18.8040   46.3720   49.3200 C.3       1 NYT         0.1912
      2 O1         18.7940   45.0610   48.7650 O.3       1 NYT        -0.3125
      3 C2         17.3990   46.7360   49.7440 C.3       1 NYT         0.1342
      4 O2         16.9530   45.7480   50.6880 O.3       1 NYT        -0.3841
      5 C3         16.4930   46.7350   48.5350 C.3       1 NYT         0.1141
      6 O3         15.1590   47.1370   48.8130 O.3       1 NYT        -0.3864
      7 C4         17.0200   47.7280   47.5110 C.3       1 NYT         0.1119
      8 O4         16.1300   47.6700   46.3690 O.3       1 NYT        -0.3865
      9 C5         18.4530   47.3610   47.1310 C.3       1 NYT         0.1130
     10 O5         19.2900   47.1970   48.2970 O.3       1 NYT        -0.3404
     11 C6         19.1070   48.3860   46.2070 C.3       1 NYT         0.0730
     12 O6         18.5550   49.6820   46.3630 O.3       1 NYT        -0.3924
     13 C11        20.2270   43.9920   50.4520 C.3       1 NYT         0.1078
     14 O11        21.3750   43.1340   50.5180 O.3       1 NYT        -0.3391
     15 C12        21.6780   43.1820   52.9410 C.3       1 NYT         0.1077
     16 O12        21.1040   41.8920   53.1390 O.3       1 NYT        -0.3391
     17 C13        20.1220   42.2400   55.3550 C.3       1 NYT         0.1008
     18 O13        18.7960   42.1360   54.8620 O.3       1 NYT        -0.3896
     19 C21        19.9050   44.2430   48.9710 C.3       1 NYT         0.2256
     20 O21        20.9960   44.9560   48.4010 O.3       1 NYT        -0.3362
     21 C22        22.3040   43.4040   51.5610 C.3       1 NYT         0.2234
     22 O22        22.8290   44.7440   51.5310 O.3       1 NYT        -0.3363
     23 C23        21.0650   41.4260   54.4920 C.3       1 NYT         0.2231
     24 O23        22.3260   41.5170   55.0830 O.3       1 NYT        -0.3363
     25 C31        19.6990   42.9410   48.1350 C.3       1 NYT         0.1395
     26 O31        18.3270   42.4900   47.9930 O.3       1 NYT        -0.3837
     27 C32        23.4950   42.5340   51.3260 C.3       1 NYT         0.1394
     28 O32        23.0250   41.3580   50.6910 O.3       1 NYT        -0.3837
     29 C33        20.7700   39.9370   54.4500 C.3       1 NYT         0.1394
     30 O33        19.8540   39.5780   53.4310 O.3       1 NYT        -0.3837
     31 C41        20.3350   43.2820   46.7770 C.3       1 NYT         0.1145
     32 O41        20.7690   42.1220   46.0110 O.3       1 NYT        -0.3864
     33 C42        24.3610   43.3710   50.4140 C.3       1 NYT         0.1145
     34 O42        25.7260   43.0540   50.5250 O.3       1 NYT        -0.3864
     35 C43        22.1180   39.3830   54.1520 C.3       1 NYT         0.1145
     36 O43        22.2540   37.9830   54.4500 O.3       1 NYT        -0.3864
     37 C51        21.4760   44.2080   47.2590 C.3       1 NYT         0.1134
     38 C52        24.1180   44.7840   50.9190 C.3       1 NYT         0.1134
     39 C53        22.9680   40.2510   55.0510 C.3       1 NYT         0.1134
     40 C61        22.0430   45.1320   46.1880 C.3       1 NYT         0.0730
     41 O61        21.0130   46.0440   45.8880 O.3       1 NYT        -0.3924
     42 C62        24.1130   45.7580   49.7430 C.3       1 NYT         0.0730
     43 O62        23.5750   47.0080   50.1700 O.3       1 NYT        -0.3924
     44 C63        24.4170   40.4060   54.5960 C.3       1 NYT         0.0730
     45 O63        25.0980   41.2690   55.4970 O.3       1 NYT        -0.3924
     46 H1         19.4712   46.4216   50.1931 H         1 NYT         0.0939
     47 H2         17.3920   47.7320   50.2109 H         1 NYT         0.0671
     48 H3         16.9616   44.8918   50.2765 H         1 NYT         0.2101
     49 H4         16.4828   45.7213   48.1081 H         1 NYT         0.0648
     50 H5         14.7775   46.5452   49.4508 H         1 NYT         0.2100
     51 H6         17.0105   48.7436   47.9333 H         1 NYT         0.0647
     52 H7         15.2506   47.9032   46.6422 H         1 NYT         0.2100
     53 H8         18.4143   46.3998   46.5976 H         1 NYT         0.0647
     54 H9         18.9644   48.0642   45.1648 H         1 NYT         0.0584
     55 H10        20.1826   48.4304   46.4332 H         1 NYT         0.0584
     56 H11        17.6266   49.6557   46.1632 H         1 NYT         0.2095
     57 H12        20.4453   44.9465   50.9533 H         1 NYT         0.0616
     58 H13        19.3703   43.5074   50.9431 H         1 NYT         0.0616
     59 H14        22.4617   43.3274   53.6991 H         1 NYT         0.0616
     60 H15        20.8871   43.9333   53.0823 H         1 NYT         0.0616
     61 H16        20.1567   41.8624   56.3876 H         1 NYT         0.0612
     62 H17        20.4340   43.2947   55.3396 H         1 NYT         0.0612
     63 H18        18.7641   42.4632   53.9707 H         1 NYT         0.2096
     64 H19        20.2612   42.1235   48.6099 H         1 NYT         0.0675
     65 H20        18.3081   41.6963   47.4713 H         1 NYT         0.2101
     66 H21        24.0226   42.2848   52.2585 H         1 NYT         0.0675
     67 H22        23.7567   40.7758   50.5238 H         1 NYT         0.2101
     68 H23        20.3911   39.5822   55.4198 H         1 NYT         0.0675
     69 H24        19.0307   40.0302   53.5731 H         1 NYT         0.2101
     70 H25        19.6261   43.8439   46.1511 H         1 NYT         0.0648
     71 H26        20.0219   41.5619   45.8361 H         1 NYT         0.2100
     72 H27        24.0443   43.2605   49.3664 H         1 NYT         0.0648
     73 H28        26.0129   43.2027   51.4184 H         1 NYT         0.2100
     74 H29        22.3770   39.5380   53.0942 H         1 NYT         0.0648
     75 H30        23.1350   37.6990   54.2362 H         1 NYT         0.2100
     76 H31        22.3030   43.5649   47.5944 H         1 NYT         0.0647
     77 H32        24.8880   45.0792   51.6470 H         1 NYT         0.0647
     78 H33        22.9754   39.8143   56.0606 H         1 NYT         0.0647
     79 H34        22.3190   44.5568   45.2920 H         1 NYT         0.0584
     80 H35        22.9272   45.6638   46.5691 H         1 NYT         0.0584
     81 H36        20.7798   46.5260   46.6728 H         1 NYT         0.2095
     82 H37        23.4943   45.3499   48.9302 H         1 NYT         0.0584
     83 H38        25.1419   45.9045   49.3825 H         1 NYT         0.0584
     84 H39        23.5709   47.6157   49.4398 H         1 NYT         0.2095
     85 H40        24.4412   40.8368   53.5842 H         1 NYT         0.0584
     86 H41        24.9076   39.4215   54.5873 H         1 NYT         0.0584
     87 H42        26.0005   41.3683   55.2175 H         1 NYT         0.2095
@<TRIPOS>BOND
     1    2    1 1  
     2    1    3 1  
     3    1   10 1  
     4   19    2 1  
     5    3    4 1  
     6    3    5 1  
     7    5    6 1  
     8    5    7 1  
     9    7    8 1  
    10    9    7 1  
    11   10    9 1  
    12    9   11 1  
    13   11   12 1  
    14   14   13 1  
    15   13   19 1  
    16   21   14 1  
    17   16   15 1  
    18   15   21 1  
    19   23   16 1  
    20   17   18 1  
    21   17   23 1  
    22   19   20 1  
    23   19   25 1  
    24   20   37 1  
    25   21   22 1  
    26   21   27 1  
    27   22   38 1  
    28   23   24 1  
    29   23   29 1  
    30   24   39 1  
    31   25   26 1  
    32   25   31 1  
    33   27   28 1  
    34   27   33 1  
    35   29   30 1  
    36   29   35 1  
    37   31   32 1  
    38   31   37 1  
    39   33   34 1  
    40   33   38 1  
    41   35   36 1  
    42   35   39 1  
    43   37   40 1  
    44   38   42 1  
    45   39   44 1  
    46   40   41 1  
    47   42   43 1  
    48   44   45 1  
    49    1   46 1  
    50    3   47 1  
    51    4   48 1  
    52    5   49 1  
    53    6   50 1  
    54    7   51 1  
    55    8   52 1  
    56    9   53 1  
    57   11   54 1  
    58   11   55 1  
    59   12   56 1  
    60   13   57 1  
    61   13   58 1  
    62   15   59 1  
    63   15   60 1  
    64   17   61 1  
    65   17   62 1  
    66   18   63 1  
    67   25   64 1  
    68   26   65 1  
    69   27   66 1  
    70   28   67 1  
    71   29   68 1  
    72   30   69 1  
    73   31   70 1  
    74   32   71 1  
    75   33   72 1  
    76   34   73 1  
    77   35   74 1  
    78   36   75 1  
    79   37   76 1  
    80   38   77 1  
    81   39   78 1  
    82   40   79 1  
    83   40   80 1  
    84   41   81 1  
    85   42   82 1  
    86   42   83 1  
    87   43   84 1  
    88   44   85 1  
    89   44   86 1  
    90   45   87 1  
@<TRIPOS>SUBSTRUCTURE
     1 NYT         1

