### 
### Created by X-TOOL on Mon Sep 10 21:13:32 2018
### 

@<TRIPOS>MOLECULE
5g61_ligand
  108   112     1     0     0
SMALL
GAST_HUCK


@<TRIPOS>ATOM
      1 C01       154.7620   -5.0910  132.8010 C.3       1 FNY         0.0730
      2 C02       155.1600   -6.4440  132.2060 C.3       1 FNY         0.1130
      3 C03       154.8900   -7.5050  133.1930 C.3       1 FNY         0.1119
      4 C04       155.5080   -8.7560  132.7280 C.3       1 FNY         0.1141
      5 C05       155.5340   -8.9580  131.2760 C.3       1 FNY         0.1342
      6 C06       154.7130   -8.0400  130.4510 C.3       1 FNY         0.1912
      7 O07       154.3060   -6.7680  131.0800 O.3       1 FNY        -0.3404
      8 O08       153.5870   -8.8650  130.0070 O.3       1 FNY        -0.3125
      9 C09       152.3840   -8.1360  130.1310 C.3       1 FNY         0.2256
     10 C10       152.1810   -7.6110  131.2160 C.3       1 FNY         0.1395
     11 C11       150.9920   -6.7850  130.8260 C.3       1 FNY         0.1145
     12 C12       151.3230   -6.2180  129.4500 C.3       1 FNY         0.1134
     13 O13       152.3430   -6.8940  129.1340 O.3       1 FNY        -0.3362
     14 C14       151.6690   -4.7360  129.5980 C.3       1 FNY         0.0730
     15 O15       151.7330   -4.0510  128.3610 O.3       1 FNY        -0.3924
     16 O16       150.7600   -5.7900  131.7680 O.3       1 FNY        -0.3864
     17 O17       151.7390   -8.6120  132.0620 O.3       1 FNY        -0.3837
     18 C18       151.2440   -9.1180  129.8630 C.3       1 FNY         0.1078
     19 O19       151.3310  -10.3370  130.6210 O.3       1 FNY        -0.3391
     20 C20       150.0110  -10.8770  130.7320 C.3       1 FNY         0.2234
     21 C21       149.9630  -12.0840  131.6710 C.3       1 FNY         0.1394
     22 C22       149.6960  -11.6080  132.8100 C.3       1 FNY         0.1145
     23 C23       148.6880  -10.4750  132.3860 C.3       1 FNY         0.1134
     24 O24       149.1860   -9.8770  131.4120 O.3       1 FNY        -0.3363
     25 C25       148.3040   -9.5740  133.5400 C.3       1 FNY         0.0730
     26 O26       149.3800   -8.7210  133.7700 O.3       1 FNY        -0.3924
     27 O27       149.0380  -12.5170  133.6450 O.3       1 FNY        -0.3864
     28 O28       151.1280  -12.7920  131.6250 O.3       1 FNY        -0.3837
     29 C29       149.5360  -11.0690  129.3840 C.3       1 FNY         0.1077
     30 O30       148.2390  -11.6740  129.3180 O.3       1 FNY        -0.3391
     31 C31       147.2580  -11.2380  128.3380 C.3       1 FNY         0.2234
     32 C32       145.8920  -12.0060  128.6590 C.3       1 FNY         0.1394
     33 C33       145.2420  -11.0880  129.6680 C.3       1 FNY         0.1145
     34 C34       145.4910   -9.9190  129.1170 C.3       1 FNY         0.1134
     35 O35       146.9360  -10.0190  128.4170 O.3       1 FNY        -0.3363
     36 C36       145.5130   -8.8390  130.1870 C.3       1 FNY         0.0730
     37 O37       146.0230   -7.7230  129.5710 O.3       1 FNY        -0.3924
     38 O38       143.8920  -11.3260  129.9230 O.3       1 FNY        -0.3864
     39 O39       146.1450  -13.2270  129.2050 O.3       1 FNY        -0.3837
     40 C40       147.7560  -11.4920  126.9150 C.3       1 FNY         0.1077
     41 O41       148.1530  -12.8760  126.7720 O.3       1 FNY        -0.3391
     42 C42       148.0130  -13.3980  125.4030 C.3       1 FNY         0.2231
     43 C43       148.0400  -14.9930  125.4380 C.3       1 FNY         0.1394
     44 C44       146.6370  -15.3080  125.7960 C.3       1 FNY         0.1145
     45 C45       145.9670  -14.4660  124.9770 C.3       1 FNY         0.1134
     46 O46       146.8970  -13.1690  124.8680 O.3       1 FNY        -0.3363
     47 C47       144.6050  -14.1130  125.4770 C.3       1 FNY         0.0730
     48 O48       143.9630  -13.2270  124.6210 O.3       1 FNY        -0.3924
     49 O49       146.4160  -16.6440  125.4870 O.3       1 FNY        -0.3864
     50 O50       148.9950  -15.4940  126.3060 O.3       1 FNY        -0.3837
     51 C51       149.0840  -12.8230  124.5260 C.3       1 FNY         0.1008
     52 O52       150.3810  -13.0940  124.9210 O.3       1 FNY        -0.3896
     53 O53       155.1350  -10.2800  130.9490 O.3       1 FNY        -0.3841
     54 O54       155.0410   -9.8870  133.3730 O.3       1 FNY        -0.3864
     55 O55       153.5420   -7.6310  133.0700 O.3       1 FNY        -0.3865
     56 O56       154.6810   -4.1410  131.7210 O.3       1 FNY        -0.3924
     57 H1        155.5191   -4.7654  133.5295 H         1 FNY         0.0584
     58 H2        153.7852   -5.1745  133.2998 H         1 FNY         0.0584
     59 H3        156.2193   -6.4323  131.9099 H         1 FNY         0.0647
     60 H4        155.2137   -7.2433  134.2112 H         1 FNY         0.0647
     61 H5        156.5640   -8.6661  133.0226 H         1 FNY         0.0648
     62 H6        156.5800   -8.8242  130.9631 H         1 FNY         0.0671
     63 H7        155.3072   -7.7625  129.5679 H         1 FNY         0.0939
     64 H8        153.0276   -7.0405  131.6256 H         1 FNY         0.0675
     65 H9        150.0971   -7.4210  130.7583 H         1 FNY         0.0648
     66 H10       150.5013   -6.3528  128.7313 H         1 FNY         0.0647
     67 H11       152.6473   -4.6534  130.0941 H         1 FNY         0.0584
     68 H12       150.8997   -4.2583  130.2225 H         1 FNY         0.0584
     69 H13       150.8906   -4.1071  127.9253 H         1 FNY         0.2095
     70 H14       150.5586   -6.1896  132.6060 H         1 FNY         0.2100
     71 H15       151.0983   -9.1477  131.6093 H         1 FNY         0.2101
     72 H16       151.2529   -9.3746  128.7934 H         1 FNY         0.0616
     73 H17       150.2945   -8.6222  130.1133 H         1 FNY         0.0616
     74 H18       149.1483  -12.7565  131.3645 H         1 FNY         0.0675
     75 H19       150.5926  -11.2153  133.3119 H         1 FNY         0.0648
     76 H20       147.7612  -10.9573  132.0420 H         1 FNY         0.0647
     77 H21       148.1018  -10.1765  134.4378 H         1 FNY         0.0584
     78 H22       147.4085   -8.9901  133.2809 H         1 FNY         0.0584
     79 H23       149.5501   -8.2096  132.9877 H         1 FNY         0.2095
     80 H24       149.6425  -13.2027  133.9035 H         1 FNY         0.2100
     81 H25       151.0774  -13.5226  132.2300 H         1 FNY         0.2101
     82 H26       150.2495  -11.7152  128.8517 H         1 FNY         0.0616
     83 H27       149.4888  -10.0883  128.8880 H         1 FNY         0.0616
     84 H28       145.2708  -12.1210  127.7585 H         1 FNY         0.0675
     85 H29       145.7680  -11.1674  130.6308 H         1 FNY         0.0648
     86 H30       144.7218   -9.6817  128.3673 H         1 FNY         0.0647
     87 H31       146.1559   -9.1424  131.0264 H         1 FNY         0.0584
     88 H32       144.4956   -8.6431  130.5565 H         1 FNY         0.0584
     89 H33       146.0614   -7.0079  130.1951 H         1 FNY         0.2095
     90 H34       143.4062  -11.2934  129.1072 H         1 FNY         0.2100
     91 H35       145.3291  -13.6187  129.4938 H         1 FNY         0.2101
     92 H36       148.6191  -10.8419  126.7091 H         1 FNY         0.0616
     93 H37       146.9497  -11.2682  126.2010 H         1 FNY         0.0616
     94 H38       148.2634  -15.3895  124.4366 H         1 FNY         0.0675
     95 H39       146.4113  -15.1143  126.8550 H         1 FNY         0.0648
     96 H40       145.8582  -14.9309  123.9860 H         1 FNY         0.0647
     97 H41       144.6979  -13.6476  126.4693 H         1 FNY         0.0584
     98 H42       144.0045  -15.0311  125.5573 H         1 FNY         0.0584
     99 H43       143.1018  -13.0229  124.9661 H         1 FNY         0.2095
    100 H44       145.4891  -16.8368  125.5652 H         1 FNY         0.2100
    101 H45       149.8598  -15.2456  126.0011 H         1 FNY         0.2101
    102 H46       148.9564  -11.7306  124.5058 H         1 FNY         0.0612
    103 H47       148.9463  -13.2271  123.5123 H         1 FNY         0.0612
    104 H48       150.5174  -14.0341  124.9326 H         1 FNY         0.2096
    105 H49       154.2115  -10.3882  131.1440 H         1 FNY         0.2101
    106 H50       155.0324   -9.7346  134.3106 H         1 FNY         0.2100
    107 H51       153.3215   -7.7876  132.1594 H         1 FNY         0.2100
    108 H52       154.0285   -4.4306  131.0943 H         1 FNY         0.2095
@<TRIPOS>BOND
     1    1    2 1  
     2    1   56 1  
     3    2    3 1  
     4    2    7 1  
     5    3    4 1  
     6    3   55 1  
     7    4    5 1  
     8    4   54 1  
     9    5    6 1  
    10    5   53 1  
    11    6    7 1  
    12    6    8 1  
    13    8    9 1  
    14    9   10 1  
    15    9   13 1  
    16    9   18 1  
    17   10   11 1  
    18   10   17 1  
    19   11   12 1  
    20   11   16 1  
    21   12   13 1  
    22   12   14 1  
    23   14   15 1  
    24   18   19 1  
    25   19   20 1  
    26   20   21 1  
    27   20   24 1  
    28   20   29 1  
    29   21   22 1  
    30   21   28 1  
    31   22   23 1  
    32   22   27 1  
    33   23   24 1  
    34   23   25 1  
    35   25   26 1  
    36   29   30 1  
    37   30   31 1  
    38   31   32 1  
    39   31   35 1  
    40   31   40 1  
    41   32   33 1  
    42   32   39 1  
    43   33   34 1  
    44   33   38 1  
    45   34   35 1  
    46   34   36 1  
    47   36   37 1  
    48   40   41 1  
    49   41   42 1  
    50   42   43 1  
    51   42   46 1  
    52   42   51 1  
    53   43   44 1  
    54   43   50 1  
    55   44   45 1  
    56   44   49 1  
    57   45   46 1  
    58   45   47 1  
    59   47   48 1  
    60   51   52 1  
    61    1   57 1  
    62    1   58 1  
    63    2   59 1  
    64    3   60 1  
    65    4   61 1  
    66    5   62 1  
    67    6   63 1  
    68   10   64 1  
    69   11   65 1  
    70   12   66 1  
    71   14   67 1  
    72   14   68 1  
    73   15   69 1  
    74   16   70 1  
    75   17   71 1  
    76   18   72 1  
    77   18   73 1  
    78   21   74 1  
    79   22   75 1  
    80   23   76 1  
    81   25   77 1  
    82   25   78 1  
    83   26   79 1  
    84   27   80 1  
    85   28   81 1  
    86   29   82 1  
    87   29   83 1  
    88   32   84 1  
    89   33   85 1  
    90   34   86 1  
    91   36   87 1  
    92   36   88 1  
    93   37   89 1  
    94   38   90 1  
    95   39   91 1  
    96   40   92 1  
    97   40   93 1  
    98   43   94 1  
    99   44   95 1  
   100   45   96 1  
   101   47   97 1  
   102   47   98 1  
   103   48   99 1  
   104   49  100 1  
   105   50  101 1  
   106   51  102 1  
   107   51  103 1  
   108   52  104 1  
   109   53  105 1  
   110   54  106 1  
   111   55  107 1  
   112   56  108 1  
@<TRIPOS>SUBSTRUCTURE
     1 FNY         1

