### 
### Created by X-TOOL on Wed Jan  1 15:39:35 2020
### 

@<TRIPOS>MOLECULE
5g6u_ligand
   31    31     1     0     0
SMALL
GAST_HUCK


@<TRIPOS>ATOM
      1 C01        87.3070   25.3450   56.3390 C.3       1 YJM         0.1788
      2 C02        86.4420   26.5490   56.4820 C.3       1 YJM         0.1136
      3 C03        85.1270   26.2880   55.8110 C.3       1 YJM         0.1076
      4 C04        85.3230   26.1120   54.3530 C.3       1 YJM         0.1113
      5 C05        86.3670   24.9630   54.1320 C.3       1 YJM         0.1154
      6 C06        86.6740   24.6790   52.6040 C.3       1 YJM         0.1024
      7 N07        86.2120   26.8110   57.8750 N.am      1 YJM        -0.2705
      8 O08        84.2330   27.2980   56.0920 O.3       1 YJM        -0.3871
      9 O09        84.1760   25.7580   53.7180 O.3       1 YJM        -0.3865
     10 O10        87.5500   25.0990   55.0070 O.3       1 YJM        -0.3413
     11 O11        87.1340   23.3890   52.5150 O.3       1 YJM        -0.2631
     12 S12        87.4020   27.6970   58.5680 S.o2      1 YJM        -0.1197
     13 O13        87.4280   29.0180   57.9870 O.co2     1 YJM        -0.4676
     14 O14        88.6820   27.0460   58.4040 O.co2     1 YJM        -0.4676
     15 O15        87.1240   27.8140   60.0050 O.co2     1 YJM        -0.4676
     16 S16        86.3220   22.3850   51.8360 S.o2      1 YJM        -0.0736
     17 O17        85.1450   22.1440   52.6380 O.co2     1 YJM        -0.4611
     18 O18        85.9580   22.8730   50.5290 O.co2     1 YJM        -0.4611
     19 O19        87.1080   21.1570   51.6820 O.co2     1 YJM        -0.4611
     20 O20        86.6590   24.2600   56.8750 O.3       1 YJM        -0.3654
     21 H1         88.2587   25.5094   56.8655 H         1 YJM         0.0928
     22 H2         86.9328   27.4166   56.0168 H         1 YJM         0.0587
     23 H3         84.7152   25.3507   56.2133 H         1 YJM         0.0641
     24 H4         85.6999   27.0519   53.9235 H         1 YJM         0.0646
     25 H5         85.8652   24.0499   54.4848 H         1 YJM         0.0648
     26 H6         87.4399   25.3782   52.2372 H         1 YJM         0.0610
     27 H7         85.7568   24.7939   52.0077 H         1 YJM         0.0610
     28 H8         85.4071   26.4856   58.3713 H         1 YJM         0.1646
     29 H9         84.1346   27.3795   57.0334 H         1 YJM         0.2100
     30 H10        84.3506   25.6442   52.7911 H         1 YJM         0.2100
     31 H11        87.2059   23.4887   56.7830 H         1 YJM         0.2125
@<TRIPOS>BOND
     1    1    2 1  
     2    1   10 1  
     3    1   20 1  
     4    2    3 1  
     5    2    7 1  
     6    3    4 1  
     7    3    8 1  
     8    4    5 1  
     9    4    9 1  
    10    5    6 1  
    11    5   10 1  
    12    6   11 1  
    13    7   12 am 
    14   11   16 1  
    15   12   13 ar 
    16   12   14 ar 
    17   12   15 ar 
    18   16   17 ar 
    19   16   18 ar 
    20   16   19 ar 
    21    1   21 1  
    22    2   22 1  
    23    3   23 1  
    24    4   24 1  
    25    5   25 1  
    26    6   26 1  
    27    6   27 1  
    28    7   28 1  
    29    8   29 1  
    30    9   30 1  
    31   20   31 1  
@<TRIPOS>SUBSTRUCTURE
     1 YJM         1

