### 
### Created by X-TOOL on Mon Sep 10 21:13:28 2018
### 

@<TRIPOS>MOLECULE
5ggj_ligand
   36    37     1     0     0
SMALL
GAST_HUCK


@<TRIPOS>ATOM
      1 C1         16.2940  -11.7360    0.1040 C.3       1 PNA         0.2111
      2 C2         17.3020  -11.0470   -0.8470 C.3       1 PNA         0.1388
      3 C3         17.5440   -9.5380   -0.6710 C.3       1 PNA         0.1145
      4 C4         16.8080   -8.9240    0.5130 C.3       1 PNA         0.1119
      5 C5         16.7330   -9.9660    1.6100 C.3       1 PNA         0.1134
      6 C6         16.2190   -9.4140    2.9280 C.3       1 PNA         0.0730
      7 C7         17.7660  -13.6430    0.5250 C.ar      1 PNA         0.1016
      8 C8         18.9330  -13.7050    1.2670 C.ar      1 PNA        -0.0239
      9 C9         19.9080  -14.5820    0.8780 C.ar      1 PNA        -0.0271
     10 C10        19.6730  -15.3770   -0.2220 C.ar      1 PNA         0.1882
     11 C11        18.5020  -15.3340   -0.9670 C.ar      1 PNA        -0.0271
     12 C12        17.5200  -14.4530   -0.5730 C.ar      1 PNA        -0.0239
     13 N1         20.7020  -16.2250   -0.5710 N.2       1 PNA         0.3062
     14 O1         16.8350  -12.7660    0.9270 O.3       1 PNA        -0.2805
     15 O2         16.9530  -11.3010   -2.2230 O.3       1 PNA        -0.3837
     16 O3         17.2020   -8.8280   -1.8710 O.3       1 PNA        -0.3864
     17 O4         17.5120   -7.7630    0.9500 O.3       1 PNA        -0.3865
     18 O5         15.7820  -10.8970    1.1260 O.3       1 PNA        -0.3367
     19 O6         14.8290   -9.0900    2.8120 O.3       1 PNA        -0.3924
     20 O7         20.8180  -16.6230   -1.9010 O.2       1 PNA         0.1732
     21 O8         21.6170  -16.6000    0.4130 O.2       1 PNA         0.1732
     22 H1         15.4765  -12.1317   -0.5166 H         1 PNA         0.0996
     23 H2         18.2700  -11.5335   -0.6563 H         1 PNA         0.0675
     24 H3         18.6208   -9.4024   -0.4920 H         1 PNA         0.0648
     25 H4         15.7898   -8.6371    0.2114 H         1 PNA         0.0647
     26 H5         17.7163  -10.4347    1.7634 H         1 PNA         0.0647
     27 H6         16.7843   -8.5071    3.1888 H         1 PNA         0.0584
     28 H7         16.3528  -10.1691    3.7166 H         1 PNA         0.0584
     29 H8         19.0711  -13.0728    2.1367 H         1 PNA         0.0561
     30 H9         20.8430  -14.6497    1.4223 H         1 PNA         0.0666
     31 H10        18.3653  -15.9737   -1.8314 H         1 PNA         0.0666
     32 H11        16.5788  -14.3942   -1.1075 H         1 PNA         0.0561
     33 H12        16.1643  -10.8191   -2.4426 H         1 PNA         0.2101
     34 H13        17.6623   -9.2130   -2.6075 H         1 PNA         0.2100
     35 H14        17.0637   -7.3848    1.6972 H         1 PNA         0.2100
     36 H15        14.7129   -8.4372    2.1317 H         1 PNA         0.2095
@<TRIPOS>BOND
     1    1    2 1  
     2   14    1 1  
     3    1   18 1  
     4    2    3 1  
     5    2   15 1  
     6    3    4 1  
     7    3   16 1  
     8    5    4 1  
     9    4   17 1  
    10    5    6 1  
    11   18    5 1  
    12    6   19 1  
    13    7    8 ar 
    14    7   12 ar 
    15    7   14 1  
    16    8    9 ar 
    17    9   10 ar 
    18   10   11 ar 
    19   10   13 1  
    20   11   12 ar 
    21   13   20 2  
    22   13   21 2  
    23    1   22 1  
    24    2   23 1  
    25    3   24 1  
    26    4   25 1  
    27    5   26 1  
    28    6   27 1  
    29    6   28 1  
    30    8   29 1  
    31    9   30 1  
    32   11   31 1  
    33   12   32 1  
    34   15   33 1  
    35   16   34 1  
    36   17   35 1  
    37   19   36 1  
@<TRIPOS>SUBSTRUCTURE
     1 PNA         1

