### 
### Created by X-TOOL on Mon Sep 10 21:13:26 2018
### 

@<TRIPOS>MOLECULE
5ggk_ligand
   36    37     1     0     0
SMALL
GAST_HUCK


@<TRIPOS>ATOM
      1 C1        -26.7670  -18.3060  -11.0490 C.3       1 MBE         0.2111
      2 C2        -27.9710  -18.5930  -10.1610 C.3       1 MBE         0.1388
      3 C3        -27.8040  -17.8650   -8.8370 C.3       1 MBE         0.1145
      4 C4        -26.4470  -18.2250   -8.2160 C.3       1 MBE         0.1119
      5 C5        -25.3030  -17.9590   -9.2030 C.3       1 MBE         0.1134
      6 C6        -23.9450  -18.4050   -8.6770 C.3       1 MBE         0.0730
      7 C7        -26.1970  -18.8500  -13.3330 C.ar      1 MBE         0.1016
      8 C8        -25.1790  -17.8970  -13.3360 C.ar      1 MBE        -0.0239
      9 C9        -24.5000  -17.6270  -14.5100 C.ar      1 MBE        -0.0271
     10 C10       -24.8420  -18.3240  -15.6560 C.ar      1 MBE         0.1882
     11 C11       -25.8440  -19.2780  -15.6450 C.ar      1 MBE        -0.0271
     12 C12       -26.5320  -19.5410  -14.4820 C.ar      1 MBE        -0.0239
     13 N1        -24.1850  -18.0950  -16.8590 N.2       1 MBE         0.3062
     14 O1        -26.8960  -19.1360  -12.1970 O.3       1 MBE        -0.2805
     15 O2        -28.0730  -20.0030   -9.9300 O.3       1 MBE        -0.3837
     16 O3        -28.8930  -18.2080   -7.9700 O.3       1 MBE        -0.3864
     17 O4        -26.2510  -17.4410   -7.0290 O.3       1 MBE        -0.3865
     18 O5        -25.5460  -18.6820  -10.4080 O.3       1 MBE        -0.3367
     19 O6        -23.9120  -19.8260   -8.4200 O.3       1 MBE        -0.3924
     20 O7        -24.5640  -18.8150  -17.9730 O.2       1 MBE         0.1732
     21 O8        -23.1500  -17.1900  -16.9070 O.2       1 MBE         0.1732
     22 H1        -26.7417  -17.2418  -11.3262 H         1 MBE         0.0996
     23 H2        -28.8855  -18.2390  -10.6593 H         1 MBE         0.0675
     24 H3        -27.8282  -16.7804   -9.0186 H         1 MBE         0.0648
     25 H4        -26.4469  -19.2924   -7.9501 H         1 MBE         0.0647
     26 H5        -25.2676  -16.8805   -9.4167 H         1 MBE         0.0647
     27 H6        -23.7316  -17.8684   -7.7408 H         1 MBE         0.0584
     28 H7        -23.1754  -18.1599   -9.4238 H         1 MBE         0.0584
     29 H8        -24.9215  -17.3711  -12.4237 H         1 MBE         0.0561
     30 H9        -23.7130  -16.8819  -14.5325 H         1 MBE         0.0666
     31 H10       -26.0874  -19.8186  -16.5525 H         1 MBE         0.0666
     32 H11       -27.3253  -20.2796  -14.4677 H         1 MBE         0.0561
     33 H12       -28.1771  -20.4521  -10.7606 H         1 MBE         0.2101
     34 H13       -28.8045  -17.7360   -7.1504 H         1 MBE         0.2100
     35 H14       -25.4242  -17.6792   -6.6265 H         1 MBE         0.2100
     36 H15       -24.5710  -20.0448   -7.7716 H         1 MBE         0.2095
@<TRIPOS>BOND
     1    1    2 1  
     2   14    1 1  
     3    1   18 1  
     4    2    3 1  
     5    2   15 1  
     6    3    4 1  
     7    3   16 1  
     8    5    4 1  
     9    4   17 1  
    10    5    6 1  
    11   18    5 1  
    12    6   19 1  
    13    7    8 ar 
    14    7   12 ar 
    15    7   14 1  
    16    8    9 ar 
    17    9   10 ar 
    18   10   11 ar 
    19   10   13 1  
    20   11   12 ar 
    21   13   20 2  
    22   13   21 2  
    23    1   22 1  
    24    2   23 1  
    25    3   24 1  
    26    4   25 1  
    27    5   26 1  
    28    6   27 1  
    29    6   28 1  
    30    8   29 1  
    31    9   30 1  
    32   11   31 1  
    33   12   32 1  
    34   15   33 1  
    35   16   34 1  
    36   17   35 1  
    37   19   36 1  
@<TRIPOS>SUBSTRUCTURE
     1 MBE         1

