### 
### Created by X-TOOL on Mon Sep 10 21:13:26 2018
### 

@<TRIPOS>MOLECULE
5ggl_ligand
   42    43     1     0     0
SMALL
GAST_HUCK


@<TRIPOS>ATOM
      1 C1         -0.0370   16.1270   76.3740 C.3       1 6ZC         0.2080
      2 C2         -1.1980   16.0190   77.3520 C.3       1 6ZC         0.1256
      3 C3         -0.9030   16.8190   78.6270 C.3       1 6ZC         0.1115
      4 C4          0.4590   16.3970   79.2180 C.3       1 6ZC         0.1117
      5 C5          1.5600   16.5380   78.1710 C.3       1 6ZC         0.1134
      6 C6          2.9360   16.0620   78.6120 C.3       1 6ZC         0.0730
      7 N2         -2.4430   16.4360   76.7050 N.am      1 6ZC        -0.2762
      8 O1          0.0640   17.4360   75.8430 O.3       1 6ZC        -0.2808
      9 O4          0.8310   17.2630   80.2950 O.3       1 6ZC        -0.3865
     10 O5          1.2080   15.7830   77.0120 O.3       1 6ZC        -0.3369
     11 O6          2.8870   14.6560   78.8860 O.3       1 6ZC        -0.3924
     12 O7         -3.0360   14.3460   76.0970 O.2       1 6ZC        -0.3974
     13 O1'         1.4570   17.4660   69.7980 O.2       1 6ZC         0.1732
     14 N1'         2.2910   17.6980   70.8770 N.2       1 6ZC         0.3062
     15 O2'         3.6560   17.9010   70.7610 O.2       1 6ZC         0.1732
     16 C4'         1.7140   17.6670   72.1280 C.ar      1 6ZC         0.1882
     17 C3'         0.6980   18.5510   72.4480 C.ar      1 6ZC        -0.0271
     18 C2'         0.1360   18.4760   73.7080 C.ar      1 6ZC        -0.0239
     19 C5'         2.1890   16.7160   73.0000 C.ar      1 6ZC        -0.0271
     20 C6'         1.6290   16.6460   74.2500 C.ar      1 6ZC        -0.0239
     21 C1'         0.6120   17.5250   74.5940 C.ar      1 6ZC         0.1016
     22 C7         -3.2680   15.5460   76.1350 C.2       1 6ZC         0.1734
     23 C8         -4.5280   16.0940   75.5250 C.3       1 6ZC         0.0257
     24 O3         -1.9430   16.5680   79.5740 O.3       1 6ZC        -0.3867
     25 H1         -0.2158   15.4241   75.5470 H         1 6ZC         0.0993
     26 H2         -1.3069   14.9626   77.6385 H         1 6ZC         0.0638
     27 H3         -0.8760   17.8923   78.3875 H         1 6ZC         0.0645
     28 H4          0.3974   15.3565   79.5696 H         1 6ZC         0.0647
     29 H5          1.6344   17.6025   77.9041 H         1 6ZC         0.0647
     30 H6          3.2378   16.6029   79.5210 H         1 6ZC         0.0584
     31 H7          3.6653   16.2548   77.8114 H         1 6ZC         0.0584
     32 H8         -2.6836   17.4065   76.6877 H         1 6ZC         0.1857
     33 H9          1.6731   16.9920   80.6413 H         1 6ZC         0.2100
     34 H10         2.2566   14.4910   79.5773 H         1 6ZC         0.2095
     35 H11         0.3519   19.2838   71.7281 H         1 6ZC         0.0666
     36 H12        -0.6628   19.1493   73.9973 H         1 6ZC         0.0561
     37 H13         2.9844   16.0400   72.7075 H         1 6ZC         0.0666
     38 H14         1.9784   15.9092   74.9642 H         1 6ZC         0.0561
     39 H15        -5.1149   15.2698   75.0934 H         1 6ZC         0.0467
     40 H16        -4.2697   16.8135   74.7341 H         1 6ZC         0.0467
     41 H17        -5.1214   16.5995   76.3011 H         1 6ZC         0.0467
     42 H18        -1.7763   17.0665   80.3654 H         1 6ZC         0.2100
@<TRIPOS>BOND
     1    1    2 1  
     2    8    1 1  
     3    1   10 1  
     4    2    3 1  
     5    2    7 1  
     6    3    4 1  
     7    3   24 1  
     8    5    4 1  
     9    4    9 1  
    10    5    6 1  
    11   10    5 1  
    12    6   11 1  
    13    7   22 am 
    14   21    8 1  
    15   22   12 2  
    16   14   13 2  
    17   14   15 2  
    18   16   14 1  
    19   17   16 ar 
    20   16   19 ar 
    21   18   17 ar 
    22   18   21 ar 
    23   19   20 ar 
    24   20   21 ar 
    25   22   23 1  
    26    1   25 1  
    27    2   26 1  
    28    3   27 1  
    29    4   28 1  
    30    5   29 1  
    31    6   30 1  
    32    6   31 1  
    33    7   32 1  
    34    9   33 1  
    35   11   34 1  
    36   17   35 1  
    37   18   36 1  
    38   19   37 1  
    39   20   38 1  
    40   23   39 1  
    41   23   40 1  
    42   23   41 1  
    43   24   42 1  
@<TRIPOS>SUBSTRUCTURE
     1 6ZC         1

