### 
### Created by X-TOOL on Mon Sep 10 21:13:26 2018
### 

@<TRIPOS>MOLECULE
5ggn_ligand
   42    43     1     0     0
SMALL
GAST_HUCK


@<TRIPOS>ATOM
      1 C8        -18.3890  -11.9020  -31.3100 C.3       1 LEC         0.0257
      2 C7        -19.0530  -11.3000  -30.0680 C.2       1 LEC         0.1734
      3 O7        -20.2670  -11.3690  -29.8620 O.2       1 LEC        -0.3974
      4 N2        -18.2370  -10.6250  -29.1790 N.am      1 LEC        -0.2762
      5 C2        -18.7230   -9.9960  -27.9550 C.3       1 LEC         0.1256
      6 C3        -18.0600   -8.6820  -27.7320 C.3       1 LEC         0.1115
      7 O3        -18.4040   -7.7670  -28.8480 O.3       1 LEC        -0.3867
      8 C4        -18.4540   -8.0890  -26.4480 C.3       1 LEC         0.1117
      9 O4        -17.7000   -6.8410  -26.2540 O.3       1 LEC        -0.3865
     10 C5        -18.1660   -9.0130  -25.3080 C.3       1 LEC         0.1134
     11 C6        -18.6270   -8.4770  -23.9790 C.3       1 LEC         0.0730
     12 O6        -20.0660   -8.2370  -23.9360 O.3       1 LEC        -0.3924
     13 O5        -18.9010  -10.2540  -25.5430 O.3       1 LEC        -0.3369
     14 C1        -18.4730  -10.9650  -26.7740 C.3       1 LEC         0.2080
     15 O1        -19.2950  -12.0010  -26.9260 O.3       1 LEC        -0.2808
     16 C1'       -19.0030  -13.1540  -26.1860 C.ar      1 LEC         0.1016
     17 C2'       -18.0710  -13.1880  -25.1630 C.ar      1 LEC        -0.0239
     18 C3'       -17.8380  -14.3880  -24.4830 C.ar      1 LEC        -0.0271
     19 C4'       -18.5560  -15.5170  -24.8250 C.ar      1 LEC         0.1882
     20 N1'       -18.3170  -16.7480  -24.1240 N.2       1 LEC         0.3062
     21 O2'       -17.3040  -16.7790  -23.2100 O.2       1 LEC         0.1732
     22 O1'       -18.9880  -17.7260  -24.3460 O.2       1 LEC         0.1732
     23 C5'       -19.5020  -15.4650  -25.8600 C.ar      1 LEC        -0.0271
     24 C6'       -19.7250  -14.2710  -26.5330 C.ar      1 LEC        -0.0239
     25 H1        -17.3055  -11.7155  -31.2733 H         1 LEC         0.0467
     26 H2        -18.8107  -11.4368  -32.2132 H         1 LEC         0.0467
     27 H3        -18.5737  -12.9861  -31.3355 H         1 LEC         0.0467
     28 H4        -17.2605  -10.5645  -29.3860 H         1 LEC         0.1857
     29 H5        -19.8055   -9.8245  -28.0488 H         1 LEC         0.0638
     30 H6        -16.9709   -8.8364  -27.7223 H         1 LEC         0.0645
     31 H7        -17.9824   -6.9271  -28.7088 H         1 LEC         0.2100
     32 H8        -19.5317   -7.8695  -26.4685 H         1 LEC         0.0647
     33 H9        -17.9475   -6.4484  -25.4251 H         1 LEC         0.2100
     34 H10       -17.0844   -9.2090  -25.2664 H         1 LEC         0.0647
     35 H11       -18.1062   -7.5282  -23.7825 H         1 LEC         0.0584
     36 H12       -18.3685   -9.2060  -23.1969 H         1 LEC         0.0584
     37 H13       -20.3002   -7.6024  -24.6031 H         1 LEC         0.2095
     38 H14       -17.4212  -11.2826  -26.7211 H         1 LEC         0.0993
     39 H15       -17.5258  -12.2914  -24.8909 H         1 LEC         0.0561
     40 H16       -17.0980  -14.4315  -23.6920 H         1 LEC         0.0666
     41 H17       -20.0574  -16.3548  -26.1336 H         1 LEC         0.0666
     42 H18       -20.4626  -14.2202  -27.3257 H         1 LEC         0.0561
@<TRIPOS>BOND
     1    1    2 1  
     2    2    3 2  
     3    2    4 am 
     4    4    5 1  
     5    5    6 1  
     6    5   14 1  
     7    6    7 1  
     8    6    8 1  
     9    8    9 1  
    10    8   10 1  
    11   10   11 1  
    12   10   13 1  
    13   11   12 1  
    14   13   14 1  
    15   14   15 1  
    16   15   16 1  
    17   16   17 ar 
    18   16   24 ar 
    19   17   18 ar 
    20   18   19 ar 
    21   19   20 1  
    22   19   23 ar 
    23   20   21 2  
    24   20   22 2  
    25   23   24 ar 
    26    1   25 1  
    27    1   26 1  
    28    1   27 1  
    29    4   28 1  
    30    5   29 1  
    31    6   30 1  
    32    7   31 1  
    33    8   32 1  
    34    9   33 1  
    35   10   34 1  
    36   11   35 1  
    37   11   36 1  
    38   12   37 1  
    39   14   38 1  
    40   17   39 1  
    41   18   40 1  
    42   23   41 1  
    43   24   42 1  
@<TRIPOS>SUBSTRUCTURE
     1 LEC         1

