### 
### Created by X-TOOL on Mon Sep 10 21:13:27 2018
### 

@<TRIPOS>MOLECULE
5ggo_ligand
   69    71     1     0     0
SMALL
GAST_HUCK


@<TRIPOS>ATOM
      1 C8         87.6980   77.3760  137.8330 C.3       1 LEC         0.0257
      2 C7         88.4390   78.0850  136.7300 C.2       1 LEC         0.1734
      3 O7         89.6660   78.0580  136.6220 O.2       1 LEC        -0.3974
      4 N2         87.6650   78.7700  135.8490 N.am      1 LEC        -0.2762
      5 C2         88.2750   79.4480  134.7060 C.3       1 LEC         0.1260
      6 C3         87.7190   80.8560  134.4580 C.3       1 LEC         0.1180
      7 O3         88.3740   81.6950  135.4130 O.3       1 LEC        -0.3406
      8 C4         88.2080   81.3900  133.1180 C.3       1 LEC         0.1120
      9 O4         87.5230   82.6090  132.8070 O.3       1 LEC        -0.3865
     10 C5         87.8720   80.4370  132.0000 C.3       1 LEC         0.1134
     11 C6         88.3760   80.9460  130.6560 C.3       1 LEC         0.0730
     12 O6         89.8170   81.1400  130.6270 O.3       1 LEC        -0.3924
     13 O5         88.6000   79.2320  132.2710 O.3       1 LEC        -0.3369
     14 C1         88.1270   78.6000  133.4510 C.3       1 LEC         0.2080
     15 O1         88.9740   77.4600  133.6200 O.3       1 LEC        -0.2808
     16 C1'        88.7620   76.2990  132.9160 C.ar      1 LEC         0.1016
     17 C2'        89.4490   75.1840  133.3410 C.ar      1 LEC        -0.0239
     18 C3'        89.2530   73.9770  132.6810 C.ar      1 LEC        -0.0271
     19 C4'        88.3650   73.9240  131.6250 C.ar      1 LEC         0.1882
     20 N1'        88.1700   72.6860  130.9720 N.2       1 LEC         0.3062
     21 O2'        88.8350   71.6010  131.4650 O.2       1 LEC         0.1732
     22 O1'        87.3090   72.6810  129.8990 O.2       1 LEC         0.1732
     23 C5'        87.6580   75.0320  131.1920 C.ar      1 LEC        -0.0271
     24 C6'        87.8610   76.2470  131.8440 C.ar      1 LEC        -0.0239
     25 C1         87.4900   81.9570  136.4670 C.3       1 NGA         0.1854
     26 C2         88.3590   82.5560  137.5680 C.3       1 NGA         0.1210
     27 C3         87.5320   83.2770  138.6250 C.3       1 NGA         0.1111
     28 C4         86.4080   84.1110  138.0100 C.3       1 NGA         0.1116
     29 C5         85.6450   83.3650  136.9160 C.3       1 NGA         0.1130
     30 C6         84.7470   84.3220  136.1450 C.3       1 NGA         0.0730
     31 C7         90.4830   81.3850  137.9840 C.2       1 NGA         0.1733
     32 C8         91.2090   80.6140  139.0530 C.3       1 NGA         0.0257
     33 N2         89.1670   81.5010  138.1830 N.am      1 NGA        -0.2766
     34 O3         88.4070   84.1290  139.3380 O.3       1 NGA        -0.3867
     35 O4         87.0100   85.2630  137.4560 O.3       1 NGA        -0.3865
     36 O5         86.5470   82.8630  135.9660 O.3       1 NGA        -0.3408
     37 O6         85.5600   85.3220  135.5550 O.3       1 NGA        -0.3924
     38 O7         91.1030   81.8470  137.0040 O.2       1 NGA        -0.3974
     39 H1         86.6175   77.5469  137.7176 H         1 LEC         0.0467
     40 H2         88.0289   77.7661  138.8068 H         1 LEC         0.0467
     41 H3         87.9063   76.2972  137.7802 H         1 LEC         0.0467
     42 H4         86.6748   78.8108  135.9824 H         1 LEC         0.1857
     43 H5         89.3486   79.5524  134.9218 H         1 LEC         0.0638
     44 H6         86.6223   80.8819  134.5391 H         1 LEC         0.0649
     45 H7         89.2943   81.5573  133.1632 H         1 LEC         0.0647
     46 H8         87.8303   82.9392  131.9709 H         1 LEC         0.2100
     47 H9         86.7878   80.2555  131.9610 H         1 LEC         0.0647
     48 H10        87.8882   81.9080  130.4400 H         1 LEC         0.0584
     49 H11        88.1049   80.2150  129.8801 H         1 LEC         0.0584
     50 H12        90.0631   81.7762  131.2882 H         1 LEC         0.2095
     51 H13        87.0747   78.3055  133.3252 H         1 LEC         0.0993
     52 H14        90.1335   75.2469  134.1792 H         1 LEC         0.0561
     53 H15        89.7905   73.0882  132.9913 H         1 LEC         0.0666
     54 H16        86.9620   74.9567  130.3644 H         1 LEC         0.0666
     55 H17        87.3304   77.1375  131.5269 H         1 LEC         0.0561
     56 H18        86.9911   81.0434  136.8224 H         1 LEC         0.0935
     57 H19        89.0364   83.2905  137.1080 H         1 LEC         0.0633
     58 H20        87.0924   82.5361  139.3090 H         1 LEC         0.0645
     59 H21        85.6993   84.4012  138.7996 H         1 LEC         0.0647
     60 H22        85.0540   82.5518  137.3626 H         1 LEC         0.0647
     61 H23        84.0247   84.7879  136.8314 H         1 LEC         0.0584
     62 H24        84.2058   83.7728  135.3605 H         1 LEC         0.0584
     63 H25        92.2806   80.5688  138.8088 H         1 LEC         0.0467
     64 H26        90.8025   79.5934  139.1092 H         1 LEC         0.0467
     65 H27        91.0748   81.1161  140.0225 H         1 LEC         0.0467
     66 H28        88.7136   80.8378  138.7785 H         1 LEC         0.1857
     67 H29        88.7752   84.7721  138.7435 H         1 LEC         0.2100
     68 H30        86.3371   85.8280  137.0947 H         1 LEC         0.2100
     69 H31        86.0270   85.7915  136.2362 H         1 LEC         0.2095
@<TRIPOS>BOND
     1    2    1 1  
     2    2    3 2  
     3    4    2 am 
     4    5    4 1  
     5    6    5 1  
     6    5   14 1  
     7    7    6 1  
     8    6    8 1  
     9   25    7 1  
    10    8    9 1  
    11    8   10 1  
    12   10   11 1  
    13   10   13 1  
    14   11   12 1  
    15   14   13 1  
    16   14   15 1  
    17   15   16 1  
    18   16   17 ar 
    19   16   24 ar 
    20   17   18 ar 
    21   18   19 ar 
    22   19   20 1  
    23   23   19 ar 
    24   20   21 2  
    25   20   22 2  
    26   24   23 ar 
    27   26   25 1  
    28   25   36 1  
    29   26   27 1  
    30   33   26 1  
    31   27   28 1  
    32   27   34 1  
    33   28   29 1  
    34   28   35 1  
    35   29   30 1  
    36   36   29 1  
    37   30   37 1  
    38   31   32 1  
    39   31   33 am 
    40   31   38 2  
    41    1   39 1  
    42    1   40 1  
    43    1   41 1  
    44    4   42 1  
    45    5   43 1  
    46    6   44 1  
    47    8   45 1  
    48    9   46 1  
    49   10   47 1  
    50   11   48 1  
    51   11   49 1  
    52   12   50 1  
    53   14   51 1  
    54   17   52 1  
    55   18   53 1  
    56   23   54 1  
    57   24   55 1  
    58   25   56 1  
    59   26   57 1  
    60   27   58 1  
    61   28   59 1  
    62   29   60 1  
    63   30   61 1  
    64   30   62 1  
    65   32   63 1  
    66   32   64 1  
    67   32   65 1  
    68   33   66 1  
    69   34   67 1  
    70   35   68 1  
    71   37   69 1  
@<TRIPOS>SUBSTRUCTURE
     1 LEC         1

