### 
### Created by X-TOOL on Mon Sep 10 21:13:29 2018
### 

@<TRIPOS>MOLECULE
5ggp_ligand
   75    76     1     0     0
SMALL
GAST_HUCK


@<TRIPOS>ATOM
      1 N          50.0290   -3.9190    9.4670 N.4       1 THR         0.2398
      2 CA         49.2230   -2.7020    9.4150 C.3       1 THR         0.0912
      3 C          49.9300   -1.5880   10.1670 C.2       1 THR         0.2318
      4 O          50.0930   -1.6780   11.3830 O.2       1 THR        -0.3904
      5 CB         47.8230   -2.9140   10.0230 C.3       1 THR         0.1120
      6 OG1        47.1530   -3.9770    9.3310 O.3       1 THR        -0.3840
      7 CG2        46.9900   -1.6410    9.9060 C.3       1 THR        -0.0314
      8 N          50.3600   -0.5410    9.4410 N.am      1 PRO        -0.2471
      9 CA         51.1130    0.5750   10.0170 C.3       1 PRO         0.1339
     10 C          50.4460    1.1600   11.2480 C.2       1 PRO         0.2042
     11 O          49.2180    1.1370   11.3810 O.2       1 PRO        -0.3944
     12 CB         51.1430    1.6110    8.8860 C.3       1 PRO        -0.0104
     13 CG         51.0180    0.8130    7.6430 C.3       1 PRO        -0.0281
     14 CD         50.1340   -0.3620    7.9940 C.3       1 PRO         0.0371
     15 N          51.2780    1.6500   12.1550 N.am      1 THR        -0.2613
     16 CA         50.8200    2.3900   13.3270 C.3       1 THR         0.1567
     17 C          51.7370    3.6010   13.4640 C.2       1 THR         0.2090
     18 O          52.8940    3.5440   13.0540 O.2       1 THR        -0.3941
     19 CB         50.8600    1.5230   14.6080 C.3       1 THR         0.0924
     20 OG1        50.3500    2.2680   15.7210 O.3       1 THR        -0.3874
     21 CG2        52.2930    1.0960   14.9180 C.3       1 THR        -0.0346
     22 N          51.2250    4.7150   14.0100 N.am      1 PRO        -0.2498
     23 CA         52.1230    5.8490   14.2570 C.3       1 PRO         0.1337
     24 C          53.1170    5.5020   15.3580 C.2       1 PRO         0.2036
     25 O          52.8950    4.5220   16.0760 O.2       1 PRO        -0.3944
     26 CB         51.1720    6.9730   14.6940 C.3       1 PRO        -0.0104
     27 CG         49.7970    6.5370   14.2170 C.3       1 PRO        -0.0281
     28 CD         49.8200    5.0390   14.3160 C.3       1 PRO         0.0369
     29 N          54.2040    6.2570   15.4910 N.am      1 VAL        -0.2692
     30 CA         54.5730    7.3500   14.5910 C.3       1 VAL         0.0967
     31 C          55.7420    6.9280   13.7210 C.2       1 VAL         0.0603
     32 O          56.6990    6.3750   14.2370 O.co2     1 VAL        -0.5666
     33 CB         54.9670    8.6130   15.3840 C.3       1 VAL        -0.0118
     34 CG1        55.6630    9.6270   14.4800 C.3       1 VAL        -0.0590
     35 CG2        53.7440    9.2170   16.0560 C.3       1 VAL        -0.0590
     36 OXT        55.7020    7.1500   12.5220 O.co2     1 VAL        -0.5666
     37 H1         50.9342   -3.7400    9.0613 H         1 THR         0.2016
     38 H2         49.5673   -4.6502    8.9491 H         1 THR         0.2016
     39 H3         50.1418   -4.2066   10.4265 H         1 THR         0.2016
     40 H4         49.1064   -2.4058    8.3621 H         1 THR         0.1125
     41 H5         47.9291   -3.1801   11.0850 H         1 THR         0.0674
     42 H6         46.2906   -4.1049    9.7083 H         1 THR         0.2102
     43 H7         45.9958   -1.8118   10.3447 H         1 THR         0.0258
     44 H8         46.8812   -1.3702    8.8454 H         1 THR         0.0258
     45 H9         47.4924   -0.8233   10.4436 H         1 THR         0.0258
     46 H10        52.1315    0.2533   10.2800 H         1 PRO         0.0802
     47 H11        52.0911    2.1686    8.8955 H         1 PRO         0.0313
     48 H12        50.3028    2.3145    8.9817 H         1 PRO         0.0313
     49 H13        52.0067    0.4627    7.3118 H         1 PRO         0.0287
     50 H14        50.5564    1.4149    6.8464 H         1 PRO         0.0287
     51 H15        49.0779   -0.1358    7.7858 H         1 PRO         0.0524
     52 H16        50.4337   -1.2606    7.4348 H         1 PRO         0.0524
     53 H17        52.2600    1.5071   12.0317 H         1 THR         0.1884
     54 H18        49.7856    2.7270   13.1646 H         1 THR         0.0826
     55 H19        50.2399    0.6276   14.4541 H         1 THR         0.0639
     56 H20        50.8821    3.0441   15.8517 H         1 THR         0.2101
     57 H21        52.3032    0.4814   15.8302 H         1 THR         0.0257
     58 H22        52.9169    1.9890   15.0706 H         1 THR         0.0257
     59 H23        52.6912    0.5099   14.0766 H         1 THR         0.0257
     60 H24        52.6679    6.1297   13.3436 H         1 PRO         0.0802
     61 H25        51.4591    7.9257   14.2251 H         1 PRO         0.0313
     62 H26        51.1834    7.0848   15.7882 H         1 PRO         0.0313
     63 H27        49.6275    6.8550   13.1777 H         1 PRO         0.0287
     64 H28        49.0109    6.9568   14.8618 H         1 PRO         0.0287
     65 H29        49.5471    4.7043   15.3277 H         1 PRO         0.0524
     66 H30        49.1390    4.5827   13.5826 H         1 PRO         0.0524
     67 H31        54.8123    6.0638   16.2609 H         1 VAL         0.1875
     68 H32        53.7115    7.5861   13.9491 H         1 VAL         0.0729
     69 H33        55.6767    8.3167   16.1705 H         1 VAL         0.0336
     70 H34        55.9335   10.5168   15.0674 H         1 VAL         0.0234
     71 H35        54.9842    9.9182   13.6649 H         1 VAL         0.0234
     72 H36        56.5729    9.1768   14.0564 H         1 VAL         0.0234
     73 H37        53.2679    8.4614   16.6982 H         1 VAL         0.0234
     74 H38        53.0296    9.5481   15.2879 H         1 VAL         0.0234
     75 H39        54.0498   10.0783   16.6681 H         1 VAL         0.0234
@<TRIPOS>BOND
     1    1    2 1  
     2    2    3 1  
     3    2    5 1  
     4    3    4 2  
     5    3    8 am 
     6    5    6 1  
     7    5    7 1  
     8    8    9 1  
     9    8   14 1  
    10    9   10 1  
    11    9   12 1  
    12   10   11 2  
    13   10   15 am 
    14   12   13 1  
    15   13   14 1  
    16   15   16 1  
    17   16   17 1  
    18   16   19 1  
    19   17   18 2  
    20   17   22 am 
    21   19   20 1  
    22   19   21 1  
    23   22   23 1  
    24   22   28 1  
    25   23   24 1  
    26   23   26 1  
    27   24   25 2  
    28   24   29 am 
    29   26   27 1  
    30   27   28 1  
    31   29   30 1  
    32   30   31 1  
    33   30   33 1  
    34   31   32 ar 
    35   31   36 ar 
    36   33   34 1  
    37   33   35 1  
    38    1   37 1  
    39    1   38 1  
    40    1   39 1  
    41    2   40 1  
    42    5   41 1  
    43    6   42 1  
    44    7   43 1  
    45    7   44 1  
    46    7   45 1  
    47    9   46 1  
    48   12   47 1  
    49   12   48 1  
    50   13   49 1  
    51   13   50 1  
    52   14   51 1  
    53   14   52 1  
    54   15   53 1  
    55   16   54 1  
    56   19   55 1  
    57   20   56 1  
    58   21   57 1  
    59   21   58 1  
    60   21   59 1  
    61   23   60 1  
    62   26   61 1  
    63   26   62 1  
    64   27   63 1  
    65   27   64 1  
    66   28   65 1  
    67   28   66 1  
    68   29   67 1  
    69   30   68 1  
    70   33   69 1  
    71   34   70 1  
    72   34   71 1  
    73   34   72 1  
    74   35   73 1  
    75   35   74 1  
    76   35   75 1  
@<TRIPOS>SUBSTRUCTURE
     1 THR         1

