### 
### Created by X-TOOL on Mon Sep 10 21:13:29 2018
### 

@<TRIPOS>MOLECULE
5ghv_ligand
   73    77     1     0     0
SMALL
GAST_HUCK


@<TRIPOS>ATOM
      1 C4        -12.9810  -12.3870    1.1370 C.ar      1 X5G         0.1648
      2 C5        -11.8330  -13.0920    0.9630 C.ar      1 X5G         0.0101
      3 C6        -11.7910  -14.0510    0.0030 C.ar      1 X5G         0.0077
      4 N1        -12.8420  -14.2710   -0.6920 N.ar      1 X5G        -0.2625
      5 N3        -14.0300  -12.6530    0.4070 N.ar      1 X5G        -0.2219
      6 CAN       -21.9610  -10.2970   -0.8250 C.3       1 X5G        -0.0316
      7 CAK       -23.4120   -9.8970   -0.6990 C.3       1 X5G        -0.0077
      8 CAL       -24.1140  -10.9240   -1.5610 C.3       1 X5G        -0.0077
      9 CAO       -23.1410  -12.0860   -1.6760 C.3       1 X5G        -0.0316
     10 NBG       -22.0020  -11.7440   -0.8350 N.4       1 X5G         0.2371
     11 CAP       -20.8480  -12.0310   -1.6050 C.3       1 X5G        -0.0043
     12 CAM       -19.8630  -11.2300   -0.9130 C.3       1 X5G         0.1044
     13 OAW       -19.8770  -12.3020   -0.1390 O.3       1 X5G        -0.3277
     14 CBE       -18.6640  -12.7150   -0.4080 C.ar      1 X5G         0.0823
     15 CAZ       -17.6280  -12.2240    0.3230 C.ar      1 X5G        -0.0319
     16 CAC       -17.8720  -11.2470    1.4410 C.3       1 X5G        -0.0370
     17 CAH       -16.3490  -12.6100    0.0490 C.ar      1 X5G        -0.0518
     18 CAY       -18.4420  -13.5810   -1.4340 C.ar      1 X5G        -0.0319
     19 CAB       -19.5680  -14.1210   -2.2560 C.3       1 X5G        -0.0370
     20 CAG       -17.1640  -13.9780   -1.7040 C.ar      1 X5G        -0.0518
     21 CBA       -16.1380  -13.4870   -0.9540 C.ar      1 X5G         0.0417
     22 NAV       -14.9420  -13.8630   -1.2170 N.pl3     1 X5G        -0.2520
     23 C2        -13.9280  -13.5860   -0.4870 C.ar      1 X5G         0.2005
     24 NBI       -12.9970  -11.5160    2.0950 N.pl3     1 X5G        -0.2369
     25 CAJ       -14.0560  -11.0890    2.7320 C.2       1 X5G         0.0325
     26 CAI       -11.9150  -11.0440    2.6480 C.2       1 X5G         0.0275
     27 CAX       -12.2970  -10.2580    3.6020 C.2       1 X5G        -0.0572
     28 CAA       -11.4080   -9.4460    4.5000 C.3       1 X5G        -0.0504
     29 CBB       -13.6650  -10.2730    3.6500 C.2       1 X5G        -0.0151
     30 CAQ       -14.6010   -9.5500    4.5600 C.3       1 X5G        -0.0163
     31 NBH       -15.0570  -10.4690    5.5770 N.4       1 X5G         0.2459
     32 CAS       -15.8120  -11.5750    5.0400 C.3       1 X5G         0.0007
     33 CAR       -16.2930  -10.0110    6.1550 C.3       1 X5G         0.0007
     34 CBF       -16.5500  -11.4600    6.3280 C.3       1 X5G         0.1343
     35 OAD       -17.8900  -11.6810    6.1210 O.3       1 X5G        -0.3815
     36 H1        -10.9648  -12.8922    1.5805 H         1 X5G         0.0631
     37 H2        -10.8844  -14.6192   -0.1711 H         1 X5G         0.0867
     38 H3        -21.3768   -9.9274    0.0306 H         1 X5G         0.0814
     39 H4        -21.5276   -9.9107   -1.7593 H         1 X5G         0.0814
     40 H5        -23.5777   -8.8786   -1.0804 H         1 X5G         0.0319
     41 H6        -23.7511   -9.9570    0.3457 H         1 X5G         0.0319
     42 H7        -24.3345  -10.5067   -2.5546 H         1 X5G         0.0319
     43 H8        -25.0500  -11.2513   -1.0848 H         1 X5G         0.0319
     44 H9        -22.8198  -12.2131   -2.7204 H         1 X5G         0.0814
     45 H10       -23.6119  -13.0148   -1.3216 H         1 X5G         0.0814
     46 H11       -22.0219  -12.1764    0.0753 H         1 X5G         0.2034
     47 H12       -20.9682  -11.7124   -2.6510 H         1 X5G         0.0840
     48 H13       -20.5952  -13.1011   -1.5744 H         1 X5G         0.0840
     49 H14       -20.2264  -10.2965   -0.4586 H         1 X5G         0.0657
     50 H15       -18.9266  -11.0334   -1.4557 H         1 X5G         0.0657
     51 H16       -16.9127  -10.9731    1.9044 H         1 X5G         0.0365
     52 H17       -18.5251  -11.7092    2.1958 H         1 X5G         0.0365
     53 H18       -18.3564  -10.3445    1.0401 H         1 X5G         0.0365
     54 H19       -15.5183  -12.2198    0.6258 H         1 X5G         0.0394
     55 H20       -19.1684  -14.7980   -3.0255 H         1 X5G         0.0365
     56 H21       -20.1003  -13.2891   -2.7402 H         1 X5G         0.0365
     57 H22       -20.2636  -14.6733   -1.6072 H         1 X5G         0.0365
     58 H23       -16.9673  -14.6778   -2.5081 H         1 X5G         0.0394
     59 H24       -14.7870  -14.4224   -2.0679 H         1 X5G         0.2148
     60 H25       -15.0866  -11.3727    2.5237 H         1 X5G         0.0708
     61 H26       -10.8883  -11.2679    2.3623 H         1 X5G         0.0706
     62 H27       -10.3557   -9.6294    4.2373 H         1 X5G         0.0315
     63 H28       -11.5805   -9.7365    5.5468 H         1 X5G         0.0315
     64 H29       -11.6366   -8.3775    4.3735 H         1 X5G         0.0315
     65 H30       -15.4615   -9.1762    3.9857 H         1 X5G         0.0900
     66 H31       -14.0797   -8.7041    5.0319 H         1 X5G         0.0900
     67 H32       -14.3175  -10.7070    6.2193 H         1 X5G         0.2043
     68 H33       -15.2497  -12.5093    4.8958 H         1 X5G         0.0842
     69 H34       -16.3978  -11.3562    4.1350 H         1 X5G         0.0842
     70 H35       -16.9731   -9.4876    5.4669 H         1 X5G         0.0842
     71 H36       -16.1958   -9.4322    7.0853 H         1 X5G         0.0842
     72 H37       -16.1467  -11.9727    7.2137 H         1 X5G         0.0701
     73 H38       -18.0773  -12.6063    6.2273 H         1 X5G         0.2103
@<TRIPOS>BOND
     1    1    2 ar 
     2    5    1 ar 
     3    1   24 1  
     4    3    2 ar 
     5    4    3 ar 
     6   23    4 ar 
     7   23    5 ar 
     8    6    7 1  
     9   10    6 1  
    10    8    7 1  
    11    9    8 1  
    12   10    9 1  
    13   11   10 1  
    14   12   11 1  
    15   13   12 1  
    16   14   13 1  
    17   15   14 ar 
    18   18   14 ar 
    19   15   16 1  
    20   17   15 ar 
    21   21   17 ar 
    22   18   19 1  
    23   20   18 ar 
    24   21   20 ar 
    25   22   21 1  
    26   22   23 1  
    27   24   25 1  
    28   24   26 1  
    29   25   29 2  
    30   26   27 2  
    31   27   28 1  
    32   27   29 1  
    33   29   30 1  
    34   30   31 1  
    35   31   32 1  
    36   31   33 1  
    37   32   34 1  
    38   33   34 1  
    39   34   35 1  
    40    2   36 1  
    41    3   37 1  
    42    6   38 1  
    43    6   39 1  
    44    7   40 1  
    45    7   41 1  
    46    8   42 1  
    47    8   43 1  
    48    9   44 1  
    49    9   45 1  
    50   10   46 1  
    51   11   47 1  
    52   11   48 1  
    53   12   49 1  
    54   12   50 1  
    55   16   51 1  
    56   16   52 1  
    57   16   53 1  
    58   17   54 1  
    59   19   55 1  
    60   19   56 1  
    61   19   57 1  
    62   20   58 1  
    63   22   59 1  
    64   25   60 1  
    65   26   61 1  
    66   28   62 1  
    67   28   63 1  
    68   28   64 1  
    69   30   65 1  
    70   30   66 1  
    71   31   67 1  
    72   32   68 1  
    73   32   69 1  
    74   33   70 1  
    75   33   71 1  
    76   34   72 1  
    77   35   73 1  
@<TRIPOS>SUBSTRUCTURE
     1 X5G         1

