### 
### Created by X-TOOL on Mon Sep 10 21:13:29 2018
### 

@<TRIPOS>MOLECULE
5gic_ligand
   89    93     1     0     0
SMALL
GAST_HUCK


@<TRIPOS>ATOM
      1 O3        -11.9370   -2.9410   -8.2970 O.2       1 DLC        -0.3415
      2 C24       -12.2580   -1.9640   -7.6350 C.2       1 DLC         0.2302
      3 C23       -11.9360   -1.8090   -6.1790 C.3       1 DLC         0.1444
      4 O4        -12.8970   -2.4970   -5.3790 O.3       1 DLC        -0.3837
      5 C37       -10.5410   -2.3260   -5.8600 C.3       1 DLC        -0.0289
      6 C22       -12.0880   -0.3120   -5.9460 C.3       1 DLC         0.0063
      7 C21       -12.8290    0.2630   -7.1570 C.3       1 DLC         0.0473
      8 N         -12.9260   -0.8920   -8.0480 N.am      1 DLC        -0.2652
      9 C25       -13.7600   -0.6920   -9.2290 C.3       1 DLC         0.0438
     10 C26       -12.8550   -0.8970  -10.4400 C.3       1 DLC         0.0015
     11 C29       -12.0040    0.3400  -10.6170 C.ar      1 DLC        -0.0411
     12 C34       -10.6200    0.2330  -10.7130 C.ar      1 DLC        -0.0603
     13 C33        -9.8380    1.3730  -10.8730 C.ar      1 DLC        -0.0686
     14 C32       -10.4440    2.6220  -10.9410 C.ar      1 DLC        -0.0687
     15 C31       -11.8290    2.7280  -10.8460 C.ar      1 DLC        -0.0686
     16 C30       -12.6110    1.5890  -10.6870 C.ar      1 DLC        -0.0603
     17 C20       -14.2300    0.7230   -6.7400 C.3       1 DLC        -0.0267
     18 C19       -14.1420    2.2030   -6.3550 C.3       1 DLC        -0.0382
     19 C36       -13.3070    2.8860   -7.4430 C.3       1 DLC        -0.0621
     20 C9        -15.5070    2.8690   -6.0770 C.3       1 DLC        -0.0300
     21 C3        -15.4690    4.3400   -5.6530 C.3       1 DLC        -0.0125
     22 C35       -14.3310    4.5790   -4.6620 C.3       1 DLC        -0.0565
     23 C2        -16.7750    4.5290   -4.8980 C.3       1 DLC         0.0059
     24 C7        -16.9140    3.2630   -4.0620 C.3       1 DLC        -0.0357
     25 C8        -16.2900    2.1770   -4.9530 C.3       1 DLC        -0.0465
     26 C4        -15.4380    5.3610   -6.7860 C.3       1 DLC        -0.0421
     27 C5        -15.5660    6.7910   -6.2660 C.3       1 DLC        -0.0386
     28 C6        -16.7960    6.9920   -5.3850 C.3       1 DLC        -0.0111
     29 C1        -16.7930    5.9310   -4.3180 C.2       1 DLC        -0.0477
     30 C10       -16.7990    6.3950   -3.0480 C.2       1 DLC        -0.0795
     31 C11       -16.7650    5.6700   -1.7840 C.2       1 DLC        -0.0886
     32 C12       -16.6350    6.3560   -0.6290 C.2       1 DLC        -0.0535
     33 C17       -16.5830    5.6720    0.5050 C.2       1 DLC        -0.0401
     34 C18       -16.0670    4.4650    0.4940 C.2       1 DLC        -0.1221
     35 C16       -17.0900    6.2440    1.7880 C.3       1 DLC         0.0864
     36 O1        -16.6290    5.4310    2.8720 O.3       1 DLC        -0.3798
     37 C15       -16.5100    7.6410    1.9090 C.3       1 DLC         0.0102
     38 C14       -16.9920    8.4750    0.7300 C.3       1 DLC         0.0660
     39 O2        -18.4200    8.5380    0.8060 O.3       1 DLC        -0.3898
     40 C13       -16.5560    7.8710   -0.6120 C.3       1 DLC        -0.0024
     41 H1        -12.8891   -3.4207   -5.6009 H         1 DLC         0.2080
     42 H2        -10.3388   -2.1971   -4.7865 H         1 DLC         0.0244
     43 H3         -9.7985   -1.7617   -6.4433 H         1 DLC         0.0244
     44 H4        -10.4771   -3.3930   -6.1195 H         1 DLC         0.0244
     45 H5        -11.0975    0.1572   -5.8529 H         1 DLC         0.0302
     46 H6        -12.6675   -0.1304   -5.0288 H         1 DLC         0.0302
     47 H7        -12.2752    1.0926   -7.6207 H         1 DLC         0.0559
     48 H8        -14.1746    0.3268   -9.2330 H         1 DLC         0.0547
     49 H9        -14.5822   -1.4226   -9.2414 H         1 DLC         0.0547
     50 H10       -13.4684   -1.0572  -11.3389 H         1 DLC         0.0446
     51 H11       -12.2086   -1.7719  -10.2765 H         1 DLC         0.0446
     52 H12       -10.1491   -0.7421  -10.6630 H         1 DLC         0.0557
     53 H13        -8.7598    1.2872  -10.9444 H         1 DLC         0.0599
     54 H14        -9.8390    3.5125  -11.0678 H         1 DLC         0.0559
     55 H15       -12.3001    3.7030  -10.8962 H         1 DLC         0.0599
     56 H16       -13.6894    1.6746  -10.6179 H         1 DLC         0.0557
     57 H17       -14.5769    0.1325   -5.8792 H         1 DLC         0.0290
     58 H18       -14.9306    0.5956   -7.5784 H         1 DLC         0.0290
     59 H19       -13.5760    2.2683   -5.4141 H         1 DLC         0.0302
     60 H20       -13.2122    3.9577   -7.2138 H         1 DLC         0.0233
     61 H21       -13.8022    2.7619   -8.4173 H         1 DLC         0.0233
     62 H22       -12.3071    2.4289   -7.4790 H         1 DLC         0.0233
     63 H23       -16.0853    2.7962   -7.0099 H         1 DLC         0.0311
     64 H24       -14.3175    5.6389   -4.3678 H         1 DLC         0.0237
     65 H25       -13.3726    4.3174   -5.1342 H         1 DLC         0.0237
     66 H26       -14.4836    3.9530   -3.7705 H         1 DLC         0.0237
     67 H27       -17.6088    4.5064   -5.6151 H         1 DLC         0.0531
     68 H28       -17.9715    3.0423   -3.8548 H         1 DLC         0.0299
     69 H29       -16.3660    3.3560   -3.1128 H         1 DLC         0.0299
     70 H30       -15.6100    1.5514   -4.3562 H         1 DLC         0.0270
     71 H31       -17.0830    1.5484   -5.3842 H         1 DLC         0.0270
     72 H32       -16.2726    5.1561   -7.4726 H         1 DLC         0.0275
     73 H33       -14.4854    5.2632   -7.3272 H         1 DLC         0.0275
     74 H34       -15.6347    7.4730   -7.1263 H         1 DLC         0.0296
     75 H35       -14.6688    7.0326   -5.6773 H         1 DLC         0.0296
     76 H36       -17.7078    6.9041   -5.9940 H         1 DLC         0.0491
     77 H37       -16.7608    7.9878   -4.9190 H         1 DLC         0.0491
     78 H38       -16.8348    7.4794   -2.9550 H         1 DLC         0.0303
     79 H39       -16.8438    4.5839   -1.7717 H         1 DLC         0.0472
     80 H40       -15.6950    4.0403   -0.4372 H         1 DLC         0.0191
     81 H41       -16.0110    3.8884    1.4161 H         1 DLC         0.0191
     82 H42       -18.1893    6.2834    1.7872 H         1 DLC         0.0751
     83 H43       -15.6790    5.4211    2.8773 H         1 DLC         0.2129
     84 H44       -15.4114    7.5875    1.8996 H         1 DLC         0.0338
     85 H45       -16.8467    8.1011    2.8497 H         1 DLC         0.0338
     86 H46       -16.5750    9.4897    0.8103 H         1 DLC         0.0615
     87 H47       -18.7521    9.0539    0.0807 H         1 DLC         0.2100
     88 H48       -17.2096    8.2658   -1.4038 H         1 DLC         0.0412
     89 H49       -15.5166    8.1709   -0.8110 H         1 DLC         0.0412
@<TRIPOS>BOND
     1    1    2 2  
     2    2    3 1  
     3    2    8 am 
     4    3    4 1  
     5    3    5 1  
     6    3    6 1  
     7    6    7 1  
     8    7    8 1  
     9    7   17 1  
    10    8    9 1  
    11    9   10 1  
    12   10   11 1  
    13   11   12 ar 
    14   11   16 ar 
    15   12   13 ar 
    16   13   14 ar 
    17   14   15 ar 
    18   15   16 ar 
    19   17   18 1  
    20   18   19 1  
    21   18   20 1  
    22   20   21 1  
    23   20   25 1  
    24   21   22 1  
    25   21   23 1  
    26   21   26 1  
    27   23   24 1  
    28   23   29 1  
    29   24   25 1  
    30   26   27 1  
    31   27   28 1  
    32   28   29 1  
    33   29   30 2  
    34   30   31 1  
    35   31   32 2  
    36   32   33 1  
    37   32   40 1  
    38   33   34 2  
    39   33   35 1  
    40   35   36 1  
    41   35   37 1  
    42   37   38 1  
    43   38   39 1  
    44   38   40 1  
    45    4   41 1  
    46    5   42 1  
    47    5   43 1  
    48    5   44 1  
    49    6   45 1  
    50    6   46 1  
    51    7   47 1  
    52    9   48 1  
    53    9   49 1  
    54   10   50 1  
    55   10   51 1  
    56   12   52 1  
    57   13   53 1  
    58   14   54 1  
    59   15   55 1  
    60   16   56 1  
    61   17   57 1  
    62   17   58 1  
    63   18   59 1  
    64   19   60 1  
    65   19   61 1  
    66   19   62 1  
    67   20   63 1  
    68   22   64 1  
    69   22   65 1  
    70   22   66 1  
    71   23   67 1  
    72   24   68 1  
    73   24   69 1  
    74   25   70 1  
    75   25   71 1  
    76   26   72 1  
    77   26   73 1  
    78   27   74 1  
    79   27   75 1  
    80   28   76 1  
    81   28   77 1  
    82   30   78 1  
    83   31   79 1  
    84   34   80 1  
    85   34   81 1  
    86   35   82 1  
    87   36   83 1  
    88   37   84 1  
    89   37   85 1  
    90   38   86 1  
    91   39   87 1  
    92   40   88 1  
    93   40   89 1  
@<TRIPOS>SUBSTRUCTURE
     1 DLC         1

