### 
### Created by X-TOOL on Mon Sep 10 21:13:29 2018
### 

@<TRIPOS>MOLECULE
5gid_ligand
   95    99     1     0     0
SMALL
GAST_HUCK


@<TRIPOS>ATOM
      1 O3        -11.7260   -1.9740   -8.1420 O.2       1 VDP        -0.3415
      2 C25       -11.9800   -0.8840   -7.6510 C.2       1 VDP         0.2301
      3 C26       -11.4190   -0.4480   -6.3330 C.3       1 VDP         0.1444
      4 O4        -11.7560   -1.3970   -5.3190 O.3       1 VDP        -0.3837
      5 C24        -9.9080   -0.2820   -6.4480 C.3       1 VDP        -0.0289
      6 C27       -12.0950    0.8880   -6.0650 C.3       1 VDP         0.0063
      7 C23       -12.8120    1.2980   -7.3520 C.3       1 VDP         0.0471
      8 N28       -12.7620    0.0700   -8.1500 N.am      1 VDP        -0.2671
      9 C28       -13.5500    0.0830   -9.3750 C.3       1 VDP         0.0345
     10 C29       -12.5390   -0.0500  -10.5120 C.3       1 VDP        -0.0306
     11 C30       -11.9720    1.3130  -10.9000 C.3       1 VDP        -0.0414
     12 C31       -10.4430    1.3530  -10.9150 C.3       1 VDP        -0.0191
     13 C32       -10.0290    2.8020  -11.0650 C.ar      1 VDP        -0.0430
     14 C33       -10.0110    3.3980  -12.3220 C.ar      1 VDP        -0.0603
     15 C34        -9.6440    4.7330  -12.4630 C.ar      1 VDP        -0.0686
     16 C35        -9.2990    5.4790  -11.3420 C.ar      1 VDP        -0.0687
     17 C36        -9.3230    4.8880  -10.0820 C.ar      1 VDP        -0.0686
     18 C37        -9.6900    3.5520   -9.9430 C.ar      1 VDP        -0.0603
     19 C22       -14.2400    1.7440   -7.0170 C.3       1 VDP        -0.0267
     20 C20       -14.1280    3.1930   -6.5260 C.3       1 VDP        -0.0382
     21 C21       -13.2540    3.9450   -7.5370 C.3       1 VDP        -0.0621
     22 C16       -15.4710    3.8580   -6.1560 C.3       1 VDP        -0.0300
     23 C11       -15.4340    5.3310   -5.7160 C.3       1 VDP        -0.0125
     24 C18       -14.2930    5.5650   -4.7220 C.3       1 VDP        -0.0565
     25 C9        -16.7530    5.4920   -4.9750 C.3       1 VDP         0.0059
     26 C15       -16.8410    4.2350   -4.1150 C.3       1 VDP        -0.0357
     27 C17       -16.2060    3.1540   -5.0070 C.3       1 VDP        -0.0465
     28 C12       -15.3940    6.3540   -6.8560 C.3       1 VDP        -0.0421
     29 C13       -15.6040    7.7860   -6.3660 C.3       1 VDP        -0.0386
     30 C14       -16.8660    7.9340   -5.5250 C.3       1 VDP        -0.0111
     31 C8        -16.8140    6.9060   -4.4310 C.2       1 VDP        -0.0477
     32 C7        -16.8190    7.4050   -3.1760 C.2       1 VDP        -0.0795
     33 C6        -16.7580    6.7060   -1.9020 C.2       1 VDP        -0.0886
     34 C5        -16.7490    7.4010   -0.7480 C.2       1 VDP        -0.0535
     35 C4        -16.7980    8.9180   -0.7140 C.3       1 VDP        -0.0024
     36 C3        -17.1070    9.4910    0.6800 C.3       1 VDP         0.0660
     37 O2        -18.5210    9.5360    0.9230 O.3       1 VDP        -0.3898
     38 C2        -16.4590    8.6670    1.7870 C.3       1 VDP         0.0102
     39 C1        -17.0710    7.2770    1.7780 C.3       1 VDP         0.0864
     40 O1        -16.5910    6.4910    2.8720 O.3       1 VDP        -0.3798
     41 C10       -16.6700    6.6450    0.4890 C.2       1 VDP        -0.0401
     42 C19       -16.2210    5.4120    0.4610 C.2       1 VDP        -0.1221
     43 H1        -12.7012   -1.4629   -5.2501 H         1 VDP         0.2080
     44 H2         -9.4995    0.0383   -5.4782 H         1 VDP         0.0244
     45 H3         -9.6795    0.4769   -7.2107 H         1 VDP         0.0244
     46 H4         -9.4547   -1.2414   -6.7380 H         1 VDP         0.0244
     47 H5        -11.3426    1.6438   -5.7956 H         1 VDP         0.0302
     48 H6        -12.8213    0.7852   -5.2453 H         1 VDP         0.0302
     49 H7        -12.2849    2.1162   -7.8644 H         1 VDP         0.0559
     50 H8        -14.1066    1.0276   -9.4641 H         1 VDP         0.0524
     51 H9        -14.2555   -0.7609   -9.3873 H         1 VDP         0.0524
     52 H10       -13.0368   -0.4949  -11.3862 H         1 VDP         0.0286
     53 H11       -11.7157   -0.7031  -10.1871 H         1 VDP         0.0286
     54 H12       -12.3332    2.0595  -10.1773 H         1 VDP         0.0288
     55 H13       -12.3373    1.5693  -11.9054 H         1 VDP         0.0288
     56 H14       -10.0598    0.7631  -11.7607 H         1 VDP         0.0426
     57 H15       -10.0470    0.9445   -9.9736 H         1 VDP         0.0426
     58 H16       -10.2845    2.8191  -13.1967 H         1 VDP         0.0557
     59 H17        -9.6272    5.1904  -13.4456 H         1 VDP         0.0599
     60 H18        -9.0119    6.5188  -11.4488 H         1 VDP         0.0559
     61 H19        -9.0554    5.4691   -9.2069 H         1 VDP         0.0599
     62 H20        -9.7116    3.0958   -8.9599 H         1 VDP         0.0557
     63 H21       -14.6645    1.1053   -6.2284 H         1 VDP         0.0290
     64 H22       -14.8763    1.6925   -7.9128 H         1 VDP         0.0290
     65 H23       -13.5586    3.1640   -5.5853 H         1 VDP         0.0302
     66 H24       -13.1475    4.9933   -7.2213 H         1 VDP         0.0233
     67 H25       -13.7264    3.9073   -8.5297 H         1 VDP         0.0233
     68 H26       -12.2611    3.4740   -7.5852 H         1 VDP         0.0233
     69 H27       -16.0954    3.7952   -7.0594 H         1 VDP         0.0311
     70 H28       -14.2820    6.6223   -4.4188 H         1 VDP         0.0237
     71 H29       -13.3344    5.3099   -5.1974 H         1 VDP         0.0237
     72 H30       -14.4430    4.9310   -3.8357 H         1 VDP         0.0237
     73 H31       -17.5837    5.4245   -5.6929 H         1 VDP         0.0531
     74 H32       -17.8874    3.9891   -3.8816 H         1 VDP         0.0299
     75 H33       -16.2754    4.3567   -3.1794 H         1 VDP         0.0299
     76 H34       -15.4939    2.5561   -4.4192 H         1 VDP         0.0270
     77 H35       -16.9896    2.4970   -5.4123 H         1 VDP         0.0270
     78 H36       -16.1868    6.1086   -7.5780 H         1 VDP         0.0275
     79 H37       -14.4142    6.2912   -7.3519 H         1 VDP         0.0275
     80 H38       -15.6819    8.4502   -7.2394 H         1 VDP         0.0296
     81 H39       -14.7371    8.0814   -5.7568 H         1 VDP         0.0296
     82 H40       -17.7546    7.7682   -6.1518 H         1 VDP         0.0491
     83 H41       -16.9082    8.9427   -5.0884 H         1 VDP         0.0491
     84 H42       -16.8773    8.4903   -3.1080 H         1 VDP         0.0303
     85 H43       -16.7195    5.6179   -1.8809 H         1 VDP         0.0472
     86 H44       -17.5790    9.2568   -1.4106 H         1 VDP         0.0412
     87 H45       -15.8218    9.3053   -1.0410 H         1 VDP         0.0412
     88 H46       -16.7077   10.5150    0.7239 H         1 VDP         0.0615
     89 H47       -18.9360   10.0873    0.2700 H         1 VDP         0.2100
     90 H48       -16.6412    9.1458    2.7604 H         1 VDP         0.0338
     91 H49       -15.3756    8.5960    1.6103 H         1 VDP         0.0338
     92 H50       -18.1668    7.3511    1.8390 H         1 VDP         0.0751
     93 H51       -15.6468    6.4066    2.8096 H         1 VDP         0.2129
     94 H52       -15.9307    4.9596   -0.4861 H         1 VDP         0.0191
     95 H53       -16.1388    4.8414    1.3849 H         1 VDP         0.0191
@<TRIPOS>BOND
     1    1    2 2  
     2    2    3 1  
     3    2    8 am 
     4    3    4 1  
     5    3    5 1  
     6    3    6 1  
     7    6    7 1  
     8    7    8 1  
     9    7   19 1  
    10    8    9 1  
    11    9   10 1  
    12   10   11 1  
    13   11   12 1  
    14   12   13 1  
    15   13   14 ar 
    16   13   18 ar 
    17   14   15 ar 
    18   15   16 ar 
    19   16   17 ar 
    20   17   18 ar 
    21   19   20 1  
    22   20   21 1  
    23   20   22 1  
    24   22   23 1  
    25   22   27 1  
    26   23   24 1  
    27   23   25 1  
    28   23   28 1  
    29   25   26 1  
    30   25   31 1  
    31   26   27 1  
    32   28   29 1  
    33   29   30 1  
    34   30   31 1  
    35   31   32 2  
    36   32   33 1  
    37   33   34 2  
    38   34   35 1  
    39   34   41 1  
    40   35   36 1  
    41   36   37 1  
    42   36   38 1  
    43   38   39 1  
    44   39   40 1  
    45   39   41 1  
    46   41   42 2  
    47    4   43 1  
    48    5   44 1  
    49    5   45 1  
    50    5   46 1  
    51    6   47 1  
    52    6   48 1  
    53    7   49 1  
    54    9   50 1  
    55    9   51 1  
    56   10   52 1  
    57   10   53 1  
    58   11   54 1  
    59   11   55 1  
    60   12   56 1  
    61   12   57 1  
    62   14   58 1  
    63   15   59 1  
    64   16   60 1  
    65   17   61 1  
    66   18   62 1  
    67   19   63 1  
    68   19   64 1  
    69   20   65 1  
    70   21   66 1  
    71   21   67 1  
    72   21   68 1  
    73   22   69 1  
    74   24   70 1  
    75   24   71 1  
    76   24   72 1  
    77   25   73 1  
    78   26   74 1  
    79   26   75 1  
    80   27   76 1  
    81   27   77 1  
    82   28   78 1  
    83   28   79 1  
    84   29   80 1  
    85   29   81 1  
    86   30   82 1  
    87   30   83 1  
    88   32   84 1  
    89   33   85 1  
    90   35   86 1  
    91   35   87 1  
    92   36   88 1  
    93   37   89 1  
    94   38   90 1  
    95   38   91 1  
    96   39   92 1  
    97   40   93 1  
    98   42   94 1  
    99   42   95 1  
@<TRIPOS>SUBSTRUCTURE
     1 VDP         1

