### 
### Created by X-TOOL on Mon Sep 10 21:13:31 2018
### 

@<TRIPOS>MOLECULE
5gj9_ligand
   12    12     1     0     0
SMALL
GAST_HUCK


@<TRIPOS>ATOM
      1 C1         12.9100   -6.4070  -35.1010 C.ar      1 VGL         0.1135
      2 C3         10.6630   -6.4240  -35.5670 C.ar      1 VGL         0.0457
      3 C4         10.3820   -6.3520  -34.2010 C.ar      1 VGL         0.0447
      4 C2         14.3590   -6.4350  -35.5630 C.2       1 VGL         0.0896
      5 C6         12.6320   -6.3350  -33.7350 C.ar      1 VGL         0.0565
      6 O1         14.6520   -6.4170  -36.8020 O.co2     1 VGL        -0.5553
      7 O2         15.2510   -6.5020  -34.6790 O.co2     1 VGL        -0.5553
      8 N2         11.9200   -6.4450  -35.9820 N.ar      1 VGL        -0.2564
      9 N5         11.3730   -6.3130  -33.3190 N.ar      1 VGL        -0.2673
     10 H1          9.8531   -6.4626  -36.2865 H         1 VGL         0.0936
     11 H2          9.3531   -6.3279  -33.8606 H         1 VGL         0.0946
     12 H3         13.4427   -6.2972  -33.0164 H         1 VGL         0.0961
@<TRIPOS>BOND
     1    1    4 1  
     2    1    5 ar 
     3    8    1 ar 
     4    2    3 ar 
     5    2    8 ar 
     6    3    9 ar 
     7    4    6 ar 
     8    4    7 ar 
     9    5    9 ar 
    10    2   10 1  
    11    3   11 1  
    12    5   12 1  
@<TRIPOS>SUBSTRUCTURE
     1 VGL         1

