### 
### Created by X-TOOL on Mon Sep 10 21:13:31 2018
### 

@<TRIPOS>MOLECULE
5gja_ligand
   13    13     1     0     0
SMALL
GAST_HUCK


@<TRIPOS>ATOM
      1 C1         37.4950    0.4980    5.0510 C.ar      1 6PC         0.0828
      2 C3         37.1570   -1.8260    4.9410 C.ar      1 6PC         0.0150
      3 C4         35.7790   -1.6310    4.9980 C.ar      1 6PC        -0.0311
      4 C2         38.4120    1.7030    5.0990 C.2       1 6PC         0.0811
      5 C5         35.2910   -0.3730    5.0840 C.ar      1 6PC        -0.0384
      6 C6         36.1140    0.7010    5.1100 C.ar      1 6PC        -0.0193
      7 O1         39.6930    1.5730    5.1060 O.co2     1 6PC        -0.5571
      8 O2         37.8430    2.8330    5.1880 O.co2     1 6PC        -0.5571
      9 N2         37.9860   -0.7560    4.9660 N.ar      1 6PC        -0.2817
     10 H1         37.5634   -2.8289    4.8770 H         1 6PC         0.0836
     11 H2         35.1046   -2.4793    4.9737 H         1 6PC         0.0731
     12 H3         34.2187   -0.2216    5.1331 H         1 6PC         0.0746
     13 H4         35.7077    1.7039    5.1756 H         1 6PC         0.0746
@<TRIPOS>BOND
     1    1    4 1  
     2    1    6 ar 
     3    9    1 ar 
     4    2    3 ar 
     5    2    9 ar 
     6    3    5 ar 
     7    4    7 ar 
     8    4    8 ar 
     9    5    6 ar 
    10    2   10 1  
    11    3   11 1  
    12    5   12 1  
    13    6   13 1  
@<TRIPOS>SUBSTRUCTURE
     1 6PC         1

