### 
### Created by X-TOOL on Mon Sep 10 21:13:29 2018
### 

@<TRIPOS>MOLECULE
5gjd_ligand
   66    71     1     0     0
SMALL
GAST_HUCK


@<TRIPOS>ATOM
      1 C1          0.3950  -48.9030  -17.7770 C.ar      1 6V3         0.0480
      2 C2          0.4590  -47.6220  -18.3130 C.ar      1 6V3        -0.0508
      3 C3         -0.5430  -46.6970  -18.0680 C.ar      1 6V3        -0.0838
      4 C4         -1.6250  -47.0230  -17.3090 C.ar      1 6V3        -0.0796
      5 C5         -0.7290  -49.2850  -16.9760 C.ar      1 6V3        -0.0026
      6 C6         -1.7500  -48.3150  -16.7410 C.ar      1 6V3        -0.0459
      7 C7         -2.8650  -48.6660  -15.9530 C.ar      1 6V3        -0.0448
      8 C8         -2.9730  -49.9250  -15.4020 C.ar      1 6V3         0.0647
      9 C9         -1.9840  -50.8710  -15.6380 C.ar      1 6V3        -0.0372
     10 C10        -0.8930  -50.5730  -16.3940 C.ar      1 6V3        -0.0599
     11 C12         1.0510  -50.8010  -19.1250 C.3       1 6V3         0.0688
     12 C13         2.2240  -51.5880  -19.6410 C.3       1 6V3        -0.0115
     13 C15         3.8280  -50.3990  -18.3610 C.3       1 6V3        -0.0115
     14 N11         1.3970  -49.8810  -18.0330 N.pl3     1 6V3        -0.2951
     15 N14         3.2570  -51.7140  -18.6260 N.4       1 6V3         0.2359
     16 C16         2.7840  -49.4450  -17.8070 C.3       1 6V3         0.0688
     17 C17         4.2970  -52.6450  -19.0690 C.3       1 6V3        -0.0429
     18 N18        -4.1170  -50.2670  -14.6440 N.am      1 6V3        -0.2144
     19 C19        -5.4040  -50.0170  -15.0400 C.2       1 6V3         0.3154
     20 N20        -6.3290  -50.8960  -14.5470 N.am      1 6V3        -0.2196
     21 O21        -5.7000  -49.0970  -15.7940 O.2       1 6V3        -0.3809
     22 C22        -7.7320  -50.7640  -14.7030 C.ar      1 6V3         0.0578
     23 C23        -8.5890  -50.9700  -13.6300 C.ar      1 6V3        -0.0477
     24 C24        -9.9540  -50.8190  -13.7870 C.ar      1 6V3        -0.0402
     25 C25       -10.4710  -50.4660  -15.0230 C.ar      1 6V3         0.1050
     26 C26        -9.6260  -50.2470  -16.0940 C.ar      1 6V3        -0.0402
     27 C27        -8.2610  -50.3970  -15.9350 C.ar      1 6V3        -0.0477
     28 O28       -11.8440  -50.2980  -15.1970 O.3       1 6V3        -0.2602
     29 C29       -12.3830  -49.0190  -15.0940 C.ar      1 6V3         0.1233
     30 C30       -11.7210  -47.9660  -14.4710 C.ar      1 6V3        -0.0186
     31 C31       -12.3560  -46.7370  -14.4380 C.ar      1 6V3        -0.0183
     32 N32       -13.5710  -46.4970  -14.9600 N.ar      1 6V3        -0.3042
     33 C33       -13.6560  -48.8130  -15.6540 C.ar      1 6V3         0.0344
     34 C34       -14.1930  -47.5320  -15.5540 C.ar      1 6V3         0.1244
     35 N35       -15.4180  -47.5400  -16.1550 N.pl3     1 6V3        -0.2713
     36 C36       -15.6630  -48.8070  -16.6330 C.2       1 6V3         0.0220
     37 C37       -14.6140  -49.6190  -16.3500 C.2       1 6V3        -0.0583
     38 H1          1.3046  -47.3429  -18.9312 H         1 6V3         0.0424
     39 H2         -0.4643  -45.7001  -18.4864 H         1 6V3         0.0560
     40 H3         -2.4004  -46.2852  -17.1371 H         1 6V3         0.0424
     41 H4         -3.6475  -47.9365  -15.7781 H         1 6V3         0.0407
     42 H5         -2.0830  -51.8632  -15.2128 H         1 6V3         0.0531
     43 H6         -0.1348  -51.3306  -16.5560 H         1 6V3         0.0618
     44 H7          0.2922  -51.5076  -18.7576 H         1 6V3         0.0573
     45 H8          0.6333  -50.2135  -19.9559 H         1 6V3         0.0573
     46 H9          2.6434  -51.0741  -20.5185 H         1 6V3         0.0834
     47 H10         1.8826  -52.5922  -19.9326 H         1 6V3         0.0834
     48 H11         4.2283  -49.9866  -19.2989 H         1 6V3         0.0834
     49 H12         4.6425  -50.5030  -17.6291 H         1 6V3         0.0834
     50 H13         2.8435  -52.0695  -17.7783 H         1 6V3         0.2032
     51 H14         2.9213  -48.4648  -18.2870 H         1 6V3         0.0573
     52 H15         2.9441  -49.3481  -16.7230 H         1 6V3         0.0573
     53 H16         3.8483  -53.6302  -19.2639 H         1 6V3         0.0778
     54 H17         5.0627  -52.7395  -18.2850 H         1 6V3         0.0778
     55 H18         4.7611  -52.2647  -19.9909 H         1 6V3         0.0778
     56 H19        -3.9774  -50.7199  -13.7634 H         1 6V3         0.2273
     57 H20        -5.9912  -51.6890  -14.0399 H         1 6V3         0.2230
     58 H21        -8.1853  -51.2508  -12.6639 H         1 6V3         0.0480
     59 H22       -10.6184  -50.9764  -12.9451 H         1 6V3         0.0521
     60 H23       -10.0324  -49.9583  -17.0566 H         1 6V3         0.0521
     61 H24        -7.5989  -50.2274  -16.7764 H         1 6V3         0.0480
     62 H25       -10.7418  -48.1035  -14.0268 H         1 6V3         0.0514
     63 H26       -11.8392  -45.9131  -13.9593 H         1 6V3         0.0711
     64 H27       -16.0528  -46.7331  -16.2371 H         1 6V3         0.2290
     65 H28       -16.5655  -49.1125  -17.1604 H         1 6V3         0.0914
     66 H29       -14.5190  -50.6742  -16.6019 H         1 6V3         0.0297
@<TRIPOS>BOND
     1    1    2 ar 
     2    1    5 ar 
     3   14    1 1  
     4    2    3 ar 
     5    3    4 ar 
     6    6    4 ar 
     7    5    6 ar 
     8    5   10 ar 
     9    6    7 ar 
    10    7    8 ar 
    11    9    8 ar 
    12    8   18 1  
    13   10    9 ar 
    14   11   12 1  
    15   11   14 1  
    16   12   15 1  
    17   15   13 1  
    18   13   16 1  
    19   14   16 1  
    20   15   17 1  
    21   18   19 am 
    22   19   20 am 
    23   19   21 2  
    24   20   22 1  
    25   22   23 ar 
    26   22   27 ar 
    27   23   24 ar 
    28   24   25 ar 
    29   25   26 ar 
    30   25   28 1  
    31   26   27 ar 
    32   28   29 1  
    33   29   30 ar 
    34   29   33 ar 
    35   30   31 ar 
    36   31   32 ar 
    37   32   34 ar 
    38   33   34 ar 
    39   33   37 1  
    40   34   35 1  
    41   35   36 1  
    42   36   37 2  
    43    2   38 1  
    44    3   39 1  
    45    4   40 1  
    46    7   41 1  
    47    9   42 1  
    48   10   43 1  
    49   11   44 1  
    50   11   45 1  
    51   12   46 1  
    52   12   47 1  
    53   13   48 1  
    54   13   49 1  
    55   15   50 1  
    56   16   51 1  
    57   16   52 1  
    58   17   53 1  
    59   17   54 1  
    60   17   55 1  
    61   18   56 1  
    62   20   57 1  
    63   23   58 1  
    64   24   59 1  
    65   26   60 1  
    66   27   61 1  
    67   30   62 1  
    68   31   63 1  
    69   35   64 1  
    70   36   65 1  
    71   37   66 1  
@<TRIPOS>SUBSTRUCTURE
     1 6V3         1

