### 
### Created by X-TOOL on Mon Sep 10 21:13:28 2018
### 

@<TRIPOS>MOLECULE
5gjf_ligand
   78    82     1     0     0
SMALL
GAST_HUCK


@<TRIPOS>ATOM
      1 C1        -16.6500  -50.3840  -19.2060 C.ar      1 6V4         0.0250
      2 C2        -15.4060  -50.8540  -19.6290 C.ar      1 6V4        -0.0265
      3 C3        -14.2820  -50.6710  -18.8390 C.ar      1 6V4         0.1187
      4 C4        -14.3770  -49.9600  -17.6110 C.ar      1 6V4         0.1019
      5 C5        -15.6270  -49.4950  -17.2020 C.ar      1 6V4        -0.0425
      6 C6        -16.7460  -49.7000  -17.9920 C.ar      1 6V4        -0.0664
      7 C7        -17.8430  -50.6060  -20.0920 C.2       1 6V4         0.1936
      8 C12       -20.1290  -51.3610  -19.7740 C.3       1 6V4         0.0732
      9 C13       -21.2930  -51.0790  -18.8340 C.3       1 6V4        -0.0113
     10 C15       -20.7680  -48.7550  -18.8120 C.3       1 6V4        -0.0113
     11 O8        -17.6750  -50.9710  -21.2430 O.2       1 6V4        -0.3919
     12 N9        -19.0750  -50.3500  -19.6050 N.am      1 6V4        -0.2647
     13 O10       -13.0290  -51.0930  -19.2300 O.3       1 6V4        -0.3204
     14 N11       -13.1930  -49.7860  -16.8400 N.am      1 6V4        -0.2342
     15 N14       -21.8240  -49.7350  -19.0480 N.4       1 6V4         0.2359
     16 C16       -19.5950  -48.9830  -19.7520 C.3       1 6V4         0.0732
     17 C17       -22.9730  -49.4810  -18.1690 C.3       1 6V4        -0.0430
     18 C18       -12.8060  -48.7460  -16.0310 C.2       1 6V4         0.2295
     19 C19       -11.4090  -48.8470  -15.5380 C.2       1 6V4         0.1049
     20 O20       -13.5270  -47.8030  -15.7060 O.2       1 6V4        -0.3805
     21 S21        -9.1700  -48.3490  -14.4740 S.3       1 6V4         0.0070
     22 C22       -10.7650  -47.8510  -14.8850 C.2       1 6V4         0.0398
     23 C23        -9.4730  -49.8780  -15.2270 C.2       1 6V4         0.1130
     24 N24       -10.6760  -50.0080  -15.7290 N.2       1 6V4        -0.2923
     25 C25        -8.4400  -50.9300  -15.2400 C.ar      1 6V4         0.0069
     26 C26       -12.4990  -52.4120  -18.8630 C.3       1 6V4         0.0726
     27 C27       -13.0900  -53.5130  -19.7030 C.3       1 6V4        -0.0350
     28 C28       -10.9860  -52.2990  -19.0020 C.3       1 6V4        -0.0350
     29 C29        -8.8090  -52.2640  -15.3740 C.ar      1 6V4        -0.0618
     30 C30        -7.8470  -53.2610  -15.3740 C.ar      1 6V4        -0.0710
     31 C31        -6.5050  -52.9420  -15.2440 C.ar      1 6V4        -0.0381
     32 C32        -6.1200  -51.6140  -15.1120 C.ar      1 6V4         0.0709
     33 C33        -7.0890  -50.6120  -15.1050 C.ar      1 6V4        -0.0269
     34 N34        -4.7380  -51.3480  -14.9600 N.am      1 6V4        -0.2138
     35 C35        -4.0120  -50.3320  -15.5270 C.2       1 6V4         0.3169
     36 N36        -2.6560  -50.5600  -15.4890 N.am      1 6V4        -0.2143
     37 O37        -4.5250  -49.3310  -16.0160 O.2       1 6V4        -0.3803
     38 C38        -1.6100  -49.7420  -15.9940 C.ar      1 6V4         0.0671
     39 C39        -1.8260  -48.6110  -16.7840 C.ar      1 6V4        -0.0415
     40 C40        -0.7500  -47.8650  -17.2400 C.ar      1 6V4        -0.0757
     41 C41         0.5410  -48.2340  -16.9190 C.ar      1 6V4        -0.0773
     42 C42         0.7620  -49.3510  -16.1360 C.ar      1 6V4        -0.0757
     43 C43        -0.3050  -50.1080  -15.6740 C.ar      1 6V4        -0.0415
     44 H1        -15.3183  -51.3651  -20.5809 H         1 6V4         0.0541
     45 H2        -15.7232  -48.9693  -16.2589 H         1 6V4         0.0483
     46 H3        -17.7086  -49.3248  -17.6639 H         1 6V4         0.0540
     47 H4        -20.4890  -51.3385  -20.8132 H         1 6V4         0.0574
     48 H5        -19.7158  -52.3556  -19.5505 H         1 6V4         0.0574
     49 H6        -20.9453  -51.1672  -17.7941 H         1 6V4         0.0834
     50 H7        -22.0902  -51.8143  -19.0177 H         1 6V4         0.0834
     51 H8        -20.4191  -48.8450  -17.7727 H         1 6V4         0.0834
     52 H9        -21.1708  -47.7449  -18.9775 H         1 6V4         0.0834
     53 H10       -12.5395  -50.5408  -16.8965 H         1 6V4         0.2240
     54 H11       -22.1309  -49.6568  -20.0050 H         1 6V4         0.2032
     55 H12       -18.7964  -48.2646  -19.5150 H         1 6V4         0.0574
     56 H13       -19.9280  -48.8321  -20.7895 H         1 6V4         0.0574
     57 H14       -23.7555  -50.2294  -18.3630 H         1 6V4         0.0778
     58 H15       -23.3709  -48.4748  -18.3671 H         1 6V4         0.0778
     59 H16       -22.6532  -49.5487  -17.1187 H         1 6V4         0.0778
     60 H17       -11.1938  -46.8771  -14.6537 H         1 6V4         0.0895
     61 H18       -12.7472  -52.6223  -17.8122 H         1 6V4         0.0639
     62 H19       -12.6648  -54.4790  -19.3931 H         1 6V4         0.0258
     63 H20       -12.8555  -53.3321  -20.7624 H         1 6V4         0.0258
     64 H21       -14.1814  -53.5323  -19.5671 H         1 6V4         0.0258
     65 H22       -10.5209  -53.2607  -18.7398 H         1 6V4         0.0258
     66 H23       -10.6132  -51.5152  -18.3263 H         1 6V4         0.0258
     67 H24       -10.7315  -52.0396  -20.0402 H         1 6V4         0.0258
     68 H25        -9.8557  -52.5254  -15.4791 H         1 6V4         0.0528
     69 H26        -8.1463  -54.2978  -15.4764 H         1 6V4         0.0587
     70 H27        -5.7573  -53.7269  -15.2453 H         1 6V4         0.0530
     71 H28        -6.7896  -49.5761  -14.9936 H         1 6V4         0.0532
     72 H29        -4.2309  -51.9754  -14.3690 H         1 6V4         0.2260
     73 H30        -2.3696  -51.4112  -15.0492 H         1 6V4         0.2262
     74 H31        -2.8368  -48.3157  -17.0412 H         1 6V4         0.0501
     75 H32        -0.9234  -46.9872  -17.8519 H         1 6V4         0.0577
     76 H33         1.3791  -47.6491  -17.2802 H         1 6V4         0.0486
     77 H34         1.7758  -49.6377  -15.8810 H         1 6V4         0.0577
     78 H35        -0.1227  -50.9850  -15.0635 H         1 6V4         0.0501
@<TRIPOS>BOND
     1    1    2 ar 
     2    1    6 ar 
     3    7    1 1  
     4    2    3 ar 
     5    3    4 ar 
     6    3   13 1  
     7    5    4 ar 
     8    4   14 1  
     9    6    5 ar 
    10    7   11 2  
    11   12    7 am 
    12    8    9 1  
    13    8   12 1  
    14    9   15 1  
    15   15   10 1  
    16   10   16 1  
    17   12   16 1  
    18   13   26 1  
    19   14   18 am 
    20   15   17 1  
    21   18   19 1  
    22   18   20 2  
    23   19   22 2  
    24   19   24 1  
    25   22   21 1  
    26   21   23 1  
    27   23   24 2  
    28   23   25 1  
    29   25   29 ar 
    30   25   33 ar 
    31   26   27 1  
    32   26   28 1  
    33   29   30 ar 
    34   30   31 ar 
    35   31   32 ar 
    36   32   33 ar 
    37   32   34 1  
    38   34   35 am 
    39   35   36 am 
    40   35   37 2  
    41   36   38 1  
    42   38   39 ar 
    43   38   43 ar 
    44   39   40 ar 
    45   40   41 ar 
    46   41   42 ar 
    47   42   43 ar 
    48    2   44 1  
    49    5   45 1  
    50    6   46 1  
    51    8   47 1  
    52    8   48 1  
    53    9   49 1  
    54    9   50 1  
    55   10   51 1  
    56   10   52 1  
    57   14   53 1  
    58   15   54 1  
    59   16   55 1  
    60   16   56 1  
    61   17   57 1  
    62   17   58 1  
    63   17   59 1  
    64   22   60 1  
    65   26   61 1  
    66   27   62 1  
    67   27   63 1  
    68   27   64 1  
    69   28   65 1  
    70   28   66 1  
    71   28   67 1  
    72   29   68 1  
    73   30   69 1  
    74   31   70 1  
    75   33   71 1  
    76   34   72 1  
    77   36   73 1  
    78   39   74 1  
    79   40   75 1  
    80   41   76 1  
    81   42   77 1  
    82   43   78 1  
@<TRIPOS>SUBSTRUCTURE
     1 6V4         1

