### 
### Created by X-TOOL on Mon Sep 10 21:13:27 2018
### 

@<TRIPOS>MOLECULE
5gjg_ligand
   76    80     1     0     0
SMALL
GAST_HUCK


@<TRIPOS>ATOM
      1 C1        -17.8450  -48.0500  -18.7710 C.ar      1 6V5         0.0250
      2 C2        -16.9300  -49.0920  -18.9850 C.ar      1 6V5        -0.0265
      3 C3        -15.7030  -49.0820  -18.3160 C.ar      1 6V5         0.1187
      4 C4        -15.3720  -48.0060  -17.4170 C.ar      1 6V5         0.1019
      5 C5        -16.2980  -46.9860  -17.2290 C.ar      1 6V5        -0.0425
      6 C6        -17.5130  -47.0050  -17.9000 C.ar      1 6V5        -0.0664
      7 C7        -19.1790  -48.0350  -19.4630 C.2       1 6V5         0.1936
      8 C12       -14.5780  -50.9620  -19.4950 C.3       1 6V5         0.0726
      9 C13       -13.5720  -51.9550  -19.0200 C.3       1 6V5        -0.0350
     10 C14       -14.1270  -50.2850  -20.7510 C.3       1 6V5        -0.0350
     11 C15       -21.4200  -48.6630  -18.8550 C.3       1 6V5         0.0732
     12 O8        -19.2100  -48.3800  -20.6220 O.2       1 6V5        -0.3919
     13 N9        -20.3110  -47.6870  -18.7780 N.am      1 6V5        -0.2647
     14 N10       -14.1130  -48.0550  -16.7530 N.am      1 6V5        -0.2342
     15 O11       -14.6810  -50.0070  -18.3950 O.3       1 6V5        -0.3204
     16 C16       -22.5760  -48.3080  -17.8840 C.3       1 6V5        -0.0113
     17 N17       -23.0460  -46.9400  -18.1030 N.4       1 6V5         0.2359
     18 C18       -21.9330  -46.0150  -17.8960 C.3       1 6V5        -0.0113
     19 C19       -20.7970  -46.2990  -18.8890 C.3       1 6V5         0.0732
     20 C20       -24.1960  -46.6120  -17.2000 C.3       1 6V5        -0.0430
     21 C21       -13.4080  -47.1160  -16.0020 C.2       1 6V5         0.2295
     22 C22       -11.9900  -47.5090  -15.7610 C.2       1 6V5         0.1048
     23 O23       -13.8600  -46.0100  -15.6020 O.2       1 6V5        -0.3805
     24 N24       -11.5100  -48.7440  -16.1900 N.2       1 6V5        -0.2921
     25 C25       -10.2280  -48.8460  -15.9440 C.2       1 6V5         0.1178
     26 S26        -9.5340  -47.4700  -15.1640 S.3       1 6V5         0.0074
     27 C27       -11.0730  -46.6980  -15.1860 C.2       1 6V5         0.0397
     28 C28        -9.3860  -50.0030  -16.2610 C.ar      1 6V5         0.0265
     29 C29        -9.8630  -50.9970  -17.1110 C.ar      1 6V5        -0.0424
     30 C30        -9.0730  -52.0920  -17.4250 C.ar      1 6V5        -0.0523
     31 C31        -7.8040  -52.2080  -16.8850 C.ar      1 6V5        -0.0386
     32 C32        -7.3000  -51.2130  -16.0480 C.ar      1 6V5         0.0602
     33 C33        -8.0950  -50.1050  -15.7480 C.ar      1 6V5        -0.0260
     34 C34        -5.9110  -51.3780  -15.5010 C.2       1 6V5         0.2333
     35 N35        -5.1610  -50.2490  -15.4320 N.am      1 6V5        -0.2330
     36 O36        -5.5000  -52.4820  -15.1440 O.2       1 6V5        -0.3728
     37 C37        -3.8890  -50.0610  -14.8300 C.ar      1 6V5         0.0660
     38 C38        -2.9670  -51.0930  -14.6340 C.ar      1 6V5        -0.0412
     39 C39        -1.7430  -50.8220  -14.0430 C.ar      1 6V5        -0.0755
     40 C40        -1.4210  -49.5290  -13.6580 C.ar      1 6V5        -0.0771
     41 C41        -2.3270  -48.5010  -13.8610 C.ar      1 6V5        -0.0755
     42 C42        -3.5570  -48.7590  -14.4480 C.ar      1 6V5        -0.0412
     43 H1        -17.1734  -49.9001  -19.6653 H         1 6V5         0.0541
     44 H2        -16.0694  -46.1698  -16.5533 H         1 6V5         0.0483
     45 H3        -18.2179  -46.1959  -17.7469 H         1 6V5         0.0540
     46 H4        -15.5468  -51.4506  -19.6758 H         1 6V5         0.0639
     47 H5        -13.4246  -52.7252  -19.7914 H         1 6V5         0.0258
     48 H6        -13.9320  -52.4275  -18.0942 H         1 6V5         0.0258
     49 H7        -12.6173  -51.4448  -18.8242 H         1 6V5         0.0258
     50 H8        -14.8908  -49.5614  -21.0720 H         1 6V5         0.0258
     51 H9        -13.9796  -51.0369  -21.5402 H         1 6V5         0.0258
     52 H10       -13.1792  -49.7590  -20.5640 H         1 6V5         0.0258
     53 H11       -21.0338  -49.6602  -18.5975 H         1 6V5         0.0574
     54 H12       -21.8112  -48.6755  -19.8830 H         1 6V5         0.0574
     55 H13       -13.6438  -48.9335  -16.8430 H         1 6V5         0.2240
     56 H14       -22.2175  -48.4033  -16.8484 H         1 6V5         0.0834
     57 H15       -23.4106  -49.0053  -18.0487 H         1 6V5         0.0834
     58 H16       -23.3609  -46.8566  -19.0569 H         1 6V5         0.2032
     59 H17       -21.5530  -46.1315  -16.8703 H         1 6V5         0.0834
     60 H18       -22.2889  -44.9842  -18.0403 H         1 6V5         0.0834
     61 H19       -21.1667  -46.1312  -19.9113 H         1 6V5         0.0574
     62 H20       -19.9633  -45.6116  -18.6832 H         1 6V5         0.0574
     63 H21       -25.0163  -47.3230  -17.3780 H         1 6V5         0.0778
     64 H22       -24.5453  -45.5898  -17.4076 H         1 6V5         0.0778
     65 H23       -23.8707  -46.6825  -16.1516 H         1 6V5         0.0778
     66 H24       -11.2779  -45.7027  -14.7944 H         1 6V5         0.0894
     67 H25       -10.8592  -50.9142  -17.5303 H         1 6V5         0.0688
     68 H26        -9.4493  -52.8577  -18.0937 H         1 6V5         0.0637
     69 H27        -7.1983  -53.0774  -17.1140 H         1 6V5         0.0692
     70 H28        -7.7049  -49.3189  -15.1116 H         1 6V5         0.0710
     71 H29        -5.5584  -49.4394  -15.8640 H         1 6V5         0.2253
     72 H30        -3.2088  -52.1033  -14.9436 H         1 6V5         0.0503
     73 H31        -1.0333  -51.6252  -13.8807 H         1 6V5         0.0577
     74 H32        -0.4610  -49.3231  -13.1986 H         1 6V5         0.0488
     75 H33        -2.0738  -47.4909  -13.5599 H         1 6V5         0.0577
     76 H34        -4.2605  -47.9504  -14.6103 H         1 6V5         0.0503
@<TRIPOS>BOND
     1    2    1 ar 
     2    1    6 ar 
     3    1    7 1  
     4    3    2 ar 
     5    3    4 ar 
     6   15    3 1  
     7    4    5 ar 
     8    4   14 1  
     9    5    6 ar 
    10    7   12 2  
    11    7   13 am 
    12    8    9 1  
    13    8   10 1  
    14    8   15 1  
    15   13   11 1  
    16   11   16 1  
    17   13   19 1  
    18   14   21 am 
    19   16   17 1  
    20   17   18 1  
    21   17   20 1  
    22   18   19 1  
    23   21   22 1  
    24   21   23 2  
    25   22   24 1  
    26   22   27 2  
    27   24   25 2  
    28   25   26 1  
    29   25   28 1  
    30   26   27 1  
    31   28   29 ar 
    32   28   33 ar 
    33   29   30 ar 
    34   30   31 ar 
    35   31   32 ar 
    36   32   33 ar 
    37   32   34 1  
    38   34   35 am 
    39   34   36 2  
    40   35   37 1  
    41   37   38 ar 
    42   37   42 ar 
    43   38   39 ar 
    44   39   40 ar 
    45   40   41 ar 
    46   41   42 ar 
    47    2   43 1  
    48    5   44 1  
    49    6   45 1  
    50    8   46 1  
    51    9   47 1  
    52    9   48 1  
    53    9   49 1  
    54   10   50 1  
    55   10   51 1  
    56   10   52 1  
    57   11   53 1  
    58   11   54 1  
    59   14   55 1  
    60   16   56 1  
    61   16   57 1  
    62   17   58 1  
    63   18   59 1  
    64   18   60 1  
    65   19   61 1  
    66   19   62 1  
    67   20   63 1  
    68   20   64 1  
    69   20   65 1  
    70   27   66 1  
    71   29   67 1  
    72   30   68 1  
    73   31   69 1  
    74   33   70 1  
    75   35   71 1  
    76   38   72 1  
    77   39   73 1  
    78   40   74 1  
    79   41   75 1  
    80   42   76 1  
@<TRIPOS>SUBSTRUCTURE
     1 6V5         1

