### 
### Created by X-TOOL on Mon Sep 10 21:13:29 2018
### 

@<TRIPOS>MOLECULE
5glu_ligand
   81    83     1     0     0
SMALL
GAST_HUCK


@<TRIPOS>ATOM
      1 C1        -19.3420  -42.3560   -6.2640 C.2       1 SIA         0.1041
      2 C2        -20.0800  -43.4960   -6.9170 C.3       1 SIA         0.2208
      3 C3        -21.2000  -43.9730   -5.9890 C.3       1 SIA         0.0353
      4 C4        -22.1480  -42.8030   -5.7060 C.3       1 SIA         0.0850
      5 C5        -22.6140  -42.2180   -7.0430 C.3       1 SIA         0.0964
      6 C6        -21.3900  -41.8730   -7.8930 C.3       1 SIA         0.1143
      7 C7        -21.8440  -41.2570   -9.2180 C.3       1 SIA         0.1114
      8 C8        -20.6200  -40.9350  -10.0760 C.3       1 SIA         0.1065
      9 C9        -21.0690  -40.2510  -11.3690 C.3       1 SIA         0.0727
     10 C10       -24.7330  -41.0870   -6.6340 C.2       1 SIA         0.1733
     11 C11       -25.5410  -39.8390   -6.3830 C.3       1 SIA         0.0257
     12 N5        -23.3980  -41.0050   -6.7980 N.am      1 SIA        -0.2790
     13 O1A       -18.9270  -41.4420   -6.9350 O.co2     1 SIA        -0.5426
     14 O1B       -19.1440  -42.3580   -4.9370 O.co2     1 SIA        -0.5426
     15 O4        -23.2790  -43.2660   -4.9650 O.3       1 SIA        -0.3893
     16 O6        -20.6340  -43.0540   -8.1540 O.3       1 SIA        -0.3384
     17 O7        -22.6800  -42.1840   -9.9110 O.3       1 SIA        -0.3865
     18 O8        -19.7480  -40.0630   -9.3550 O.3       1 SIA        -0.3869
     19 O9        -19.9270  -39.9480  -12.1720 O.3       1 SIA        -0.3924
     20 O10       -25.2850  -42.1650   -6.6850 O.2       1 SIA        -0.3974
     21 C1        -17.0240  -44.6210  -10.2340 C.3       1 GAL         0.1884
     22 C2        -18.1680  -45.0440   -9.3110 C.3       1 GAL         0.1344
     23 C3        -18.2140  -44.0990   -8.1070 C.3       1 GAL         0.1197
     24 C4        -16.8260  -44.0590   -7.4550 C.3       1 GAL         0.1121
     25 C5        -15.7870  -43.7080   -8.5220 C.3       1 GAL         0.1130
     26 C6        -14.4010  -43.6330   -7.8770 C.3       1 GAL         0.0730
     27 O2        -19.4060  -44.9850  -10.0220 O.3       1 GAL        -0.3841
     28 O3        -19.1720  -44.5720   -7.1590 O.3       1 GAL        -0.3380
     29 O4        -16.5250  -45.3370   -6.8940 O.3       1 GAL        -0.3865
     30 O5        -15.7820  -44.7070   -9.5390 O.3       1 GAL        -0.3405
     31 O6        -13.4290  -43.3060   -8.8710 O.3       1 GAL        -0.3924
     32 C1        -14.9240  -44.9740  -14.8980 C.3       1 GLC         0.1854
     33 C2        -14.0550  -45.3790  -13.7040 C.3       1 GLC         0.1339
     34 C3        -14.9560  -45.9410  -12.6010 C.3       1 GLC         0.1144
     35 C4        -16.0530  -44.9180  -12.2910 C.3       1 GLC         0.1184
     36 C5        -16.7700  -44.5470  -13.5910 C.3       1 GLC         0.1134
     37 C6        -17.8900  -43.5480  -13.2900 C.3       1 GLC         0.0730
     38 O1        -15.6440  -46.1130  -15.3680 O.3       1 GLC        -0.3649
     39 O2        -13.1150  -46.3730  -14.1100 O.3       1 GLC        -0.3841
     40 O3        -14.1820  -46.1840  -11.4230 O.3       1 GLC        -0.3864
     41 O4        -16.9910  -45.4830  -11.3730 O.3       1 GLC        -0.3401
     42 O5        -15.8450  -43.9600  -14.5040 O.3       1 GLC        -0.3407
     43 O6        -18.5650  -43.2080  -14.5010 O.3       1 GLC        -0.3924
     44 H1        -20.7672  -44.3334   -5.0441 H         1 SIA         0.0336
     45 H2        -21.7565  -44.7894   -6.4724 H         1 SIA         0.0336
     46 H3        -21.6209  -42.0307   -5.1265 H         1 SIA         0.0618
     47 H4        -23.2345  -42.9559   -7.5725 H         1 SIA         0.0608
     48 H5        -20.7621  -41.1509   -7.3505 H         1 SIA         0.0646
     49 H6        -22.4065  -40.3328   -9.0195 H         1 SIA         0.0647
     50 H7        -20.0878  -41.8664  -10.3195 H         1 SIA         0.0643
     51 H8        -21.6022  -39.3204  -11.1249 H         1 SIA         0.0584
     52 H9        -21.7396  -40.9228  -11.9249 H         1 SIA         0.0584
     53 H10       -26.6030  -40.1051   -6.2760 H         1 SIA         0.0467
     54 H11       -25.4199  -39.1473   -7.2296 H         1 SIA         0.0467
     55 H12       -25.1898  -39.3542   -5.4602 H         1 SIA         0.0467
     56 H13       -22.9424  -40.1160   -6.7525 H         1 SIA         0.1856
     57 H14       -23.8695  -42.5394   -4.8036 H         1 SIA         0.2099
     58 H15       -22.1931  -42.9817  -10.0813 H         1 SIA         0.2100
     59 H16       -19.4696  -40.4881   -8.5524 H         1 SIA         0.2100
     60 H17       -19.3484  -39.3676  -11.6915 H         1 SIA         0.2095
     61 H18       -17.1860  -43.5842  -10.5638 H         1 SIA         0.0938
     62 H19       -17.9971  -46.0732   -8.9625 H         1 SIA         0.0671
     63 H20       -18.4955  -43.0893   -8.4406 H         1 SIA         0.0650
     64 H21       -16.8121  -43.2974   -6.6614 H         1 SIA         0.0647
     65 H22       -16.0368  -42.7341   -8.9683 H         1 SIA         0.0647
     66 H23       -14.1527  -44.6059   -7.4279 H         1 SIA         0.0584
     67 H24       -14.4016  -42.8581   -7.0963 H         1 SIA         0.0584
     68 H25       -19.3703  -45.5733  -10.7671 H         1 SIA         0.2101
     69 H26       -17.1720  -45.5514   -6.2322 H         1 SIA         0.2100
     70 H27       -12.5695  -43.2599   -8.4688 H         1 SIA         0.2095
     71 H28       -14.2810  -44.5894  -15.7033 H         1 SIA         0.0935
     72 H29       -13.5154  -44.4983  -13.3256 H         1 SIA         0.0671
     73 H30       -15.4127  -46.8823  -12.9406 H         1 SIA         0.0648
     74 H31       -15.6028  -44.0175  -11.8477 H         1 SIA         0.0651
     75 H32       -17.2002  -45.4539  -14.0409 H         1 SIA         0.0647
     76 H33       -17.4602  -42.6396  -12.8428 H         1 SIA         0.0584
     77 H34       -18.6049  -44.0000  -12.5867 H         1 SIA         0.0584
     78 H35       -15.0297  -46.7884  -15.6304 H         1 SIA         0.2126
     79 H36       -13.5812  -47.1323  -14.4397 H         1 SIA         0.2101
     80 H37       -14.7470  -46.5230  -10.7385 H         1 SIA         0.2100
     81 H38       -17.9471  -42.8175  -15.1078 H         1 SIA         0.2095
@<TRIPOS>BOND
     1    2    1 1  
     2    1   13 ar 
     3    1   14 ar 
     4    2    3 1  
     5    2   16 1  
     6   28    2 1  
     7    3    4 1  
     8    4    5 1  
     9    4   15 1  
    10    6    5 1  
    11    5   12 1  
    12    6    7 1  
    13   16    6 1  
    14    7    8 1  
    15    7   17 1  
    16    8    9 1  
    17    8   18 1  
    18    9   19 1  
    19   10   11 1  
    20   12   10 am 
    21   10   20 2  
    22   21   22 1  
    23   21   30 1  
    24   41   21 1  
    25   22   23 1  
    26   22   27 1  
    27   23   24 1  
    28   23   28 1  
    29   25   24 1  
    30   24   29 1  
    31   25   26 1  
    32   30   25 1  
    33   26   31 1  
    34   33   32 1  
    35   32   38 1  
    36   32   42 1  
    37   34   33 1  
    38   33   39 1  
    39   35   34 1  
    40   34   40 1  
    41   35   36 1  
    42   35   41 1  
    43   36   37 1  
    44   36   42 1  
    45   37   43 1  
    46    3   44 1  
    47    3   45 1  
    48    4   46 1  
    49    5   47 1  
    50    6   48 1  
    51    7   49 1  
    52    8   50 1  
    53    9   51 1  
    54    9   52 1  
    55   11   53 1  
    56   11   54 1  
    57   11   55 1  
    58   12   56 1  
    59   15   57 1  
    60   17   58 1  
    61   18   59 1  
    62   19   60 1  
    63   21   61 1  
    64   22   62 1  
    65   23   63 1  
    66   24   64 1  
    67   25   65 1  
    68   26   66 1  
    69   26   67 1  
    70   27   68 1  
    71   29   69 1  
    72   31   70 1  
    73   32   71 1  
    74   33   72 1  
    75   34   73 1  
    76   35   74 1  
    77   36   75 1  
    78   37   76 1  
    79   37   77 1  
    80   38   78 1  
    81   39   79 1  
    82   40   80 1  
    83   43   81 1  
@<TRIPOS>SUBSTRUCTURE
     1 SIA         1

