### 
### Created by X-TOOL on Mon Sep 10 21:13:34 2018
### 

@<TRIPOS>MOLECULE
5gmi_ligand
   80    80     1     0     0
SMALL
GAST_HUCK


@<TRIPOS>ATOM
      1 N          80.4840   13.3420  -10.0350 N.4       1 SER         0.2396
      2 CA         80.9840   12.6230   -8.8680 C.3       1 SER         0.0885
      3 C          81.5450   13.5730   -7.8140 C.2       1 SER         0.2290
      4 O          81.5390   14.7890   -8.0020 O.2       1 SER        -0.3906
      5 CB         82.0570   11.6180   -9.2820 C.3       1 SER         0.1041
      6 OG         82.3600   10.7430   -8.2140 O.3       1 SER        -0.3870
      7 N          82.0280   13.0170   -6.7060 N.am      1 SER        -0.2588
      8 CA         82.6990   13.8250   -5.6930 C.3       1 SER         0.1540
      9 C          84.0970   14.2020   -6.1350 C.2       1 SER         0.2063
     10 O          84.7490   13.4640   -6.8730 O.2       1 SER        -0.3943
     11 CB         82.7620   13.0910   -4.3510 C.3       1 SER         0.0843
     12 OG         83.2190   11.7630   -4.5140 O.3       1 SER        -0.3903
     13 N          84.5550   15.3530   -5.6620 N.am      1 PHE        -0.2619
     14 CA         85.9090   15.7990   -5.9330 C.3       1 PHE         0.1404
     15 C          86.3770   16.7640   -4.8490 C.2       1 PHE         0.2060
     16 O          85.5740   17.4840   -4.2540 O.2       1 PHE        -0.3942
     17 CB         85.9970   16.4470   -7.3210 C.3       1 PHE         0.0214
     18 CG         85.0870   17.6330   -7.5110 C.ar      1 PHE        -0.0386
     19 CD1        83.7300   17.4600   -7.7420 C.ar      1 PHE        -0.0601
     20 CD2        85.5950   18.9210   -7.4860 C.ar      1 PHE        -0.0601
     21 CE1        82.8960   18.5500   -7.9230 C.ar      1 PHE        -0.0686
     22 CE2        84.7670   20.0140   -7.6690 C.ar      1 PHE        -0.0686
     23 CZ         83.4160   19.8280   -7.8890 C.ar      1 PHE        -0.0687
     24 N          87.6800   16.7650   -4.5920 N.am      1 VAL        -0.2633
     25 CA         88.2470   17.5810   -3.5280 C.3       1 VAL         0.1332
     26 C          88.5280   18.9890   -4.0400 C.2       1 VAL         0.2036
     27 O          88.9580   19.1700   -5.1780 O.2       1 VAL        -0.3944
     28 CB         89.5450   16.9480   -2.9740 C.3       1 VAL        -0.0063
     29 CG1        90.0440   17.7040   -1.7500 C.3       1 VAL        -0.0584
     30 CG2        89.3100   15.4850   -2.6330 C.3       1 VAL        -0.0584
     31 N          88.2710   19.9830   -3.1960 N.am      1 ILE        -0.2692
     32 CA         88.6110   21.3680   -3.5020 C.3       1 ILE         0.0969
     33 C          89.2880   22.0370   -2.3100 C.2       1 ILE         0.0604
     34 O          89.4260   21.4270   -1.2500 O.co2     1 ILE        -0.5666
     35 CB         87.3600   22.1750   -3.9210 C.3       1 ILE        -0.0092
     36 CG1        86.1670   21.8140   -3.0380 C.3       1 ILE        -0.0497
     37 CG2        86.9830   21.8660   -5.3560 C.3       1 ILE        -0.0588
     38 CD1        86.0180   22.6440   -1.7970 C.3       1 ILE        -0.0649
     39 OXT        89.7010   23.1950   -2.3750 O.co2     1 ILE        -0.5666
     40 H1         80.1229   12.6827  -10.7065 H         1 SER         0.2016
     41 H2         81.2351   13.8691  -10.4522 H         1 SER         0.2016
     42 H3         79.7486   13.9708   -9.7526 H         1 SER         0.2016
     43 H4         80.1438   12.0716   -8.4209 H         1 SER         0.1122
     44 H5         82.9679   12.1615   -9.5731 H         1 SER         0.0640
     45 H6         81.6912   11.0309  -10.1372 H         1 SER         0.0640
     46 H7         81.5759   10.2696   -7.9617 H         1 SER         0.2099
     47 H8         81.9298   12.0318   -6.5655 H         1 SER         0.1885
     48 H9         82.1186   14.7491   -5.5547 H         1 SER         0.0823
     49 H10        81.7566   13.0720   -3.9052 H         1 SER         0.0606
     50 H11        83.4501   13.6272   -3.6810 H         1 SER         0.0606
     51 H12        82.6259   11.2935   -5.0888 H         1 SER         0.2097
     52 H13        83.9536   15.9267   -5.1059 H         1 PHE         0.1885
     53 H14        86.5711   14.9207   -5.9214 H         1 PHE         0.0823
     54 H15        85.7349   15.6879   -8.0727 H         1 PHE         0.0474
     55 H16        87.0334   16.7790   -7.4810 H         1 PHE         0.0474
     56 H17        83.3174   16.4583   -7.7813 H         1 PHE         0.0557
     57 H18        86.6553   19.0748   -7.3209 H         1 PHE         0.0557
     58 H19        81.8357   18.3999   -8.0912 H         1 PHE         0.0599
     59 H20        85.1784   21.0165   -7.6398 H         1 PHE         0.0599
     60 H21        82.7661   20.6833   -8.0345 H         1 PHE         0.0559
     61 H22        88.2863   16.1913   -5.1427 H         1 VAL         0.1883
     62 H23        87.5142   17.6443   -2.7101 H         1 VAL         0.0802
     63 H24        90.3184   17.0046   -3.7542 H         1 VAL         0.0343
     64 H25        90.9659   17.2326   -1.3786 H         1 VAL         0.0234
     65 H26        89.2755   17.6764   -0.9635 H         1 VAL         0.0234
     66 H27        90.2512   18.7490   -2.0237 H         1 VAL         0.0234
     67 H28        88.9503   14.9535   -3.5264 H         1 VAL         0.0234
     68 H29        88.5571   15.4110   -1.8344 H         1 VAL         0.0234
     69 H30        90.2525   15.0321   -2.2916 H         1 VAL         0.0234
     70 H31        87.8303   19.7746   -2.3229 H         1 ILE         0.1875
     71 H32        89.3177   21.3671   -4.3450 H         1 ILE         0.0729
     72 H33        87.5783   23.2486   -3.8220 H         1 ILE         0.0338
     73 H34        86.2745   20.7625   -2.7335 H         1 ILE         0.0267
     74 H35        85.2521   21.9305   -3.6374 H         1 ILE         0.0267
     75 H36        87.8249   22.1163   -6.0183 H         1 ILE         0.0234
     76 H37        86.1031   22.4617   -5.6404 H         1 ILE         0.0234
     77 H38        86.7475   20.7957   -5.4509 H         1 ILE         0.0234
     78 H39        85.1351   22.3067   -1.2342 H         1 ILE         0.0230
     79 H40        85.8935   23.7009   -2.0754 H         1 ILE         0.0230
     80 H41        86.9160   22.5329   -1.1715 H         1 ILE         0.0230
@<TRIPOS>BOND
     1    1    2 1  
     2    2    3 1  
     3    2    5 1  
     4    3    4 2  
     5    3    7 am 
     6    5    6 1  
     7    7    8 1  
     8    8    9 1  
     9    8   11 1  
    10    9   10 2  
    11    9   13 am 
    12   11   12 1  
    13   13   14 1  
    14   14   15 1  
    15   14   17 1  
    16   15   16 2  
    17   15   24 am 
    18   17   18 1  
    19   18   19 ar 
    20   18   20 ar 
    21   19   21 ar 
    22   20   22 ar 
    23   21   23 ar 
    24   22   23 ar 
    25   24   25 1  
    26   25   26 1  
    27   25   28 1  
    28   26   27 2  
    29   26   31 am 
    30   28   29 1  
    31   28   30 1  
    32   31   32 1  
    33   32   33 1  
    34   32   35 1  
    35   33   34 ar 
    36   33   39 ar 
    37   35   36 1  
    38   35   37 1  
    39   36   38 1  
    40    1   40 1  
    41    1   41 1  
    42    1   42 1  
    43    2   43 1  
    44    5   44 1  
    45    5   45 1  
    46    6   46 1  
    47    7   47 1  
    48    8   48 1  
    49   11   49 1  
    50   11   50 1  
    51   12   51 1  
    52   13   52 1  
    53   14   53 1  
    54   17   54 1  
    55   17   55 1  
    56   19   56 1  
    57   20   57 1  
    58   21   58 1  
    59   22   59 1  
    60   23   60 1  
    61   24   61 1  
    62   25   62 1  
    63   28   63 1  
    64   29   64 1  
    65   29   65 1  
    66   29   66 1  
    67   30   67 1  
    68   30   68 1  
    69   30   69 1  
    70   31   70 1  
    71   32   71 1  
    72   35   72 1  
    73   36   73 1  
    74   36   74 1  
    75   37   75 1  
    76   37   76 1  
    77   37   77 1  
    78   38   78 1  
    79   38   79 1  
    80   38   80 1  
@<TRIPOS>SUBSTRUCTURE
     1 SER         1

