### 
### Created by X-TOOL on Mon Sep 10 21:13:31 2018
### 

@<TRIPOS>MOLECULE
5gmm_ligand
   41    43     1     0     0
SMALL
GAST_HUCK


@<TRIPOS>ATOM
      1 C15        -3.3290    1.1940  -29.4470 C.ar      1 949        -0.0288
      2 C16        -3.9420    1.9510  -28.4510 C.ar      1 949         0.1129
      3 C13        -3.2300    3.1030  -30.9020 C.ar      1 949         0.0324
      4 C17        -4.1650    3.3090  -28.6650 C.ar      1 949        -0.0288
      5 C11        -1.9290    4.5070  -34.1160 C.2       1 949         0.1628
      6 C10        -1.6210    5.6190  -33.1610 C.3       1 949         0.1495
      7 C2         -4.3010    1.7080  -34.1330 C.ar      1 949        -0.0299
      8 C1         -4.6150    0.5480  -34.8120 C.ar      1 949         0.1262
      9 C6         -3.6490   -0.1720  -35.5120 C.ar      1 949        -0.0342
     10 C5         -2.3470    0.3010  -35.5200 C.ar      1 949        -0.0697
     11 C4         -2.0290    1.4700  -34.8400 C.ar      1 949        -0.0669
     12 C3         -3.0030    2.1700  -34.1470 C.ar      1 949        -0.0294
     13 C14        -2.9670    1.7630  -30.6690 C.ar      1 949        -0.0411
     14 C8         -2.7980    3.7990  -32.1640 C.2       1 949         0.1327
     15 C7         -2.6250    3.4280  -33.4350 C.2       1 949         0.0633
     16 C18        -3.8110    3.8740  -29.8890 C.ar      1 949        -0.0411
     17 C24        -0.1210    5.7430  -32.9070 C.3       1 949        -0.0266
     18 C23        -2.2670    6.9100  -33.6330 C.3       1 949        -0.0266
     19 F25        -5.8760    0.1220  -34.7780 F         1 949        -0.1852
     20 O12        -1.6630    4.5370  -35.3040 O.2       1 949        -0.3519
     21 O9         -2.2690    5.1360  -31.9900 O.3       1 949        -0.2892
     22 S19        -4.3120    1.2940  -27.0320 S.o2      1 949         0.0680
     23 O21        -3.0790    1.2640  -26.3390 O.2       1 949        -0.1499
     24 N22        -4.8620   -0.2100  -27.1410 N.am      1 949        -0.2604
     25 O20        -5.2550    2.1170  -26.3150 O.2       1 949        -0.1499
     26 H1         -3.1294    0.1434  -29.2696 H         1 949         0.0651
     27 H2         -4.6093    3.9202  -27.8877 H         1 949         0.0651
     28 H3         -5.0688    2.2507  -33.5935 H         1 949         0.0548
     29 H4         -3.9107   -1.0825  -36.0389 H         1 949         0.0555
     30 H5         -1.5766   -0.2408  -36.0566 H         1 949         0.0592
     31 H6         -1.0093    1.8377  -34.8518 H         1 949         0.0533
     32 H7         -2.4837    1.1609  -31.4300 H         1 949         0.0674
     33 H8         -3.9890    4.9297  -30.0593 H         1 949         0.0674
     34 H9          0.0647    6.5676  -32.2031 H         1 949         0.0245
     35 H10         0.3959    5.9477  -33.8561 H         1 949         0.0245
     36 H11         0.2573    4.8031  -32.4787 H         1 949         0.0245
     37 H12        -3.3424    6.7442  -33.7944 H         1 949         0.0245
     38 H13        -1.7999    7.2304  -34.5759 H         1 949         0.0245
     39 H14        -2.1267    7.6904  -32.8706 H         1 949         0.0245
     40 H15        -5.1208   -0.7089  -26.3139 H         1 949         0.1635
     41 H16        -4.9458   -0.6481  -28.0360 H         1 949         0.1635
@<TRIPOS>BOND
     1    1    2 ar 
     2   13    1 ar 
     3    4    2 ar 
     4    2   22 1  
     5    3   13 ar 
     6   14    3 1  
     7    3   16 ar 
     8   16    4 ar 
     9    5    6 1  
    10   15    5 1  
    11    5   20 2  
    12    6   17 1  
    13    6   18 1  
    14    6   21 1  
    15    7    8 ar 
    16   12    7 ar 
    17    8    9 ar 
    18    8   19 1  
    19   10    9 ar 
    20   11   10 ar 
    21   12   11 ar 
    22   15   12 1  
    23   14   15 2  
    24   14   21 1  
    25   22   23 2  
    26   22   24 am 
    27   22   25 2  
    28    1   26 1  
    29    4   27 1  
    30    7   28 1  
    31    9   29 1  
    32   10   30 1  
    33   11   31 1  
    34   13   32 1  
    35   16   33 1  
    36   17   34 1  
    37   17   35 1  
    38   17   36 1  
    39   18   37 1  
    40   18   38 1  
    41   18   39 1  
    42   24   40 1  
    43   24   41 1  
@<TRIPOS>SUBSTRUCTURE
     1 949         1

