### 
### Created by X-TOOL on Mon Sep 10 21:13:31 2018
### 

@<TRIPOS>MOLECULE
5gmn_ligand
   41    43     1     0     0
SMALL
GAST_HUCK


@<TRIPOS>ATOM
      1 C15         9.0460    1.1530   10.6980 C.ar      1 949        -0.0288
      2 C16        10.4040    1.2510   10.4170 C.ar      1 949         0.1129
      3 C13         9.4490    1.9170   12.9630 C.ar      1 949         0.0324
      4 C17        11.2760    1.7010   11.4080 C.ar      1 949        -0.0288
      5 C11         8.4490    3.1110   16.3710 C.2       1 949         0.1628
      6 C10         7.1570    3.3010   15.6340 C.3       1 949         0.1495
      7 C2         11.6150    3.5100   16.2930 C.ar      1 949        -0.0299
      8 C1         12.9470    3.3890   16.6780 C.ar      1 949         0.1262
      9 C6         13.5550    2.1370   16.6450 C.ar      1 949        -0.0342
     10 C5         12.8370    1.0150   16.2350 C.ar      1 949        -0.0697
     11 C4         11.5060    1.1420   15.8470 C.ar      1 949        -0.0669
     12 C3         10.8930    2.3870   15.8830 C.ar      1 949        -0.0294
     13 C14         8.5690    1.4960   11.9640 C.ar      1 949        -0.0411
     14 C8          8.8740    2.3240   14.2940 C.2       1 949         0.1327
     15 C7          9.4570    2.5520   15.4770 C.2       1 949         0.0633
     16 C18        10.8020    2.0370   12.6730 C.ar      1 949        -0.0411
     17 C24         6.0240    2.5470   16.3160 C.3       1 949        -0.0266
     18 C23         6.8510    4.7890   15.5160 C.3       1 949        -0.0266
     19 F25        13.6440    4.4790   17.0790 F         1 949        -0.1852
     20 O12         8.6180    3.3980   17.5500 O.2       1 949        -0.3519
     21 O9          7.4790    2.7060   14.3640 O.3       1 949        -0.2892
     22 S19        10.9750    0.9040    8.9550 S.o2      1 949         0.0680
     23 O21        10.5290    1.9580    8.0950 O.2       1 949        -0.1499
     24 N22        10.4330   -0.4960    8.4050 N.am      1 949        -0.2604
     25 O20        12.4140    0.8840    8.9920 O.2       1 949        -0.1499
     26 H1          8.3577    0.8102    9.9339 H         1 949         0.0651
     27 H2         12.3343    1.7901   11.1909 H         1 949         0.0651
     28 H3         11.1350    4.4818   16.3115 H         1 949         0.0548
     29 H4         14.5930    2.0342   16.9399 H         1 949         0.0555
     30 H5         13.3154    0.0424   16.2182 H         1 949         0.0592
     31 H6         10.9501    0.2715   15.5178 H         1 949         0.0533
     32 H7          7.5071    1.4351   12.1733 H         1 949         0.0674
     33 H8         11.4893    2.3925   13.4322 H         1 949         0.0674
     34 H9          5.0902    2.7033   15.7559 H         1 949         0.0245
     35 H10         5.9019    2.9197   17.3437 H         1 949         0.0245
     36 H11         6.2611    1.4732   16.3411 H         1 949         0.0245
     37 H12         7.6905    5.2977   15.0196 H         1 949         0.0245
     38 H13         6.7065    5.2144   16.5201 H         1 949         0.0245
     39 H14         5.9351    4.9291   14.9231 H         1 949         0.0245
     40 H15        10.7175   -0.8231    7.5038 H         1 949         0.1635
     41 H16         9.8095   -1.0445    8.9622 H         1 949         0.1635
@<TRIPOS>BOND
     1    1    2 ar 
     2   13    1 ar 
     3    4    2 ar 
     4    2   22 1  
     5    3   13 ar 
     6   14    3 1  
     7    3   16 ar 
     8   16    4 ar 
     9    5    6 1  
    10   15    5 1  
    11    5   20 2  
    12    6   17 1  
    13    6   18 1  
    14    6   21 1  
    15    7    8 ar 
    16   12    7 ar 
    17    8    9 ar 
    18    8   19 1  
    19   10    9 ar 
    20   11   10 ar 
    21   12   11 ar 
    22   15   12 1  
    23   14   15 2  
    24   14   21 1  
    25   22   23 2  
    26   22   24 am 
    27   22   25 2  
    28    1   26 1  
    29    4   27 1  
    30    7   28 1  
    31    9   29 1  
    32   10   30 1  
    33   11   31 1  
    34   13   32 1  
    35   16   33 1  
    36   17   34 1  
    37   17   35 1  
    38   17   36 1  
    39   18   37 1  
    40   18   38 1  
    41   18   39 1  
    42   24   40 1  
    43   24   41 1  
@<TRIPOS>SUBSTRUCTURE
     1 949         1

