### 
### Created by X-TOOL on Mon Sep 10 21:13:33 2018
### 

@<TRIPOS>MOLECULE
5gmp_ligand
   73    77     1     0     0
SMALL
GAST_HUCK


@<TRIPOS>ATOM
      1 C4         -0.5850  -52.2950  123.2460 C.ar      1 F62         0.1836
      2 C5         -1.1570  -53.2860  122.4780 C.ar      1 F62         0.0601
      3 C6         -1.9300  -54.2390  123.1000 C.ar      1 F62         0.0179
      4 N1         -2.0990  -54.1640  124.4610 N.ar      1 F62        -0.2623
      5 N3         -0.7730  -52.2710  124.5660 N.ar      1 F62        -0.2288
      6 CAR         6.3440  -51.1810  125.6800 C.3       1 F62        -0.0477
      7 CAS         6.1010  -49.7030  125.9070 C.3       1 F62         0.0403
      8 CBE         4.6270  -49.4120  125.6910 C.2       1 F62         0.2031
      9 OAF         4.0080  -48.6990  126.4650 O.2       1 F62        -0.3849
     10 NBA         4.0800  -49.9800  124.6270 N.am      1 F62        -0.2365
     11 CBG         2.7920  -49.7470  124.4280 C.ar      1 F62         0.0567
     12 CAO         2.0710  -50.6260  123.6530 C.ar      1 F62        -0.0120
     13 CAJ         2.1480  -48.6500  124.9720 C.ar      1 F62        -0.0526
     14 CAI         0.7950  -48.4540  124.7280 C.ar      1 F62        -0.0838
     15 CAK         0.0720  -49.3470  123.9480 C.ar      1 F62        -0.0460
     16 CBJ         0.7300  -50.4340  123.4090 C.ar      1 F62         0.0900
     17 NBS         0.1520  -51.3560  122.6590 N.am      1 F62        -0.1549
     18 CBM         0.3790  -51.3650  121.3480 C.2       1 F62         0.2227
     19 OAG         1.0730  -50.4950  120.8470 O.2       1 F62        -0.3983
     20 CAQ        -0.1730  -52.3300  120.5330 C.2       1 F62         0.0040
     21 CBF        -0.9540  -53.3110  121.1040 C.2       1 F62        -0.0259
     22 CAB        -1.5180  -54.2920  120.3100 C.3       1 F62        -0.0257
     23 C2         -1.5250  -53.1930  125.1590 C.ar      1 F62         0.1939
     24 NBB        -1.7310  -53.1890  126.4610 N.pl3     1 F62        -0.2522
     25 CBK        -1.2350  -52.2300  127.2060 C.ar      1 F62         0.0845
     26 CBL        -1.9330  -51.9750  128.3620 C.ar      1 F62         0.1053
     27 CAP        -1.5240  -51.0100  129.2430 C.ar      1 F62        -0.0238
     28 OBC        -3.0330  -52.7200  128.5730 O.3       1 F62        -0.3278
     29 CAA        -3.5490  -52.4850  129.8710 C.3       1 F62         0.0569
     30 CAM        -0.0880  -51.5340  126.8970 C.ar      1 F62        -0.0563
     31 CAL         0.3350  -50.5530  127.7830 C.ar      1 F62        -0.0639
     32 CBI        -0.3810  -50.3000  128.9430 C.ar      1 F62         0.0208
     33 NBR         0.0080  -49.3560  129.7920 N.pl3     1 F62        -0.3063
     34 CAV        -0.9750  -48.8570  130.7700 C.3       1 F62         0.0649
     35 CAT        -0.3240  -48.2980  131.9970 C.3       1 F62        -0.0123
     36 NBQ         0.7890  -47.4300  131.6330 N.4       1 F62         0.2358
     37 CAC         1.3340  -46.8510  132.8600 C.3       1 F62        -0.0430
     38 CAU         1.8290  -48.2460  131.0150 C.3       1 F62        -0.0123
     39 CAW         1.3630  -48.7980  129.6950 C.3       1 F62         0.0649
     40 H1         -2.3962  -55.0329  122.5277 H         1 F62         0.0906
     41 H2          7.4099  -51.4052  125.8337 H         1 F62         0.0254
     42 H3          6.0583  -51.4459  124.6513 H         1 F62         0.0254
     43 H4          5.7404  -51.7652  126.3902 H         1 F62         0.0254
     44 H5          6.7018  -49.1160  125.1968 H         1 F62         0.0505
     45 H6          6.3840  -49.4353  126.9357 H         1 F62         0.0505
     46 H7          4.6124  -50.5552  124.0059 H         1 F62         0.2253
     47 H8          2.5697  -51.4882  123.2254 H         1 F62         0.0419
     48 H9          2.6975  -47.9460  125.5864 H         1 F62         0.0411
     49 H10         0.2956  -47.5908  125.1529 H         1 F62         0.0550
     50 H11        -0.9857  -49.1937  123.7665 H         1 F62         0.0421
     51 H12         0.0048  -52.3172  119.4587 H         1 F62         0.0415
     52 H13        -2.1024  -54.9808  120.9378 H         1 F62         0.0427
     53 H14        -0.7218  -54.8505  119.7960 H         1 F62         0.0427
     54 H15        -2.1786  -53.8255  119.5644 H         1 F62         0.0427
     55 H16        -2.2837  -53.9420  126.8951 H         1 F62         0.2137
     56 H17        -2.0828  -50.8101  130.1501 H         1 F62         0.0410
     57 H18        -4.4468  -53.1015  130.0258 H         1 F62         0.0573
     58 H19        -3.8120  -51.4219  129.9741 H         1 F62         0.0573
     59 H20        -2.7890  -52.7492  130.6211 H         1 F62         0.0573
     60 H21         0.4672  -51.7455  125.9903 H         1 F62         0.0477
     61 H22         1.2303  -49.9814  127.5668 H         1 F62         0.0398
     62 H23        -1.6324  -49.6878  131.0659 H         1 F62         0.0563
     63 H24        -1.5746  -48.0658  130.2963 H         1 F62         0.0563
     64 H25         0.0502  -49.1256  132.6175 H         1 F62         0.0834
     65 H26        -1.0643  -47.7177  132.5673 H         1 F62         0.0834
     66 H27         0.4835  -46.7058  131.0019 H         1 F62         0.2032
     67 H28         2.1774  -46.1904  132.6105 H         1 F62         0.0778
     68 H29         1.6830  -47.6570  133.5223 H         1 F62         0.0778
     69 H30         0.5517  -46.2700  133.3703 H         1 F62         0.0778
     70 H31         2.0789  -49.0806  131.6865 H         1 F62         0.0834
     71 H32         2.7232  -47.6267  130.8511 H         1 F62         0.0834
     72 H33         1.3638  -47.9893  128.9494 H         1 F62         0.0563
     73 H34         2.0543  -49.5918  129.3758 H         1 F62         0.0563
@<TRIPOS>BOND
     1    1    2 ar 
     2    1    5 ar 
     3   17    1 1  
     4    2    3 ar 
     5    2   21 1  
     6    3    4 ar 
     7   23    4 ar 
     8    5   23 ar 
     9    7    6 1  
    10    8    7 1  
    11    8    9 2  
    12   10    8 am 
    13   11   10 1  
    14   12   11 ar 
    15   11   13 ar 
    16   16   12 ar 
    17   14   13 ar 
    18   15   14 ar 
    19   16   15 ar 
    20   16   17 1  
    21   17   18 am 
    22   18   19 2  
    23   18   20 1  
    24   20   21 2  
    25   21   22 1  
    26   23   24 1  
    27   24   25 1  
    28   25   26 ar 
    29   25   30 ar 
    30   26   27 ar 
    31   26   28 1  
    32   27   32 ar 
    33   28   29 1  
    34   30   31 ar 
    35   31   32 ar 
    36   32   33 1  
    37   33   34 1  
    38   33   39 1  
    39   34   35 1  
    40   35   36 1  
    41   36   37 1  
    42   36   38 1  
    43   38   39 1  
    44    3   40 1  
    45    6   41 1  
    46    6   42 1  
    47    6   43 1  
    48    7   44 1  
    49    7   45 1  
    50   10   46 1  
    51   12   47 1  
    52   13   48 1  
    53   14   49 1  
    54   15   50 1  
    55   20   51 1  
    56   22   52 1  
    57   22   53 1  
    58   22   54 1  
    59   24   55 1  
    60   27   56 1  
    61   29   57 1  
    62   29   58 1  
    63   29   59 1  
    64   30   60 1  
    65   31   61 1  
    66   34   62 1  
    67   34   63 1  
    68   35   64 1  
    69   35   65 1  
    70   36   66 1  
    71   37   67 1  
    72   37   68 1  
    73   37   69 1  
    74   38   70 1  
    75   38   71 1  
    76   39   72 1  
    77   39   73 1  
@<TRIPOS>SUBSTRUCTURE
     1 F62         1

