### 
### Created by X-TOOL on Fri Nov  2 10:50:06 2018
### 

@<TRIPOS>MOLECULE
5gmu_ligand
   44    45     1     0     0
SMALL
GAST_HUCK


@<TRIPOS>ATOM
      1 CAX         3.8850    7.7790    6.3560 C.ar      1 MOL        -0.0399
      2 CAV         4.7020    8.8070    6.7980 C.ar      1 MOL         0.1098
      3 OAW         5.8530    9.1590    6.0790 O.3       1 MOL        -0.3385
      4 CAT         4.4410    9.4370    8.0060 C.ar      1 MOL         0.1088
      5 OAU         5.2990   10.4370    8.4660 O.3       1 MOL        -0.3414
      6 CAS         3.3380    9.0750    8.7630 C.ar      1 MOL        -0.0482
      7 CAR         2.4950    8.0720    8.3200 C.ar      1 MOL        -0.0800
      8 CAQ         2.7600    7.4170    7.1270 C.ar      1 MOL        -0.0603
      9 CAP         1.7420    6.3590    6.7380 C.3       1 MOL        -0.0084
     10 CAO         2.0060    5.7390    5.4010 C.3       1 MOL         0.0567
     11 CAM         0.9270    4.7720    4.9660 C.2       1 MOL         0.2358
     12 OAN        -0.1060    4.5450    5.5240 O.2       1 MOL        -0.3702
     13 OAL         1.2390    4.0750    3.8280 O.3       1 MOL        -0.2707
     14 CAK         0.3480    3.0580    3.4020 C.3       1 MOL         0.1179
     15 CAY         0.4080    1.8850    4.4100 C.3       1 MOL         0.0142
     16 CAD         1.7640    1.2320    4.4740 C.3       1 MOL         0.1154
     17 CAB         1.6540    0.0460    5.4220 C.2       1 MOL         0.0764
     18 OAC         0.6430   -0.8380    5.2540 O.co2     1 MOL        -0.5451
     19 OAA         2.6250   -0.1330    6.3580 O.co2     1 MOL        -0.5451
     20 OAE         2.6890    2.1280    5.0300 O.3       1 MOL        -0.3847
     21 CAF         2.2260    0.7250    3.0820 C.3       1 MOL         0.0095
     22 CAG         2.2720    1.9460    2.1500 C.3       1 MOL         0.0860
     23 OAH         2.6540    1.5640    0.8270 O.3       1 MOL        -0.3891
     24 CAI         0.9010    2.5830    2.0430 C.3       1 MOL         0.1114
     25 OAJ         1.0130    3.7080    1.2050 O.3       1 MOL        -0.3863
     26 H1          4.1070    7.2599    5.4306 H         1 MOL         0.0450
     27 H2          6.2925    9.8772    6.5189 H         1 MOL         0.2442
     28 H3          4.9834   10.7645    9.3000 H         1 MOL         0.2420
     29 H4          3.1361    9.5777    9.7019 H         1 MOL         0.0492
     30 H5          1.6256    7.7975    8.9065 H         1 MOL         0.0436
     31 H6          0.7463    6.8258    6.7147 H         1 MOL         0.0429
     32 H7          1.7570    5.5649    7.4990 H         1 MOL         0.0429
     33 H8          2.9617    5.1965    5.4503 H         1 MOL         0.0538
     34 H9          2.0781    6.5415    4.6521 H         1 MOL         0.0538
     35 H10        -0.6803    3.4369    3.3075 H         1 MOL         0.0676
     36 H11        -0.3318    1.1278    4.1110 H         1 MOL         0.0315
     37 H12         0.1564    2.2688    5.4097 H         1 MOL         0.0315
     38 H13         2.7802    2.8820    4.4593 H         1 MOL         0.2089
     39 H14         1.5133   -0.0184    2.6953 H         1 MOL         0.0311
     40 H15         3.2248    0.2705    3.1582 H         1 MOL         0.0311
     41 H16         2.9925    2.6751    2.5492 H         1 MOL         0.0620
     42 H17         2.6755    2.3334    0.2702 H         1 MOL         0.2099
     43 H18         0.2011    1.8555    1.6061 H         1 MOL         0.0649
     44 H19         1.3173    3.4339    0.3478 H         1 MOL         0.2100
@<TRIPOS>BOND
     1    1    2 ar 
     2    1    8 ar 
     3    2    3 1  
     4    2    4 ar 
     5    4    5 1  
     6    4    6 ar 
     7    6    7 ar 
     8    7    8 ar 
     9    8    9 1  
    10    9   10 1  
    11   10   11 1  
    12   11   12 2  
    13   11   13 1  
    14   13   14 1  
    15   14   15 1  
    16   14   24 1  
    17   15   16 1  
    18   16   17 1  
    19   16   20 1  
    20   16   21 1  
    21   17   18 ar 
    22   17   19 ar 
    23   21   22 1  
    24   22   23 1  
    25   22   24 1  
    26   24   25 1  
    27    1   26 1  
    28    3   27 1  
    29    5   28 1  
    30    6   29 1  
    31    7   30 1  
    32    9   31 1  
    33    9   32 1  
    34   10   33 1  
    35   10   34 1  
    36   14   35 1  
    37   15   36 1  
    38   15   37 1  
    39   20   38 1  
    40   21   39 1  
    41   21   40 1  
    42   22   41 1  
    43   23   42 1  
    44   24   43 1  
    45   25   44 1  
@<TRIPOS>SUBSTRUCTURE
     1 MOL         1

