### 
### Created by X-TOOL on Fri Nov  2 10:50:07 2018
### 

@<TRIPOS>MOLECULE
5gn5_ligand
   50    53     1     0     0
SMALL
GAST_HUCK


@<TRIPOS>ATOM
      1 CAA        35.2190    9.2950   -1.2170 C.3       1 MOL         0.0565
      2 OAQ        36.6510    9.4000   -1.4770 O.3       1 MOL        -0.3297
      3 CAS        37.4850    9.0980   -0.4290 C.ar      1 MOL         0.0773
      4 CAF        38.4200    8.0570   -0.5020 C.ar      1 MOL        -0.0443
      5 CAH        39.2570    7.7770    0.5910 C.ar      1 MOL        -0.0524
      6 CAE        37.4050    9.8520    0.7420 C.ar      1 MOL        -0.0443
      7 CAG        38.2340    9.5710    1.8290 C.ar      1 MOL        -0.0524
      8 CAU        39.1880    8.5370    1.7870 C.ar      1 MOL         0.0295
      9 NBB        39.9660    8.2850    2.8970 N.pl3     1 MOL        -0.3108
     10 CAO        40.2420    6.8480    3.2780 C.3       1 MOL         0.0447
     11 CAM        41.4350    6.7520    4.2460 C.3       1 MOL         0.0452
     12 CAN        40.5250    9.3650    3.8030 C.3       1 MOL         0.0447
     13 CAL        40.6890    8.8530    5.3180 C.3       1 MOL         0.0452
     14 NBA        40.9090    7.3950    5.4370 N.pl3     1 MOL        -0.3172
     15 CAP        41.8880    7.1310    6.5460 C.2       1 MOL        -0.0030
     16 CAV        41.5240    6.0450    7.4860 C.2       1 MOL        -0.0332
     17 CAK        40.3660    5.2310    7.3670 C.3       1 MOL         0.0677
     18 CAX        40.0240    4.1940    8.2410 C.2       1 MOL         0.2583
     19 OAB        38.9710    3.5920    8.0230 O.2       1 MOL        -0.3628
     20 OAR        40.8520    3.8780    9.2780 O.3       1 MOL        -0.2219
     21 CAZ        42.0390    4.5800    9.4050 C.ar      1 MOL         0.1442
     22 CAY        42.3850    5.6580    8.5480 C.ar      1 MOL        -0.0225
     23 CAJ        43.6340    6.2760    8.7850 C.ar      1 MOL        -0.0887
     24 CAI        44.4990    5.8820    9.8130 C.ar      1 MOL        -0.0565
     25 CAT        44.1370    4.8340   10.6370 C.ar      1 MOL         0.1041
     26 OAC        44.9630    4.4300   11.6390 O.3       1 MOL        -0.3427
     27 CAW        42.9010    4.1860   10.4230 C.ar      1 MOL         0.1444
     28 OAD        42.4840    3.1500   11.2000 O.3       1 MOL        -0.3427
     29 H1         34.6607    9.5603   -2.1269 H         1 MOL         0.0572
     30 H2         34.9426    9.9823   -0.4039 H         1 MOL         0.0572
     31 H3         34.9741    8.2633   -0.9243 H         1 MOL         0.0572
     32 H4         38.4979    7.4646   -1.4065 H         1 MOL         0.0511
     33 H5         39.9701    6.9637    0.5191 H         1 MOL         0.0490
     34 H6         36.6911   10.6650    0.8083 H         1 MOL         0.0511
     35 H7         38.1406   10.1655    2.7306 H         1 MOL         0.0490
     36 H8         40.4697    6.2724    2.3687 H         1 MOL         0.0529
     37 H9         39.3496    6.4273    3.7645 H         1 MOL         0.0529
     38 H10        42.3113    7.2900    3.8552 H         1 MOL         0.0538
     39 H11        41.7060    5.7044    4.4439 H         1 MOL         0.0538
     40 H12        39.8421   10.2273    3.7913 H         1 MOL         0.0529
     41 H13        41.5105    9.6725    3.4232 H         1 MOL         0.0529
     42 H14        39.7746    9.1117    5.8720 H         1 MOL         0.0538
     43 H15        41.5490    9.3709    5.7675 H         1 MOL         0.0538
     44 H16        42.8087    7.7028    6.6523 H         1 MOL         0.0782
     45 H17        40.4344    4.7664    6.3723 H         1 MOL         0.0600
     46 H18        39.5142    5.9267    7.3890 H         1 MOL         0.0600
     47 H19        43.9363    7.0935    8.1405 H         1 MOL         0.0417
     48 H20        45.4430    6.3940    9.9608 H         1 MOL         0.0423
     49 H21        44.5635    3.7043   12.1040 H         1 MOL         0.2426
     50 H22        43.1099    2.4380   11.1391 H         1 MOL         0.2400
@<TRIPOS>BOND
     1    1    2 1  
     2    2    3 1  
     3    3    4 ar 
     4    3    6 ar 
     5    4    5 ar 
     6    5    8 ar 
     7    6    7 ar 
     8    7    8 ar 
     9    8    9 1  
    10    9   10 1  
    11    9   12 1  
    12   10   11 1  
    13   11   14 1  
    14   12   13 1  
    15   13   14 1  
    16   14   15 1  
    17   15   16 2  
    18   16   17 1  
    19   16   22 1  
    20   17   18 1  
    21   18   19 2  
    22   18   20 1  
    23   20   21 1  
    24   21   22 ar 
    25   21   27 ar 
    26   22   23 ar 
    27   23   24 ar 
    28   24   25 ar 
    29   25   26 1  
    30   25   27 ar 
    31   27   28 1  
    32    1   29 1  
    33    1   30 1  
    34    1   31 1  
    35    4   32 1  
    36    5   33 1  
    37    6   34 1  
    38    7   35 1  
    39   10   36 1  
    40   10   37 1  
    41   11   38 1  
    42   11   39 1  
    43   12   40 1  
    44   12   41 1  
    45   13   42 1  
    46   13   43 1  
    47   15   44 1  
    48   17   45 1  
    49   17   46 1  
    50   23   47 1  
    51   24   48 1  
    52   26   49 1  
    53   28   50 1  
@<TRIPOS>SUBSTRUCTURE
     1 MOL         1

