### 
### Created by X-TOOL on Fri Nov  2 10:50:08 2018
### 

@<TRIPOS>MOLECULE
5gn6_ligand
   31    32     1     0     0
SMALL
GAST_HUCK


@<TRIPOS>ATOM
      1 CAA        -7.6620    5.3700   33.9460 C.3       1 MOL        -0.0651
      2 CAH        -6.1860    5.7880   34.1790 C.3       1 MOL        -0.0537
      3 CAI        -5.3590    5.5470   32.9130 C.3       1 MOL        -0.0409
      4 CAJ        -3.8630    5.4130   33.2450 C.3       1 MOL        -0.0136
      5 CAM        -3.0840    5.7430   32.0950 C.2       1 MOL        -0.0307
      6 CAG        -2.3330    6.9380   32.0940 C.2       1 MOL         0.0064
      7 CAO        -1.5580    7.3280   30.9830 C.2       1 MOL         0.2417
      8 OAB        -0.9460    8.3910   31.0480 O.2       1 MOL        -0.3890
      9 OAK        -1.4260    6.5140   29.9000 O.3       1 MOL        -0.2205
     10 CAQ        -2.0900    5.3140   29.8910 C.ar      1 MOL         0.1639
     11 CAP        -2.9410    4.9040   30.9580 C.ar      1 MOL         0.0154
     12 CAF        -3.5860    3.6430   30.8170 C.ar      1 MOL        -0.0700
     13 CAE        -3.3920    2.8440   29.6800 C.ar      1 MOL        -0.0432
     14 CAL        -2.5500    3.2600   28.6470 C.ar      1 MOL         0.1165
     15 OAC        -2.3490    2.4840   27.5480 O.3       1 MOL        -0.3354
     16 CAN        -1.8890    4.5080   28.7600 C.ar      1 MOL         0.1579
     17 OAD        -1.0540    4.9950   27.7920 O.3       1 MOL        -0.3401
     18 H1         -8.2428    5.5487   34.8629 H         1 MOL         0.0230
     19 H2         -7.7041    4.3016   33.6877 H         1 MOL         0.0230
     20 H3         -8.0855    5.9634   33.1223 H         1 MOL         0.0230
     21 H4         -5.7668    5.1943   35.0047 H         1 MOL         0.0265
     22 H5         -6.1481    6.8561   34.4392 H         1 MOL         0.0265
     23 H6         -5.4997    6.3940   32.2254 H         1 MOL         0.0292
     24 H7         -5.7039    4.6211   32.4296 H         1 MOL         0.0292
     25 H8         -3.6469    4.3780   33.5484 H         1 MOL         0.0467
     26 H9         -3.6082    6.0971   34.0679 H         1 MOL         0.0467
     27 H10        -2.3528    7.5765   32.9760 H         1 MOL         0.0412
     28 H11        -4.2417    3.2921   31.6056 H         1 MOL         0.0524
     29 H12        -3.9027    1.8910   29.6026 H         1 MOL         0.0465
     30 H13        -1.7510    2.9246   26.9557 H         1 MOL         0.2463
     31 H14        -0.3320    4.3908   27.6649 H         1 MOL         0.2403
@<TRIPOS>BOND
     1    1    2 1  
     2    2    3 1  
     3    3    4 1  
     4    4    5 1  
     5    5    6 2  
     6    5   11 1  
     7    6    7 1  
     8    7    8 2  
     9    7    9 1  
    10    9   10 1  
    11   10   11 ar 
    12   10   16 ar 
    13   11   12 ar 
    14   12   13 ar 
    15   13   14 ar 
    16   14   15 1  
    17   14   16 ar 
    18   16   17 1  
    19    1   18 1  
    20    1   19 1  
    21    1   20 1  
    22    2   21 1  
    23    2   22 1  
    24    3   23 1  
    25    3   24 1  
    26    4   25 1  
    27    4   26 1  
    28    6   27 1  
    29   12   28 1  
    30   13   29 1  
    31   15   30 1  
    32   17   31 1  
@<TRIPOS>SUBSTRUCTURE
     1 MOL         1

