### 
### Created by X-TOOL on Fri Nov  2 10:50:08 2018
### 

@<TRIPOS>MOLECULE
5gn7_ligand
   51    54     1     0     0
SMALL
GAST_HUCK


@<TRIPOS>ATOM
      1 CAA        -8.1720   19.8690   31.3140 C.3       1 MOL         0.0565
      2 OAQ        -6.7290   19.9100   31.2940 O.3       1 MOL        -0.3297
      3 CAS        -6.0770   20.8950   31.9930 C.ar      1 MOL         0.0773
      4 CAF        -4.8640   21.4380   31.5260 C.ar      1 MOL        -0.0443
      5 CAH        -4.1820   22.4480   32.2380 C.ar      1 MOL        -0.0524
      6 CAE        -6.5860   21.3620   33.2000 C.ar      1 MOL        -0.0443
      7 CAG        -5.9030   22.3590   33.8910 C.ar      1 MOL        -0.0524
      8 CAU        -4.6940   22.9260   33.4570 C.ar      1 MOL         0.0297
      9 NBB        -4.1120   23.9030   34.2280 N.pl3     1 MOL        -0.3045
     10 CAO        -4.1270   23.8440   35.7430 C.3       1 MOL         0.0649
     11 CAM        -2.8680   24.3220   36.4860 C.3       1 MOL        -0.0103
     12 CAN        -3.6020   25.1340   33.6470 C.3       1 MOL         0.0649
     13 CAL        -2.5270   25.7400   34.5940 C.3       1 MOL        -0.0103
     14 NBA        -1.8670   24.7410   35.4850 N.4       1 MOL         0.2527
     15 CAP        -0.6530   25.3830   35.9990 C.3       1 MOL         0.0072
     16 CAV         0.1470   24.6310   36.9300 C.2       1 MOL         0.0137
     17 CAK         0.0350   25.0280   38.2560 C.2       1 MOL         0.0115
     18 CAX         0.8040   24.4260   39.2380 C.2       1 MOL         0.2419
     19 OAB         0.5760   24.8650   40.3560 O.2       1 MOL        -0.3890
     20 OAR         1.6800   23.3700   38.9720 O.3       1 MOL        -0.2205
     21 CAZ         1.8660   22.9650   37.6480 C.ar      1 MOL         0.1641
     22 CAY         1.0990   23.6020   36.6200 C.ar      1 MOL         0.0204
     23 CAJ         1.3440   23.1590   35.2970 C.ar      1 MOL        -0.0698
     24 CAI         2.2690   22.1430   34.9750 C.ar      1 MOL        -0.0432
     25 CAT         3.0080   21.5210   35.9950 C.ar      1 MOL         0.1165
     26 OAC         3.9270   20.5410   35.7290 O.3       1 MOL        -0.3354
     27 CAW         2.8120   21.9240   37.3370 C.ar      1 MOL         0.1579
     28 OAD         3.5540   21.2950   38.3160 O.3       1 MOL        -0.3401
     29 H1         -8.5232   19.0223   30.7059 H         1 MOL         0.0572
     30 H2         -8.5713   20.8073   30.9014 H         1 MOL         0.0572
     31 H3         -8.5210   19.7461   32.3499 H         1 MOL         0.0572
     32 H4         -4.4438   21.0710   30.5966 H         1 MOL         0.0511
     33 H5         -3.2591   22.8571   31.8431 H         1 MOL         0.0490
     34 H6         -7.5070   20.9530   33.5995 H         1 MOL         0.0511
     35 H7         -6.3302   22.7192   34.8199 H         1 MOL         0.0490
     36 H8         -4.3008   22.7964   36.0300 H         1 MOL         0.0562
     37 H9         -4.9680   24.4632   36.0883 H         1 MOL         0.0562
     38 H10        -2.4624   23.5013   37.0958 H         1 MOL         0.0834
     39 H11        -3.1209   25.1720   37.1367 H         1 MOL         0.0834
     40 H12        -4.4269   25.8506   33.5208 H         1 MOL         0.0562
     41 H13        -3.1500   24.9188   32.6675 H         1 MOL         0.0562
     42 H14        -3.0115   26.4992   35.2256 H         1 MOL         0.0834
     43 H15        -1.7519   26.2171   33.9763 H         1 MOL         0.0834
     44 H16        -1.5943   23.9282   34.9549 H         1 MOL         0.2054
     45 H17        -0.9581   26.3129   36.5012 H         1 MOL         0.1024
     46 H18        -0.0158   25.6246   35.1355 H         1 MOL         0.1024
     47 H19        -0.6631   25.8190   38.5259 H         1 MOL         0.0414
     48 H20         0.7917   23.6251   34.4891 H         1 MOL         0.0524
     49 H21         2.4090   21.8432   33.9427 H         1 MOL         0.0465
     50 H22         4.3195   20.2472   36.5427 H         1 MOL         0.2463
     51 H23         4.4789   21.4327   38.1483 H         1 MOL         0.2403
@<TRIPOS>BOND
     1    1    2 1  
     2    2    3 1  
     3    3    4 ar 
     4    3    6 ar 
     5    4    5 ar 
     6    5    8 ar 
     7    6    7 ar 
     8    7    8 ar 
     9    8    9 1  
    10    9   10 1  
    11    9   12 1  
    12   10   11 1  
    13   11   14 1  
    14   12   13 1  
    15   13   14 1  
    16   14   15 1  
    17   15   16 1  
    18   16   17 2  
    19   16   22 1  
    20   17   18 1  
    21   18   19 2  
    22   18   20 1  
    23   20   21 1  
    24   21   22 ar 
    25   21   27 ar 
    26   22   23 ar 
    27   23   24 ar 
    28   24   25 ar 
    29   25   26 1  
    30   25   27 ar 
    31   27   28 1  
    32    1   29 1  
    33    1   30 1  
    34    1   31 1  
    35    4   32 1  
    36    5   33 1  
    37    6   34 1  
    38    7   35 1  
    39   10   36 1  
    40   10   37 1  
    41   11   38 1  
    42   11   39 1  
    43   12   40 1  
    44   12   41 1  
    45   13   42 1  
    46   13   43 1  
    47   14   44 1  
    48   15   45 1  
    49   15   46 1  
    50   17   47 1  
    51   23   48 1  
    52   24   49 1  
    53   26   50 1  
    54   28   51 1  
@<TRIPOS>SUBSTRUCTURE
     1 MOL         1

