### 
### Created by X-TOOL on Fri Nov  2 10:50:08 2018
### 

@<TRIPOS>MOLECULE
5gn9_ligand
   31    32     1     0     0
SMALL
GAST_HUCK


@<TRIPOS>ATOM
      1 CAA        26.1050   14.3320   79.0270 C.3       1 MOL        -0.0651
      2 CAH        24.7960   14.7360   78.3220 C.3       1 MOL        -0.0537
      3 CAI        24.3370   13.5810   77.3960 C.3       1 MOL        -0.0409
      4 CAJ        23.1380   14.0340   76.5360 C.3       1 MOL        -0.0136
      5 CAM        22.4170   12.9440   76.0060 C.2       1 MOL        -0.0307
      6 CAG        22.5720   12.6290   74.6590 C.2       1 MOL         0.0064
      7 CAO        21.8510   11.5610   74.0860 C.2       1 MOL         0.2417
      8 OAB        22.0870   11.2470   72.9150 O.2       1 MOL        -0.3890
      9 OAK        20.8760   10.9090   74.7930 O.3       1 MOL        -0.2205
     10 CAQ        20.6810   11.2180   76.1120 C.ar      1 MOL         0.1639
     11 CAP        21.4550   12.2260   76.7380 C.ar      1 MOL         0.0154
     12 CAF        21.2210   12.4360   78.1230 C.ar      1 MOL        -0.0700
     13 CAE        20.2310   11.7020   78.8270 C.ar      1 MOL        -0.0432
     14 CAL        19.4590   10.7350   78.1670 C.ar      1 MOL         0.1165
     15 OAC        18.4970   10.0060   78.7700 O.3       1 MOL        -0.3354
     16 CAN        19.6860   10.5020   76.8170 C.ar      1 MOL         0.1579
     17 OAD        18.9320    9.5560   76.1930 O.3       1 MOL        -0.3401
     18 H1         26.4342   15.1494   79.6854 H         1 MOL         0.0230
     19 H2         26.8811   14.1331   78.2733 H         1 MOL         0.0230
     20 H3         25.9343   13.4251   79.6257 H         1 MOL         0.0230
     21 H4         24.9659   15.6425   77.7225 H         1 MOL         0.0265
     22 H5         24.0190   14.9345   79.0749 H         1 MOL         0.0265
     23 H6         24.0386   12.7189   78.0105 H         1 MOL         0.0292
     24 H7         25.1684   13.2911   76.7367 H         1 MOL         0.0292
     25 H8         23.5117   14.6489   75.7040 H         1 MOL         0.0467
     26 H9         22.4614   14.6351   77.1611 H         1 MOL         0.0467
     27 H10        23.2553   13.2117   74.0430 H         1 MOL         0.0412
     28 H11        21.8117   13.1734   78.6543 H         1 MOL         0.0524
     29 H12        20.0705   11.8902   79.8824 H         1 MOL         0.0465
     30 H13        18.1051    9.4157   78.1372 H         1 MOL         0.2463
     31 H14        19.1889    9.4993   75.2802 H         1 MOL         0.2403
@<TRIPOS>BOND
     1    1    2 1  
     2    2    3 1  
     3    3    4 1  
     4    4    5 1  
     5    5    6 2  
     6    5   11 1  
     7    6    7 1  
     8    7    8 2  
     9    7    9 1  
    10    9   10 1  
    11   10   11 ar 
    12   10   16 ar 
    13   11   12 ar 
    14   12   13 ar 
    15   13   14 ar 
    16   14   15 1  
    17   14   16 ar 
    18   16   17 1  
    19    1   18 1  
    20    1   19 1  
    21    1   20 1  
    22    2   21 1  
    23    2   22 1  
    24    3   23 1  
    25    3   24 1  
    26    4   25 1  
    27    4   26 1  
    28    6   27 1  
    29   12   28 1  
    30   13   29 1  
    31   15   30 1  
    32   17   31 1  
@<TRIPOS>SUBSTRUCTURE
     1 MOL         1

