### 
### Created by X-TOOL on Mon Sep 10 21:13:31 2018
### 

@<TRIPOS>MOLECULE
5gnk_ligand
   62    66     1     0     0
SMALL
GAST_HUCK


@<TRIPOS>ATOM
      1 C4         26.1190   12.8390   38.8090 C.ar      1 80U         0.1626
      2 C5         27.2750   13.2070   39.3550 C.ar      1 80U         0.0856
      3 C6         27.7390   14.4490   39.2150 C.ar      1 80U         0.1272
      4 N1         27.0630   15.3740   38.5230 N.ar      1 80U        -0.2657
      5 N3         25.3870   13.7120   38.1020 N.ar      1 80U        -0.2677
      6 C2         25.8460   15.0210   37.9380 C.ar      1 80U         0.0564
      7 CAA        34.6550   13.3190   43.0800 C.3       1 80U         0.0463
      8 CAH        35.5490   11.6950   39.9980 C.2       1 80U        -0.0365
      9 CAJ        29.7650   11.0010   40.2890 C.ar      1 80U        -0.0612
     10 CAK        30.9300   10.8240   41.0280 C.ar      1 80U        -0.0305
     11 CAL        35.6450   12.7140   40.8530 C.2       1 80U         0.0277
     12 CAM        29.0630   12.7360   41.7990 C.ar      1 80U        -0.0474
     13 CAN        22.4890    9.9750   39.4700 C.3       1 80U        -0.0297
     14 CAO        24.2150    6.9150   34.8690 C.3       1 80U        -0.0482
     15 CAP        24.8050    7.5520   36.1300 C.3       1 80U         0.0346
     16 CAQ        23.7190   10.7810   39.8360 C.3       1 80U        -0.0178
     17 CAR        22.8990    8.5350   39.2880 C.3       1 80U         0.0341
     18 CAS        33.2970   10.5960   42.5990 C.3       1 80U         0.1464
     19 CAU        25.1250    9.3270   38.3410 C.3       1 80U         0.0651
     20 CBB        23.7240    7.6040   37.2140 C.2       1 80U         0.1783
     21 CBD        30.2280   12.5630   42.5410 C.ar      1 80U         0.0697
     22 CBE        28.8330   11.9620   40.6650 C.ar      1 80U        -0.0170
     23 CBF        31.1610   11.6090   42.1580 C.ar      1 80U         0.1105
     24 CBG        34.2880   11.2860   41.6620 C.2       1 80U         0.1454
     25 CBH        27.7120   12.1120   39.9600 C.2       1 80U         0.0654
     26 CBL        24.7420   10.7620   38.7040 C.3       1 80U         0.1007
     27 NAB        28.9030   14.7240   39.7950 N.pl3     1 80U        -0.3126
     28 NAW        34.7020   10.8000   40.4990 N.2       1 80U        -0.3366
     29 NAY        26.8280   11.1380   39.7740 N.2       1 80U        -0.1983
     30 NBM        23.9270    8.4540   38.2360 N.am      1 80U        -0.2703
     31 NBN        34.8560   12.4600   41.8940 N.pl3     1 80U        -0.2512
     32 NBO        25.9220   11.5540   39.1100 N.pl3     1 80U        -0.1805
     33 OAE        22.7280    6.8890   37.1280 O.2       1 80U        -0.3969
     34 OAZ        32.2670   11.5280   42.9670 O.3       1 80U        -0.2969
     35 CLA        30.5310   13.5260   43.9450 Cl        1 80U        -0.0783
     36 H1         25.2715   15.7444   37.3707 H         1 80U         0.1030
     37 H2         35.2646   14.2293   42.9810 H         1 80U         0.0581
     38 H3         34.9578   12.7716   43.9848 H         1 80U         0.0581
     39 H4         33.5931   13.5955   43.1568 H         1 80U         0.0581
     40 H5         36.0758   11.6099   39.0487 H         1 80U         0.0408
     41 H6         29.5826   10.3863   39.4150 H         1 80U         0.0599
     42 H7         31.6566   10.0781   40.7267 H         1 80U         0.0548
     43 H8         36.2627   13.6012   40.7218 H         1 80U         0.0796
     44 H9         28.3324   13.4759   42.1053 H         1 80U         0.0603
     45 H10        22.0581   10.3595   38.5338 H         1 80U         0.0286
     46 H11        21.7430   10.0497   40.2749 H         1 80U         0.0286
     47 H12        24.9850    6.8735   34.0845 H         1 80U         0.0254
     48 H13        23.3650    7.5179   34.5169 H         1 80U         0.0254
     49 H14        23.8712    5.8959   35.0995 H         1 80U         0.0254
     50 H15        25.1483    8.5719   35.9021 H         1 80U         0.0500
     51 H16        25.6544    6.9498   36.4847 H         1 80U         0.0500
     52 H17        24.1749   10.3511   40.7400 H         1 80U         0.0296
     53 H18        23.4215   11.8212   40.0345 H         1 80U         0.0296
     54 H19        22.0236    7.9374   38.9938 H         1 80U         0.0522
     55 H20        23.3076    8.1465   40.2325 H         1 80U         0.0522
     56 H21        33.8226   10.2530   43.5024 H         1 80U         0.0854
     57 H22        32.8464    9.7330   42.0870 H         1 80U         0.0854
     58 H23        25.7916    8.9271   39.1193 H         1 80U         0.0553
     59 H24        25.6504    9.3307   37.3746 H         1 80U         0.0553
     60 H25        24.2940   11.2323   37.8162 H         1 80U         0.0680
     61 H26        29.3065   15.6685   39.7177 H         1 80U         0.1842
     62 H27        29.4015   13.9926   40.3217 H         1 80U         0.1842
@<TRIPOS>BOND
     1    1    2 ar 
     2    1    5 ar 
     3   32    1 1  
     4    2    3 ar 
     5    2   25 1  
     6    3    4 ar 
     7    3   27 1  
     8    6    4 ar 
     9    5    6 ar 
    10   31    7 1  
    11   11    8 2  
    12   28    8 1  
    13    9   10 ar 
    14   22    9 ar 
    15   10   23 ar 
    16   31   11 1  
    17   12   21 ar 
    18   22   12 ar 
    19   16   13 1  
    20   13   17 1  
    21   15   14 1  
    22   20   15 1  
    23   26   16 1  
    24   30   17 1  
    25   18   24 1  
    26   34   18 1  
    27   26   19 1  
    28   19   30 1  
    29   30   20 am 
    30   20   33 2  
    31   21   23 ar 
    32   21   35 1  
    33   25   22 1  
    34   23   34 1  
    35   24   28 2  
    36   24   31 1  
    37   25   29 2  
    38   26   32 1  
    39   29   32 1  
    40    6   36 1  
    41    7   37 1  
    42    7   38 1  
    43    7   39 1  
    44    8   40 1  
    45    9   41 1  
    46   10   42 1  
    47   11   43 1  
    48   12   44 1  
    49   13   45 1  
    50   13   46 1  
    51   14   47 1  
    52   14   48 1  
    53   14   49 1  
    54   15   50 1  
    55   15   51 1  
    56   16   52 1  
    57   16   53 1  
    58   17   54 1  
    59   17   55 1  
    60   18   56 1  
    61   18   57 1  
    62   19   58 1  
    63   19   59 1  
    64   26   60 1  
    65   27   61 1  
    66   27   62 1  
@<TRIPOS>SUBSTRUCTURE
     1 80U         1

