### 
### Created by X-TOOL on Fri Nov  2 10:50:10 2018
### 

@<TRIPOS>MOLECULE
5go2_ligand
   18    17     1     0     0
SMALL
GAST_HUCK


@<TRIPOS>ATOM
      1 C1         14.1040    4.1520   -6.2870 C.2       1 CIT         0.0371
      2 O1         14.8330    3.9190   -7.3040 O.co2     1 CIT        -0.5690
      3 O2         12.9210    3.7110   -6.2270 O.co2     1 CIT        -0.5690
      4 C2         14.6680    4.9500   -5.1310 C.3       1 CIT         0.0356
      5 C3         14.3160    4.3460   -3.7710 C.3       1 CIT         0.1328
      6 O7         14.6920    2.9850   -3.6900 O.3       1 CIT        -0.3818
      7 C4         15.0130    5.1760   -2.7060 C.3       1 CIT         0.0356
      8 C5         16.4380    4.7100   -2.4440 C.2       1 CIT         0.0371
      9 O3         17.4110    5.0880   -3.1710 O.co2     1 CIT        -0.5690
     10 O4         16.6340    3.9530   -1.4540 O.co2     1 CIT        -0.5690
     11 C6         12.8370    4.4660   -3.4450 C.2       1 CIT         0.0796
     12 O5         12.2860    5.5670   -3.6620 O.co2     1 CIT        -0.5449
     13 O6         12.1860    3.5100   -2.9300 O.co2     1 CIT        -0.5449
     14 H1         14.2633    5.9718   -5.1778 H         1 CIT         0.0452
     15 H2         15.7632    4.9845   -5.2281 H         1 CIT         0.0452
     16 H3         14.4591    2.6436   -2.8346 H         1 CIT         0.2091
     17 H4         14.4400    5.1020   -1.7700 H         1 CIT         0.0452
     18 H5         15.0401    6.2245   -3.0375 H         1 CIT         0.0452
@<TRIPOS>BOND
     1    1    2 ar 
     2    1    3 ar 
     3    1    4 1  
     4    4    5 1  
     5    5    6 1  
     6    5    7 1  
     7    5   11 1  
     8    7    8 1  
     9    8    9 ar 
    10    8   10 ar 
    11   11   12 ar 
    12   11   13 ar 
    13    4   14 1  
    14    4   15 1  
    15    6   16 1  
    16    7   17 1  
    17    7   18 1  
@<TRIPOS>SUBSTRUCTURE
     1 CIT         1

