### 
### Created by X-TOOL on Mon Sep 10 21:13:27 2018
### 

@<TRIPOS>MOLECULE
5gs9_ligand
   27    26     1     0     0
SMALL
GAST_HUCK


@<TRIPOS>ATOM
      1 N         -24.8130   11.8860  -41.6370 N.4       1 ARG         0.2327
      2 CA        -23.7760   12.7080  -40.9380 C.3       1 ARG         0.0284
      3 C         -22.4420   12.6170  -41.6800 C.2       1 ARG         0.0844
      4 O         -22.3000   11.8300  -42.6180 O.co2     1 ARG        -0.5643
      5 CB        -23.6140   12.2780  -39.4670 C.3       1 ARG         0.0055
      6 CG        -24.8960   11.8760  -38.7400 C.3       1 ARG        -0.0131
      7 CD        -25.7650   13.0650  -38.3600 C.3       1 ARG         0.0628
      8 NE        -27.1790   12.6970  -38.2790 N.pl3     1 ARG        -0.2723
      9 CZ        -27.7920   12.2090  -37.1990 C.cat     1 ARG         0.2882
     10 NH1       -27.1300   12.0080  -36.0630 N.pl3     1 ARG        -0.2849
     11 NH2       -29.0840   11.9130  -37.2590 N.pl3     1 ARG        -0.2849
     12 OXT       -21.4790   13.3230  -41.3770 O.co2     1 ARG        -0.5643
     13 H1        -25.6870   11.9537  -41.1393 H         1 ARG         0.2010
     14 H2        -24.5160   10.9232  -41.6649 H         1 ARG         0.2010
     15 H3        -24.9346   12.2275  -42.5775 H         1 ARG         0.2010
     16 H4        -24.1059   13.7573  -40.9507 H         1 ARG         0.1024
     17 H5        -23.1660   13.1194  -38.9181 H         1 ARG         0.0340
     18 H6        -22.9292   11.4175  -39.4417 H         1 ARG         0.0340
     19 H7        -24.6228   11.3347  -37.8222 H         1 ARG         0.0302
     20 H8        -25.4779   11.2131  -39.3972 H         1 ARG         0.0302
     21 H9        -25.6443   13.8520  -39.1189 H         1 ARG         0.0689
     22 H10       -25.4392   13.4465  -37.3811 H         1 ARG         0.0689
     23 H11       -27.7491   12.8255  -39.1272 H         1 ARG         0.2642
     24 H12       -27.6215   11.6304  -35.2404 H         1 ARG         0.2615
     25 H13       -26.1258   12.2299  -36.0059 H         1 ARG         0.2615
     26 H14       -29.6070   12.0644  -38.1333 H         1 ARG         0.2615
     27 H15       -29.5640   11.5318  -36.4312 H         1 ARG         0.2615
@<TRIPOS>BOND
     1    1    2 1  
     2    2    3 1  
     3    2    5 1  
     4    3    4 ar 
     5    3   12 ar 
     6    5    6 1  
     7    6    7 1  
     8    7    8 1  
     9    8    9 ar 
    10    9   10 ar 
    11    9   11 ar 
    12    1   13 1  
    13    1   14 1  
    14    1   15 1  
    15    2   16 1  
    16    5   17 1  
    17    5   18 1  
    18    6   19 1  
    19    6   20 1  
    20    7   21 1  
    21    7   22 1  
    22    8   23 1  
    23   10   24 1  
    24   10   25 1  
    25   11   26 1  
    26   11   27 1  
@<TRIPOS>SUBSTRUCTURE
     1 ARG         1

