### 
### Created by X-TOOL on Mon Sep 10 21:13:32 2018
### 

@<TRIPOS>MOLECULE
5gsa_ligand
   41    44     1     0     0
SMALL
GAST_HUCK


@<TRIPOS>ATOM
      1 C1        -31.0870   75.1570    5.6230 C.2       1 73K        -0.0006
      2 C2        -31.7340   75.4680    6.7670 C.2       1 73K         0.0384
      3 C3        -32.1330   74.3200    7.6040 C.2       1 73K         0.1664
      4 C12       -32.2930   72.3840    8.2020 C.2       1 73K         0.1443
      5 C13       -28.4660   71.0560    5.4090 C.2       1 73K         0.1187
      6 C14       -28.1230   70.2130    6.3760 C.2       1 73K        -0.0684
      7 C15       -26.6880   70.4560    6.5290 C.2       1 73K        -0.0808
      8 C16       -26.4570   71.3990    5.6240 C.2       1 73K         0.0670
      9 C18       -33.4130   77.2630    7.3550 C.ar      1 73K        -0.0587
     10 C19       -33.7460   78.6050    7.5820 C.ar      1 73K        -0.0414
     11 C20       -32.7350   79.5910    7.4920 C.ar      1 73K         0.0834
     12 C21       -31.3960   79.2390    7.2060 C.ar      1 73K        -0.0414
     13 C22       -31.0550   77.8940    7.0170 C.ar      1 73K        -0.0587
     14 C25       -34.2130   81.5750    6.2820 C.3       1 73K         0.0590
     15 N4        -31.8050   73.1140    7.2320 N.pl3     1 73K        -0.1212
     16 C5        -31.1150   72.8270    6.1240 C.2       1 73K         0.2882
     17 N6        -30.7750   73.7730    5.3410 N.2       1 73K        -0.2548
     18 C7        -32.0680   76.9020    7.0930 C.ar      1 73K        -0.0246
     19 N8        -30.7720   71.6000    5.8350 N.pl3     1 73K        -0.2410
     20 C9        -29.8100   71.2530    4.8010 C.3       1 73K         0.1017
     21 N10       -32.7840   74.3880    8.7050 N.2       1 73K        -0.2755
     22 N11       -32.8870   73.0320    9.1200 N.2       1 73K        -0.2638
     23 O17       -27.5110   71.8180    4.9020 O.3       1 73K        -0.2666
     24 S23       -33.1480   81.3080    7.7230 S.o2      1 73K        -0.0078
     25 O24       -33.9980   81.4710    8.9020 O.2       1 73K        -0.1702
     26 O26       -31.9090   82.0750    7.5880 O.2       1 73K        -0.1702
     27 H1        -30.8034   75.9395    4.9207 H         1 73K         0.0858
     28 H2        -32.1971   71.2994    8.2214 H         1 73K         0.1275
     29 H3        -28.7544   69.5129    6.9212 H         1 73K         0.0219
     30 H4        -25.9860   69.9821    7.2135 H         1 73K         0.0296
     31 H5        -25.4613   71.8136    5.4734 H         1 73K         0.0854
     32 H6        -34.1839   76.5013    7.3798 H         1 73K         0.0582
     33 H7        -34.7652   78.8843    7.8235 H         1 73K         0.0624
     34 H8        -30.6355   80.0080    7.1332 H         1 73K         0.0624
     35 H9        -30.0278   77.6130    6.8147 H         1 73K         0.0582
     36 H10       -34.5643   82.6174    6.2738 H         1 73K         0.0467
     37 H11       -35.0777   80.8971    6.3344 H         1 73K         0.0467
     38 H12       -33.6437   81.3728    5.3628 H         1 73K         0.0467
     39 H13       -31.2076   70.8350    6.3698 H         1 73K         0.2006
     40 H14       -30.1263   70.3235    4.3050 H         1 73K         0.0731
     41 H15       -29.7606   72.0652    4.0608 H         1 73K         0.0731
@<TRIPOS>BOND
     1    1    2 2  
     2   17    1 1  
     3    3    2 1  
     4    2   18 1  
     5   15    3 1  
     6    3   21 2  
     7   15    4 1  
     8    4   22 2  
     9    5    6 2  
    10   20    5 1  
    11    5   23 1  
    12    6    7 1  
    13    8    7 2  
    14   23    8 1  
    15    9   10 ar 
    16   18    9 ar 
    17   10   11 ar 
    18   12   11 ar 
    19   11   24 1  
    20   13   12 ar 
    21   18   13 ar 
    22   24   14 1  
    23   16   15 1  
    24   16   17 2  
    25   19   16 1  
    26   19   20 1  
    27   21   22 1  
    28   24   25 2  
    29   24   26 2  
    30    1   27 1  
    31    4   28 1  
    32    6   29 1  
    33    7   30 1  
    34    8   31 1  
    35    9   32 1  
    36   10   33 1  
    37   12   34 1  
    38   13   35 1  
    39   14   36 1  
    40   14   37 1  
    41   14   38 1  
    42   19   39 1  
    43   20   40 1  
    44   20   41 1  
@<TRIPOS>SUBSTRUCTURE
     1 73K         1

