### 
### Created by X-TOOL on Mon Sep 10 21:13:34 2018
### 

@<TRIPOS>MOLECULE
5gso_ligand
   62    64     1     0     0
SMALL
GAST_HUCK


@<TRIPOS>ATOM
      1 C1        -22.8910   -3.3800   97.0690 C.3       1 5GI         0.1394
      2 C2        -24.0780   -4.2880   96.9010 C.3       1 5GI         0.0195
      3 C3        -22.4630   -3.4310   98.4960 C.2       1 5GI         0.2039
      4 C4        -15.9150   -3.9060   94.5530 C.3       1 5GI         0.0097
      5 C5        -24.8800   -3.9300   95.6570 C.ar      1 5GI        -0.0424
      6 C6        -25.3000   -2.6630   95.4570 C.ar      1 5GI        -0.0618
      7 C7        -25.1550   -4.9290   94.7390 C.ar      1 5GI        -0.0618
      8 C8        -26.0130   -2.3680   94.3210 C.ar      1 5GI        -0.0349
      9 C9        -26.2760   -3.3710   93.4080 C.ar      1 5GI         0.1248
     10 C10       -25.8520   -4.6270   93.6060 C.ar      1 5GI        -0.0349
     11 C11       -20.7290   -2.9850   96.0980 C.2       1 5GI         0.2114
     12 C12       -19.5090   -3.5170   95.3840 C.2       1 5GI         0.1131
     13 C13       -17.3970   -1.3430  100.0100 C.3       1 5GI        -0.0312
     14 C14       -18.1680   -3.1080   95.6250 C.2       1 5GI        -0.0165
     15 C15       -23.9680   -2.2360  101.5320 C.3       1 5GI         0.0671
     16 C16       -17.4060   -3.9150   94.7250 C.2       1 5GI         0.1392
     17 C17       -18.3100   -2.3650   99.3580 C.3       1 5GI        -0.0120
     18 C18       -22.7040   -2.3940  100.7770 C.3       1 5GI         0.0656
     19 C19       -21.6410   -1.3250  100.9950 C.3       1 5GI        -0.0174
     20 C20       -20.3080   -1.2370  100.1890 C.3       1 5GI         0.0305
     21 C21       -19.4230   -0.2220  100.8760 C.3       1 5GI         0.0832
     22 C22       -19.5550   -2.5110  100.1190 C.3       1 5GI        -0.0378
     23 F1        -26.9450   -3.1190   92.3150 F         1 5GI        -0.1893
     24 N1        -21.7910   -3.8600   96.3630 N.am      1 5GI        -0.2632
     25 N2        -19.4760   -4.4470   94.4700 N.2       1 5GI        -0.1328
     26 N3        -18.0630   -0.0900  100.3610 N.4       1 5GI         0.2492
     27 N4        -23.0050   -2.4850   99.3910 N.am      1 5GI        -0.2796
     28 O1        -18.2430   -4.6610   94.0770 O.3       1 5GI        -0.1606
     29 O2        -24.4560   -3.3100  101.9010 O.3       1 5GI        -0.3927
     30 O3        -21.6790   -4.2580   98.8340 O.2       1 5GI        -0.3943
     31 O4        -20.7460   -1.8260   96.4380 O.2       1 5GI        -0.3853
     32 O5        -20.0440    0.9900  100.8180 O.3       1 5GI        -0.3528
     33 H1        -23.1457   -2.3563   96.7573 H         1 5GI         0.0822
     34 H2        -24.7272   -4.1955   97.7842 H         1 5GI         0.0466
     35 H3        -23.7249   -5.3260   96.8126 H         1 5GI         0.0466
     36 H4        -15.4712   -3.1696   95.2391 H         1 5GI         0.0449
     37 H5        -15.6672   -3.6366   93.5157 H         1 5GI         0.0449
     38 H6        -15.5139   -4.9052   94.7782 H         1 5GI         0.0449
     39 H7        -25.0776   -1.8892   96.1828 H         1 5GI         0.0547
     40 H8        -24.8189   -5.9437   94.9192 H         1 5GI         0.0547
     41 H9        -26.3658   -1.3587   94.1425 H         1 5GI         0.0587
     42 H10       -26.0613   -5.3965   92.8718 H         1 5GI         0.0587
     43 H11       -16.5778   -1.1157   99.3120 H         1 5GI         0.0814
     44 H12       -16.9839   -1.7844  100.9289 H         1 5GI         0.0814
     45 H13       -17.8079   -2.3583   96.3280 H         1 5GI         0.0312
     46 H14       -24.6978   -1.7244  100.8873 H         1 5GI         0.0580
     47 H15       -23.7686   -1.6197  102.4210 H         1 5GI         0.0580
     48 H16       -17.7949   -3.3362   99.3194 H         1 5GI         0.0317
     49 H17       -18.5485   -2.0355   98.3360 H         1 5GI         0.0317
     50 H18       -22.2610   -3.3490  101.0960 H         1 5GI         0.0579
     51 H19       -21.3447   -1.4113  102.0508 H         1 5GI         0.0294
     52 H20       -22.1495   -0.3630  100.8343 H         1 5GI         0.0294
     53 H21       -20.5366   -0.9059   99.1652 H         1 5GI         0.0382
     54 H22       -19.3394   -0.5243  101.9303 H         1 5GI         0.1186
     55 H23       -19.3118   -2.8377  101.1408 H         1 5GI         0.0272
     56 H24       -20.1839   -3.2702   99.6311 H         1 5GI         0.0272
     57 H25       -21.7595   -4.8097   96.0514 H         1 5GI         0.1879
     58 H26       -18.0990    0.4846   99.5336 H         1 5GI         0.2041
     59 H27       -17.5078    0.3698  101.0655 H         1 5GI         0.2041
     60 H28       -23.6556   -1.8229   99.0191 H         1 5GI         0.1855
     61 H29       -24.6418   -3.8497  101.1416 H         1 5GI         0.2095
     62 H30       -19.5625    1.6168  101.3449 H         1 5GI         0.2154
@<TRIPOS>BOND
     1    1    2 1  
     2    3    1 1  
     3    1   24 1  
     4    2    5 1  
     5   27    3 am 
     6    3   30 2  
     7   16    4 1  
     8    5    6 ar 
     9    5    7 ar 
    10    6    8 ar 
    11    7   10 ar 
    12    8    9 ar 
    13   10    9 ar 
    14    9   23 1  
    15   11   12 1  
    16   24   11 am 
    17   11   31 2  
    18   12   14 1  
    19   12   25 2  
    20   17   13 1  
    21   13   26 1  
    22   14   16 2  
    23   18   15 1  
    24   15   29 1  
    25   16   28 1  
    26   22   17 1  
    27   19   18 1  
    28   18   27 1  
    29   20   19 1  
    30   20   21 1  
    31   20   22 1  
    32   21   26 1  
    33   21   32 1  
    34   25   28 1  
    35    1   33 1  
    36    2   34 1  
    37    2   35 1  
    38    4   36 1  
    39    4   37 1  
    40    4   38 1  
    41    6   39 1  
    42    7   40 1  
    43    8   41 1  
    44   10   42 1  
    45   13   43 1  
    46   13   44 1  
    47   14   45 1  
    48   15   46 1  
    49   15   47 1  
    50   17   48 1  
    51   17   49 1  
    52   18   50 1  
    53   19   51 1  
    54   19   52 1  
    55   20   53 1  
    56   21   54 1  
    57   22   55 1  
    58   22   56 1  
    59   24   57 1  
    60   26   58 1  
    61   26   59 1  
    62   27   60 1  
    63   29   61 1  
    64   32   62 1  
@<TRIPOS>SUBSTRUCTURE
     1 5GI         1

