### 
### Created by X-TOOL on Mon Sep 10 21:13:33 2018
### 

@<TRIPOS>MOLECULE
5gsw_ligand
   60    62     1     0     0
SMALL
GAST_HUCK


@<TRIPOS>ATOM
      1 C1          1.0760    6.2950   25.9310 C.3       1 5GI         0.1395
      2 C2          1.4590    7.2160   24.8050 C.3       1 5GI         0.0196
      3 C3          2.1470    6.3560   26.9660 C.2       1 5GI         0.2059
      4 C4         -4.3680    6.7090   30.9770 C.3       1 5GI         0.0097
      5 C5          0.7260    6.8550   23.5190 C.ar      1 5GI        -0.0424
      6 C6          0.7600    5.5900   23.0460 C.ar      1 5GI        -0.0618
      7 C7          0.0220    7.8470   22.8600 C.ar      1 5GI        -0.0618
      8 C8          0.0830    5.2930   21.8900 C.ar      1 5GI        -0.0349
      9 C9         -0.6230    6.2890   21.2440 C.ar      1 5GI         0.1248
     10 C10        -0.6600    7.5410   21.7180 C.ar      1 5GI        -0.0349
     11 C11        -0.7730    5.8640   27.4040 C.2       1 5GI         0.2114
     12 C12        -1.9750    6.3730   28.1640 C.2       1 5GI         0.1131
     13 C13         1.1990    4.2220   32.1490 C.3       1 5GI        -0.0312
     14 C14        -2.3690    5.9500   29.4630 C.2       1 5GI        -0.0165
     15 C15         5.6310    5.4360   27.0440 C.2       1 5GI         0.1245
     16 C16        -3.5310    6.7380   29.7320 C.2       1 5GI         0.1392
     17 C17         1.0230    5.2480   31.0450 C.3       1 5GI        -0.0120
     18 C18         4.3000    5.3460   27.7930 C.3       1 5GI         0.1133
     19 C19         4.0220    4.2670   28.8310 C.3       1 5GI        -0.0033
     20 C20         2.6950    4.1540   29.6450 C.3       1 5GI         0.0326
     21 C21         2.9150    3.1350   30.7400 C.3       1 5GI         0.0834
     22 C22         2.2680    5.4170   30.2890 C.3       1 5GI        -0.0376
     23 F1         -1.2830    6.0340   20.1460 F         1 5GI        -0.1893
     24 N1         -0.0620    6.7540   26.5870 N.am      1 5GI        -0.2632
     25 N2         -2.8160    7.2930   27.7780 N.2       1 5GI        -0.1328
     26 N3          1.8350    2.9810   31.7120 N.4       1 5GI         0.2492
     27 N4          3.2050    5.4260   26.8900 N.am      1 5GI        -0.2648
     28 O1         -3.7330    7.4870   28.6950 O.3       1 5GI        -0.1606
     29 O2          6.0480    6.5490   26.8010 O.2       1 5GI        -0.3725
     30 O3          2.0750    7.1770   27.8230 O.2       1 5GI        -0.3942
     31 O4         -0.4450    4.7080   27.5380 O.2       1 5GI        -0.3853
     32 O5          3.1660    1.9300   30.1550 O.3       1 5GI        -0.3528
     33 H1          0.9309    5.2714   25.5554 H         1 5GI         0.0822
     34 H2          2.5428    7.1397   24.6329 H         1 5GI         0.0466
     35 H3          1.2039    8.2488   25.0846 H         1 5GI         0.0466
     36 H4         -3.9512    5.9746   31.6819 H         1 5GI         0.0449
     37 H5         -5.3991    6.4255   30.7192 H         1 5GI         0.0449
     38 H6         -4.3672    7.7056   31.4427 H         1 5GI         0.0449
     39 H7          1.3140    4.8209   23.5720 H         1 5GI         0.0547
     40 H8          0.0121    8.8593   23.2476 H         1 5GI         0.0547
     41 H9          0.1021    4.2866   21.4877 H         1 5GI         0.0587
     42 H10        -1.2270    8.3052   21.1989 H         1 5GI         0.0587
     43 H11         0.2065    3.9774   32.5552 H         1 5GI         0.0814
     44 H12         1.8192    4.6684   32.9402 H         1 5GI         0.0814
     45 H13        -1.8979    5.2037   30.1009 H         1 5GI         0.0312
     46 H14         6.1779    4.5436   26.7434 H         1 5GI         0.1373
     47 H15         0.7379    6.2124   31.4908 H         1 5GI         0.0317
     48 H16         0.2293    4.9107   30.3622 H         1 5GI         0.0317
     49 H17         4.2755    6.2777   28.3772 H         1 5GI         0.0790
     50 H18         4.8226    4.3612   29.5794 H         1 5GI         0.0319
     51 H19         4.1273    3.3095   28.2999 H         1 5GI         0.0319
     52 H20         1.8955    3.8148   28.9700 H         1 5GI         0.0384
     53 H21         3.8090    3.4472   31.2996 H         1 5GI         0.1186
     54 H22         3.0592    5.7518   30.9759 H         1 5GI         0.0273
     55 H23         2.1116    6.1785   29.5108 H         1 5GI         0.0273
     56 H24        -0.3667    7.7002   26.4778 H         1 5GI         0.1879
     57 H25         1.1252    2.3977   31.2974 H         1 5GI         0.2041
     58 H26         2.2133    2.5226   32.5262 H         1 5GI         0.2041
     59 H27         3.1828    4.7676   26.1376 H         1 5GI         0.1884
     60 H28         3.4226    1.3032   30.8211 H         1 5GI         0.2154
@<TRIPOS>BOND
     1    1    2 1  
     2    3    1 1  
     3    1   24 1  
     4    2    5 1  
     5   27    3 am 
     6    3   30 2  
     7   16    4 1  
     8    5    6 ar 
     9    5    7 ar 
    10    6    8 ar 
    11    7   10 ar 
    12    8    9 ar 
    13   10    9 ar 
    14    9   23 1  
    15   11   12 1  
    16   24   11 am 
    17   11   31 2  
    18   12   14 1  
    19   12   25 2  
    20   17   13 1  
    21   13   26 1  
    22   14   16 2  
    23   18   15 1  
    24   15   29 2  
    25   16   28 1  
    26   22   17 1  
    27   19   18 1  
    28   18   27 1  
    29   20   19 1  
    30   20   21 1  
    31   20   22 1  
    32   21   26 1  
    33   21   32 1  
    34   25   28 1  
    35    1   33 1  
    36    2   34 1  
    37    2   35 1  
    38    4   36 1  
    39    4   37 1  
    40    4   38 1  
    41    6   39 1  
    42    7   40 1  
    43    8   41 1  
    44   10   42 1  
    45   13   43 1  
    46   13   44 1  
    47   14   45 1  
    48   15   46 1  
    49   17   47 1  
    50   17   48 1  
    51   18   49 1  
    52   19   50 1  
    53   19   51 1  
    54   20   52 1  
    55   21   53 1  
    56   22   54 1  
    57   22   55 1  
    58   24   56 1  
    59   26   57 1  
    60   26   58 1  
    61   27   59 1  
    62   32   60 1  
@<TRIPOS>SUBSTRUCTURE
     1 5GI         1

