### 
### Created by X-TOOL on Mon Sep 10 21:13:34 2018
### 

@<TRIPOS>MOLECULE
5gty_ligand
   64    68     1     0     0
SMALL
GAST_HUCK


@<TRIPOS>ATOM
      1 C4        -37.2840   18.5910  -61.3840 C.ar      1 816         0.1626
      2 C5        -36.3240   18.0560  -62.1030 C.ar      1 816         0.0856
      3 C6        -36.5300   17.7450  -63.3740 C.ar      1 816         0.1272
      4 N1        -37.7050   17.9480  -63.9650 N.ar      1 816        -0.2657
      5 N3        -38.4820   18.8240  -61.9190 N.ar      1 816        -0.2677
      6 C2        -38.7340   18.5030  -63.2410 C.ar      1 816         0.0564
      7 CAA       -30.8950   11.9380  -63.5030 C.3       1 816        -0.0174
      8 CAH       -29.4850   12.1330  -60.1420 C.ar      1 816        -0.0560
      9 CAJ       -30.0060   11.5950  -61.3070 C.ar      1 816        -0.0404
     10 CAK       -29.3490   13.5080  -60.0310 C.ar      1 816        -0.0375
     11 CAL       -33.4740   16.7040  -60.5290 C.ar      1 816        -0.0612
     12 CAM       -32.1760   16.2450  -60.7250 C.ar      1 816        -0.0305
     13 CAN       -33.3800   17.9140  -62.5920 C.ar      1 816        -0.0474
     14 CAO       -36.7480   21.6840  -59.4410 C.3       1 816        -0.0297
     15 CAP       -39.0580   19.1550  -56.3350 C.3       1 816        -0.0482
     16 CAQ       -37.9890   19.7280  -55.4210 C.3       1 816         0.0346
     17 CAR       -37.9740   20.7930  -59.4270 C.3       1 816        -0.0178
     18 CAS       -36.2500   21.8200  -58.0310 C.3       1 816         0.0341
     19 CAT       -29.6140   15.6840  -61.0000 C.3       1 816         0.1182
     20 CAV       -36.8010   19.3770  -57.8110 C.3       1 816         0.0651
     21 CBC       -37.4140   20.9600  -56.0810 C.2       1 816         0.1783
     22 CBD       -30.3740   12.4500  -62.3310 C.ar      1 816         0.0166
     23 CBF       -32.0920   17.4550  -62.7860 C.ar      1 816         0.0697
     24 CBG       -29.7340   14.3160  -61.0840 C.ar      1 816         0.0500
     25 CBH       -34.0840   17.5270  -61.4630 C.ar      1 816        -0.0170
     26 CBI       -31.4950   16.6340  -61.8640 C.ar      1 816         0.1101
     27 CBJ       -35.3170   17.9750  -61.2500 C.2       1 816         0.0654
     28 CBN       -37.5790   19.3700  -59.0920 C.3       1 816         0.1007
     29 NAB       -35.5100   17.2170  -64.0310 N.pl3     1 816        -0.3126
     30 NAY       -30.2290   13.7720  -62.1970 N.ar      1 816        -0.2971
     31 NAZ       -35.7210   18.4650  -60.0880 N.2       1 816        -0.1983
     32 NBO       -36.8280   20.7280  -57.2510 N.am      1 816        -0.2703
     33 NBP       -36.7960   18.7960  -60.1670 N.pl3     1 816        -0.1805
     34 OAE       -37.4980   22.0630  -55.5500 O.2       1 816        -0.3969
     35 OBA       -30.2320   16.2440  -62.1490 O.3       1 816        -0.3012
     36 CLA       -31.2670   17.8750  -64.0750 Cl        1 816        -0.0783
     37 H1        -39.7049   18.6820  -63.6887 H         1 816         0.1030
     38 H2        -30.9411   10.8411  -63.4353 H         1 816         0.0419
     39 H3        -30.2515   12.2265  -64.3472 H         1 816         0.0419
     40 H4        -31.9074   12.3385  -63.6600 H         1 816         0.0419
     41 H5        -29.1867   11.4855  -59.3254 H         1 816         0.0698
     42 H6        -30.1235   10.5228  -61.4148 H         1 816         0.0590
     43 H7        -28.9440   13.9458  -59.1258 H         1 816         0.0591
     44 H8        -34.0152   16.4148  -59.6354 H         1 816         0.0599
     45 H9        -31.7060   15.5934  -59.9973 H         1 816         0.0548
     46 H10       -33.8382   18.5740  -63.3197 H         1 816         0.0603
     47 H11       -37.0122   22.6746  -59.8396 H         1 816         0.0286
     48 H12       -35.9666   21.2322  -60.0698 H         1 816         0.0286
     49 H13       -39.4913   18.2554  -55.8735 H         1 816         0.0254
     50 H14       -38.6089   18.8901  -57.3035 H         1 816         0.0254
     51 H15       -39.8482   19.9044  -56.4899 H         1 816         0.0254
     52 H16       -37.1941   18.9837  -55.2653 H         1 816         0.0500
     53 H17       -38.4335   19.9980  -54.4517 H         1 816         0.0500
     54 H18       -38.4508   20.8145  -60.4180 H         1 816         0.0296
     55 H19       -38.6829   21.1614  -58.6709 H         1 816         0.0296
     56 H20       -36.5658   22.7873  -57.6133 H         1 816         0.0522
     57 H21       -35.1522   21.7536  -58.0129 H         1 816         0.0522
     58 H22       -28.5510   15.9656  -60.9719 H         1 816         0.0809
     59 H23       -30.1142   16.0486  -60.0907 H         1 816         0.0809
     60 H24       -35.7606   19.0794  -58.0086 H         1 816         0.0553
     61 H25       -37.2550   18.6724  -57.0987 H         1 816         0.0553
     62 H26       -38.4882   18.7659  -58.9566 H         1 816         0.0680
     63 H27       -35.6151   16.9564  -65.0219 H         1 816         0.1842
     64 H28       -34.6109   17.0666  -63.5515 H         1 816         0.1842
@<TRIPOS>BOND
     1    1    2 ar 
     2    1    5 ar 
     3   33    1 1  
     4    2    3 ar 
     5    2   27 1  
     6    3    4 ar 
     7    3   29 1  
     8    6    4 ar 
     9    5    6 ar 
    10   22    7 1  
    11    8    9 ar 
    12   10    8 ar 
    13   22    9 ar 
    14   24   10 ar 
    15   11   12 ar 
    16   25   11 ar 
    17   12   26 ar 
    18   13   23 ar 
    19   25   13 ar 
    20   17   14 1  
    21   14   18 1  
    22   16   15 1  
    23   21   16 1  
    24   28   17 1  
    25   32   18 1  
    26   19   24 1  
    27   35   19 1  
    28   28   20 1  
    29   20   32 1  
    30   32   21 am 
    31   21   34 2  
    32   30   22 ar 
    33   23   26 ar 
    34   23   36 1  
    35   24   30 ar 
    36   27   25 1  
    37   26   35 1  
    38   27   31 2  
    39   28   33 1  
    40   31   33 1  
    41    6   37 1  
    42    7   38 1  
    43    7   39 1  
    44    7   40 1  
    45    8   41 1  
    46    9   42 1  
    47   10   43 1  
    48   11   44 1  
    49   12   45 1  
    50   13   46 1  
    51   14   47 1  
    52   14   48 1  
    53   15   49 1  
    54   15   50 1  
    55   15   51 1  
    56   16   52 1  
    57   16   53 1  
    58   17   54 1  
    59   17   55 1  
    60   18   56 1  
    61   18   57 1  
    62   19   58 1  
    63   19   59 1  
    64   20   60 1  
    65   20   61 1  
    66   28   62 1  
    67   29   63 1  
    68   29   64 1  
@<TRIPOS>SUBSTRUCTURE
     1 816         1

