### 
### Created by X-TOOL on Mon Sep 10 21:13:29 2018
### 

@<TRIPOS>MOLECULE
5gu4_ligand
   88    89     1     0     0
SMALL
GAST_HUCK


@<TRIPOS>ATOM
      1 N         -17.9840    5.5810   27.5910 N.4       1 GLY         0.2357
      2 CA        -16.7350    6.4030   27.7010 C.3       1 GLY         0.0545
      3 C         -16.1070    6.7030   26.3410 C.2       1 GLY         0.2238
      4 O         -15.0430    7.3690   26.2410 O.2       1 GLY        -0.3910
      5 N         -16.8040    6.3000   25.2790 N.am      1 PHE        -0.2595
      6 CA        -16.2520    6.4640   23.9270 C.3       1 PHE         0.1405
      7 C         -16.6210    7.8330   23.3580 C.2       1 PHE         0.2058
      8 O         -16.1060    8.2370   22.2980 O.2       1 PHE        -0.3942
      9 CB        -16.8050    5.3940   23.0070 C.3       1 PHE         0.0214
     10 CG        -16.3710    4.0360   23.3570 C.ar      1 PHE        -0.0386
     11 CD1       -16.9620    2.9510   22.7300 C.ar      1 PHE        -0.0601
     12 CD2       -15.4120    3.8190   24.3720 C.ar      1 PHE        -0.0601
     13 CE1       -16.5510    1.6410   23.0110 C.ar      1 PHE        -0.0686
     14 CE2       -14.9800    2.5060   24.6820 C.ar      1 PHE        -0.0686
     15 CZ        -15.5850    1.4080   24.0430 C.ar      1 PHE        -0.0687
     16 N         -17.4120    8.6160   24.1330 N.am      1 GLY        -0.2663
     17 CA        -17.7800    9.9840   23.7680 C.3       1 GLY         0.1201
     18 C         -16.6810   10.9390   23.4520 C.2       1 GLY         0.2007
     19 O         -16.8850   11.8570   22.6490 O.2       1 GLY        -0.3947
     20 N         -15.4580   10.7890   24.0370 N.am      1 LEU        -0.2640
     21 CA        -14.3230   11.7320   23.6830 C.3       1 LEU         0.1312
     22 C         -14.0130   11.8700   22.1860 C.2       1 LEU         0.2040
     23 O         -13.5250   12.9370   21.7480 O.2       1 LEU        -0.3944
     24 CB        -12.9610   11.5190   24.4450 C.3       1 LEU        -0.0101
     25 CG        -12.1800   10.2870   24.1270 C.3       1 LEU        -0.0425
     26 CD1       -10.8770   10.1890   24.9300 C.3       1 LEU        -0.0625
     27 CD2       -13.1340    9.0660   24.3950 C.3       1 LEU        -0.0625
     28 N         -14.4010   10.8720   21.3880 N.am      1 PHE        -0.2619
     29 CA        -14.0870   10.8890   19.9370 C.3       1 PHE         0.1404
     30 C         -15.1870   11.4200   19.0220 C.2       1 PHE         0.2055
     31 O         -15.0320   11.5670   17.8460 O.2       1 PHE        -0.3942
     32 CB        -13.5570    9.5180   19.4510 C.3       1 PHE         0.0214
     33 CG        -12.3950    9.0200   20.2340 C.ar      1 PHE        -0.0386
     34 CD1       -11.1400    9.5440   19.9960 C.ar      1 PHE        -0.0601
     35 CD2       -12.5420    8.0490   21.2360 C.ar      1 PHE        -0.0601
     36 CE1       -10.0010    9.0650   20.6920 C.ar      1 PHE        -0.0686
     37 CE2       -11.4180    7.5630   21.8990 C.ar      1 PHE        -0.0686
     38 CZ        -10.1470    8.0950   21.6470 C.ar      1 PHE        -0.0687
     39 N         -16.3420   11.7390   19.6170 N.am      1 ASP        -0.2678
     40 CA        -17.4720   12.2870   18.8520 C.3       1 ASP         0.1058
     41 C         -17.4620   13.7870   18.7250 C.2       1 ASP         0.0618
     42 O         -16.7240   14.5000   19.4470 O.co2     1 ASP        -0.5665
     43 CB        -18.7860   11.8770   19.5310 C.3       1 ASP         0.0351
     44 CG        -19.0670   10.3940   19.4450 C.2       1 ASP         0.0387
     45 OD1       -19.6310    9.8430   20.4540 O.co2     1 ASP        -0.5688
     46 OD2       -18.7650    9.8050   18.3600 O.co2     1 ASP        -0.5688
     47 OXT       -18.1910   14.3780   17.8930 O.co2     1 ASP        -0.5665
     48 H1        -18.3571    5.4118   28.5120 H         1 GLY         0.2012
     49 H2        -17.7693    4.7011   27.1487 H         1 GLY         0.2012
     50 H3        -18.6654    6.0774   27.0385 H         1 GLY         0.2012
     51 H4        -16.0044    5.8535   28.3128 H         1 GLY         0.1061
     52 H5        -16.9823    7.3555   28.1925 H         1 GLY         0.1061
     53 H6        -17.7053    5.8848   25.4025 H         1 PHE         0.1886
     54 H7        -15.1567    6.3740   23.9745 H         1 PHE         0.0823
     55 H8        -16.4727    5.6117   21.9812 H         1 PHE         0.0474
     56 H9        -17.9035    5.4304   23.0521 H         1 PHE         0.0474
     57 H10       -17.7552    3.1181   22.0103 H         1 PHE         0.0557
     58 H11       -15.0043    4.6628   24.9169 H         1 PHE         0.0557
     59 H12       -16.9616    0.8088   22.4507 H         1 PHE         0.0599
     60 H13       -14.1890    2.3483   25.4063 H         1 PHE         0.0599
     61 H14       -15.3227    0.3958   24.3288 H         1 PHE         0.0559
     62 H15       -17.7593    8.2413   24.9927 H         1 GLY         0.1881
     63 H16       -18.3493   10.4060   24.6093 H         1 GLY         0.0763
     64 H17       -18.4273    9.9238   22.8807 H         1 GLY         0.0763
     65 H18       -15.3090   10.0560   24.7007 H         1 LEU         0.1883
     66 H19       -14.6873   12.7192   24.0034 H         1 LEU         0.0800
     67 H20       -13.1852   11.4984   25.5217 H         1 LEU         0.0315
     68 H21       -12.3189   12.3835   24.2206 H         1 LEU         0.0315
     69 H22       -11.9142   10.3028   23.0597 H         1 LEU         0.0298
     70 H23       -10.3458    9.2657   24.6556 H         1 LEU         0.0232
     71 H24       -11.1092   10.1727   26.0051 H         1 LEU         0.0232
     72 H25       -10.2415   11.0582   24.7052 H         1 LEU         0.0232
     73 H26       -14.0518    9.1802   23.7995 H         1 LEU         0.0232
     74 H27       -13.3924    9.0302   25.4636 H         1 LEU         0.0232
     75 H28       -12.6252    8.1335   24.1093 H         1 LEU         0.0232
     76 H29       -14.9102   10.1024   21.7732 H         1 PHE         0.1885
     77 H30       -13.2517   11.5965   19.8288 H         1 PHE         0.0823
     78 H31       -13.2516    9.6158   18.3988 H         1 PHE         0.0474
     79 H32       -14.3709    8.7822   19.5297 H         1 PHE         0.0474
     80 H33       -11.0233   10.3353   19.2644 H         1 PHE         0.0557
     81 H34       -13.5276    7.6782   21.4933 H         1 PHE         0.0557
     82 H35        -9.0187    9.4653   20.4687 H         1 PHE         0.0599
     83 H36       -11.5282    6.7615   22.6205 H         1 PHE         0.0599
     84 H37        -9.2864    7.7417   22.2034 H         1 PHE         0.0559
     85 H38       -16.4389   11.6019   20.6028 H         1 ASP         0.1877
     86 H39       -17.4376   11.8564   17.8404 H         1 ASP         0.0745
     87 H40       -19.6126   12.4175   19.0467 H         1 ASP         0.0471
     88 H41       -18.7340   12.1613   20.5923 H         1 ASP         0.0471
@<TRIPOS>BOND
     1    1    2 1  
     2    2    3 1  
     3    3    4 2  
     4    3    5 am 
     5    5    6 1  
     6    6    7 1  
     7    6    9 1  
     8    7    8 2  
     9    7   16 am 
    10    9   10 1  
    11   10   11 ar 
    12   10   12 ar 
    13   11   13 ar 
    14   12   14 ar 
    15   13   15 ar 
    16   14   15 ar 
    17   16   17 1  
    18   17   18 1  
    19   18   19 2  
    20   18   20 am 
    21   20   21 1  
    22   21   22 1  
    23   21   24 1  
    24   22   23 2  
    25   22   28 am 
    26   24   25 1  
    27   25   26 1  
    28   25   27 1  
    29   28   29 1  
    30   29   30 1  
    31   29   32 1  
    32   30   31 2  
    33   30   39 am 
    34   32   33 1  
    35   33   34 ar 
    36   33   35 ar 
    37   34   36 ar 
    38   35   37 ar 
    39   36   38 ar 
    40   37   38 ar 
    41   39   40 1  
    42   40   41 1  
    43   40   43 1  
    44   41   42 ar 
    45   41   47 ar 
    46   43   44 1  
    47   44   45 ar 
    48   44   46 ar 
    49    1   48 1  
    50    1   49 1  
    51    1   50 1  
    52    2   51 1  
    53    2   52 1  
    54    5   53 1  
    55    6   54 1  
    56    9   55 1  
    57    9   56 1  
    58   11   57 1  
    59   12   58 1  
    60   13   59 1  
    61   14   60 1  
    62   15   61 1  
    63   16   62 1  
    64   17   63 1  
    65   17   64 1  
    66   20   65 1  
    67   21   66 1  
    68   24   67 1  
    69   24   68 1  
    70   25   69 1  
    71   26   70 1  
    72   26   71 1  
    73   26   72 1  
    74   27   73 1  
    75   27   74 1  
    76   27   75 1  
    77   28   76 1  
    78   29   77 1  
    79   32   78 1  
    80   32   79 1  
    81   34   80 1  
    82   35   81 1  
    83   36   82 1  
    84   37   83 1  
    85   38   84 1  
    86   39   85 1  
    87   40   86 1  
    88   43   87 1  
    89   43   88 1  
@<TRIPOS>SUBSTRUCTURE
     1 GLY         1

