### 
### Created by X-TOOL on Mon Sep 10 21:13:31 2018
### 

@<TRIPOS>MOLECULE
5gub_ligand
   46    47     1     0     0
SMALL
GAST_HUCK


@<TRIPOS>ATOM
      1 C1        -17.6390  -17.8290    8.7580 C.3       1 NGA         0.1823
      2 C2        -17.8460  -17.9030    7.2420 C.3       1 NGA         0.1211
      3 C3        -17.4700  -16.5900    6.5760 C.3       1 NGA         0.1179
      4 C4        -18.2200  -15.4450    7.2550 C.3       1 NGA         0.1120
      5 C5        -18.0100  -15.5130    8.7650 C.3       1 NGA         0.1130
      6 C6        -18.7750  -14.4110    9.4950 C.3       1 NGA         0.0730
      7 C7        -17.6970  -20.0140    6.0650 C.2       1 NGA         0.1733
      8 C8        -16.7700  -21.1150    5.6330 C.3       1 NGA         0.0257
      9 N2        -17.0900  -18.9970    6.6620 N.am      1 NGA        -0.2766
     10 O1        -18.0830  -19.0370    9.3330 O.3       1 NGA        -0.3651
     11 O3        -17.8560  -16.7020    5.2210 O.3       1 NGA        -0.3369
     12 O4        -19.6070  -15.4910    6.9530 O.3       1 NGA        -0.3865
     13 O5        -18.4100  -16.7780    9.2890 O.3       1 NGA        -0.3410
     14 O6        -18.4580  -14.5160   10.8740 O.3       1 NGA        -0.3924
     15 O7        -18.9260  -20.0410    5.8730 O.2       1 NGA        -0.3974
     16 C1        -16.9680  -15.9740    4.3820 C.3       1 GCD         0.2075
     17 C2        -16.9430  -16.6260    3.0050 C.3       1 GCD         0.1417
     18 C3        -16.0250  -15.8480    2.0750 C.3       1 GCD         0.1056
     19 C4        -16.3480  -14.3690    2.1640 C.2       1 GCD        -0.0271
     20 C5        -17.0300  -13.8480    3.1930 C.2       1 GCD         0.1115
     21 C6        -17.3850  -12.4290    3.2600 C.2       1 GCD         0.0810
     22 O2        -16.4660  -17.9810    3.1260 O.3       1 GCD        -0.3820
     23 O3        -16.2360  -16.2850    0.7190 O.3       1 GCD        -0.3804
     24 O5        -17.4720  -14.6520    4.3040 O.3       1 GCD        -0.2949
     25 O6A       -16.9070  -11.6290    2.4310 O.co2     1 GCD        -0.5623
     26 O6B       -18.1850  -12.0680    4.1600 O.co2     1 GCD        -0.5623
     27 H1        -16.5747  -17.6680    8.9847 H         1 NGA         0.0932
     28 H2        -18.9138  -18.0885    7.0542 H         1 NGA         0.0633
     29 H3        -16.3861  -16.4177    6.6496 H         1 NGA         0.0649
     30 H4        -17.8139  -14.4924    6.8841 H         1 NGA         0.0647
     31 H5        -16.9363  -15.3784    8.9627 H         1 NGA         0.0647
     32 H6        -19.8570  -14.5430    9.3469 H         1 NGA         0.0584
     33 H7        -18.4702  -13.4255    9.1132 H         1 NGA         0.0584
     34 H8        -17.3506  -21.9146    5.1497 H         1 NGA         0.0467
     35 H9        -16.2481  -21.5210    6.5121 H         1 NGA         0.0467
     36 H10       -16.0328  -20.7155    4.9210 H         1 NGA         0.0467
     37 H11       -16.0914  -18.9840    6.7134 H         1 NGA         0.1857
     38 H12       -17.9743  -18.9964   10.2759 H         1 NGA         0.2126
     39 H13       -19.7265  -15.4481    6.0116 H         1 NGA         0.2100
     40 H14       -17.5218  -14.4058   10.9919 H         1 NGA         0.2095
     41 H15       -15.9537  -15.9678    4.8076 H         1 NGA         0.0990
     42 H16       -17.9609  -16.6328    2.5880 H         1 NGA         0.0694
     43 H17       -14.9770  -16.0182    2.3626 H         1 NGA         0.0743
     44 H18       -16.0146  -13.7084    1.3650 H         1 NGA         0.0480
     45 H19       -17.0396  -18.4667    3.7069 H         1 NGA         0.2103
     46 H20       -15.6676  -15.7941    0.1372 H         1 NGA         0.2127
@<TRIPOS>BOND
     1    2    1 1  
     2    1   10 1  
     3    1   13 1  
     4    2    3 1  
     5    9    2 1  
     6    3    4 1  
     7    3   11 1  
     8    4    5 1  
     9    4   12 1  
    10    5    6 1  
    11   13    5 1  
    12    6   14 1  
    13    7    8 1  
    14    7    9 am 
    15    7   15 2  
    16   11   16 1  
    17   16   17 1  
    18   16   24 1  
    19   17   18 1  
    20   17   22 1  
    21   18   19 1  
    22   18   23 1  
    23   19   20 2  
    24   20   21 1  
    25   20   24 1  
    26   21   25 ar 
    27   21   26 ar 
    28    1   27 1  
    29    2   28 1  
    30    3   29 1  
    31    4   30 1  
    32    5   31 1  
    33    6   32 1  
    34    6   33 1  
    35    8   34 1  
    36    8   35 1  
    37    8   36 1  
    38    9   37 1  
    39   10   38 1  
    40   12   39 1  
    41   14   40 1  
    42   16   41 1  
    43   17   42 1  
    44   18   43 1  
    45   19   44 1  
    46   22   45 1  
    47   23   46 1  
@<TRIPOS>SUBSTRUCTURE
     1 NGA         1

