### 
### Created by X-TOOL on Fri Nov  2 10:50:20 2018
### 

@<TRIPOS>MOLECULE
5gut_ligand
   46    48     1     0     0
SMALL
GAST_HUCK


@<TRIPOS>ATOM
      1 N         -15.1140    2.7770   -8.5690 N.4       1 SAH         0.2327
      2 CA        -14.7640    3.0080   -7.1560 C.3       1 SAH         0.0291
      3 CB        -13.8510    1.9320   -6.5380 C.3       1 SAH         0.0114
      4 CG        -14.4870    0.5390   -6.4610 C.3       1 SAH         0.0005
      5 SD        -13.3560   -0.6930   -5.7340 S.3       1 SAH        -0.1578
      6 C         -14.0970    4.3560   -7.0430 C.2       1 SAH         0.0844
      7 O         -13.8660    5.0380   -8.0640 O.co2     1 SAH        -0.5643
      8 OXT       -13.7780    4.7820   -5.9400 O.co2     1 SAH        -0.5643
      9 C5'       -14.5990   -1.9510   -5.3400 C.3       1 SAH         0.0226
     10 C4'       -15.3940   -1.6770   -4.0550 C.3       1 SAH         0.0995
     11 O4'       -16.3270   -2.7250   -3.9200 O.3       1 SAH        -0.3383
     12 C3'       -14.5580   -1.7300   -2.7910 C.3       1 SAH         0.1132
     13 O3'       -14.6400   -0.4930   -2.0600 O.3       1 SAH        -0.3864
     14 C2'       -15.1440   -2.8950   -2.0040 C.3       1 SAH         0.1385
     15 O2'       -15.2100   -2.6360   -0.6260 O.3       1 SAH        -0.3836
     16 C1'       -16.5570   -2.9150   -2.5460 C.3       1 SAH         0.2009
     17 N9        -17.2720   -4.1910   -2.4380 N.pl3     1 SAH        -0.1919
     18 C8        -16.7480   -5.4580   -2.5280 C.2       1 SAH         0.1123
     19 N7        -17.7810   -6.3300   -2.4220 N.2       1 SAH        -0.2958
     20 C5        -18.9540   -5.6430   -2.2880 C.ar      1 SAH         0.1045
     21 C6        -20.3000   -6.0180   -2.1820 C.ar      1 SAH         0.1298
     22 N6        -20.7080   -7.2930   -2.1560 N.pl3     1 SAH        -0.3152
     23 N1        -21.2550   -5.0320   -2.1120 N.ar      1 SAH        -0.2698
     24 C2        -20.9070   -3.6910   -2.1180 C.ar      1 SAH         0.0533
     25 N3        -19.5780   -3.3240   -2.2120 N.ar      1 SAH        -0.2714
     26 C4        -18.6320   -4.2900   -2.3180 C.ar      1 SAH         0.1613
     27 H1        -15.5615    1.8786   -8.6617 H         1 SAH         0.2010
     28 H2        -14.2766    2.7947   -9.1298 H         1 SAH         0.2010
     29 H3        -15.7433    3.4996   -8.8818 H         1 SAH         0.2010
     30 H4        -15.6988    3.0245   -6.5764 H         1 SAH         0.1024
     31 H5        -13.5868    2.2477   -5.5180 H         1 SAH         0.0347
     32 H6        -12.9384    1.8616   -7.1481 H         1 SAH         0.0347
     33 H7        -14.7574    0.2160   -7.4771 H         1 SAH         0.0379
     34 H8        -15.3939    0.5970   -5.8412 H         1 SAH         0.0379
     35 H9        -14.0864   -2.9178   -5.2278 H         1 SAH         0.0402
     36 H10       -15.3090   -2.0075   -6.1783 H         1 SAH         0.0402
     37 H11       -15.8951   -0.7009   -4.1326 H         1 SAH         0.0632
     38 H12       -13.5044   -1.9286   -3.0367 H         1 SAH         0.0647
     39 H13       -15.5441   -0.3281   -1.8192 H         1 SAH         0.2100
     40 H14       -14.6005   -3.8324   -2.1931 H         1 SAH         0.0676
     41 H15       -15.7582   -1.8751   -0.4738 H         1 SAH         0.2101
     42 H16       -17.1575   -2.1105   -2.0964 H         1 SAH         0.0996
     43 H17       -15.6979   -5.7143   -2.6600 H         1 SAH         0.1349
     44 H18       -21.7115   -7.5111   -2.0766 H         1 SAH         0.1820
     45 H19       -20.0183   -8.0557   -2.2154 H         1 SAH         0.1820
     46 H20       -21.6764   -2.9305   -2.0490 H         1 SAH         0.0996
@<TRIPOS>BOND
     1    1    2 1  
     2    2    3 1  
     3    2    6 1  
     4    3    4 1  
     5    4    5 1  
     6    5    9 1  
     7    6    7 ar 
     8    6    8 ar 
     9    9   10 1  
    10   10   11 1  
    11   10   12 1  
    12   11   16 1  
    13   12   13 1  
    14   12   14 1  
    15   14   15 1  
    16   14   16 1  
    17   16   17 1  
    18   17   18 1  
    19   17   26 1  
    20   18   19 2  
    21   19   20 1  
    22   20   21 ar 
    23   20   26 ar 
    24   21   22 1  
    25   21   23 ar 
    26   23   24 ar 
    27   24   25 ar 
    28   25   26 ar 
    29    1   27 1  
    30    1   28 1  
    31    1   29 1  
    32    2   30 1  
    33    3   31 1  
    34    3   32 1  
    35    4   33 1  
    36    4   34 1  
    37    9   35 1  
    38    9   36 1  
    39   10   37 1  
    40   12   38 1  
    41   13   39 1  
    42   14   40 1  
    43   15   41 1  
    44   16   42 1  
    45   18   43 1  
    46   22   44 1  
    47   22   45 1  
    48   24   46 1  
@<TRIPOS>SUBSTRUCTURE
     1 SAH         1

