### 
### Created by X-TOOL on Fri Nov  2 10:50:21 2018
### 

@<TRIPOS>MOLECULE
5gv2_ligand
   27    26     1     0     0
SMALL
GAST_HUCK


@<TRIPOS>ATOM
      1 N          23.6900   -7.2270   53.8560 N.4       1 ARG         0.2327
      2 CA         24.8810   -6.4750   54.3450 C.3       1 ARG         0.0284
      3 C          24.6250   -5.9570   55.7850 C.2       1 ARG         0.0844
      4 O          23.5450   -6.0810   56.3300 O.co2     1 ARG        -0.5643
      5 CB         25.2680   -5.3030   53.4100 C.3       1 ARG         0.0055
      6 CG         25.3220   -5.6610   51.9290 C.3       1 ARG        -0.0131
      7 CD         26.4720   -6.5940   51.6160 C.3       1 ARG         0.0628
      8 NE         26.1770   -7.4280   50.4820 N.pl3     1 ARG        -0.2723
      9 CZ         26.1320   -7.0330   49.2160 C.cat     1 ARG         0.2882
     10 NH1        26.4330   -5.7880   48.8400 N.pl3     1 ARG        -0.2849
     11 NH2        25.7920   -7.9320   48.2940 N.pl3     1 ARG        -0.2849
     12 OXT        25.5040   -5.4000   56.4040 O.co2     1 ARG        -0.5643
     13 H1         23.8638   -7.5601   52.9206 H         1 ARG         0.2010
     14 H2         22.8866   -6.6183   53.8520 H         1 ARG         0.2010
     15 H3         23.5145   -8.0111   54.4647 H         1 ARG         0.2010
     16 H4         25.7305   -7.1731   54.3761 H         1 ARG         0.1024
     17 H5         26.2612   -4.9382   53.7108 H         1 ARG         0.0340
     18 H6         24.5273   -4.5005   53.5417 H         1 ARG         0.0340
     19 H7         25.4439   -4.7375   51.3440 H         1 ARG         0.0302
     20 H8         24.3789   -6.1519   51.6471 H         1 ARG         0.0302
     21 H9         26.6625   -7.2334   52.4906 H         1 ARG         0.0689
     22 H10        27.3687   -5.9959   51.3967 H         1 ARG         0.0689
     23 H11        25.9831   -8.4220   50.6696 H         1 ARG         0.2642
     24 H12        26.3846   -5.5245   47.8455 H         1 ARG         0.2615
     25 H13        26.7136   -5.0909   49.5444 H         1 ARG         0.2615
     26 H14        25.5582   -8.8949   48.5752 H         1 ARG         0.2615
     27 H15        25.7629   -7.6643   47.2998 H         1 ARG         0.2615
@<TRIPOS>BOND
     1    1    2 1  
     2    2    3 1  
     3    2    5 1  
     4    3    4 ar 
     5    3   12 ar 
     6    5    6 1  
     7    6    7 1  
     8    7    8 1  
     9    8    9 ar 
    10    9   10 ar 
    11    9   11 ar 
    12    1   13 1  
    13    1   14 1  
    14    1   15 1  
    15    2   16 1  
    16    5   17 1  
    17    5   18 1  
    18    6   19 1  
    19    6   20 1  
    20    7   21 1  
    21    7   22 1  
    22    8   23 1  
    23   10   24 1  
    24   10   25 1  
    25   11   26 1  
    26   11   27 1  
@<TRIPOS>SUBSTRUCTURE
     1 ARG         1

