### 
### Created by X-TOOL on Mon Sep 10 21:13:33 2018
### 

@<TRIPOS>MOLECULE
5gvl_ligand
   55    58     1     0     0
SMALL
GAST_HUCK


@<TRIPOS>ATOM
      1 N9         19.9930  -33.8240  -17.3350 N.1       1 GI8        -0.3661
      2 C8         20.2610  -34.0060  -18.4540 C.1       1 GI8         0.0453
      3 C3         20.5560  -34.2040  -19.6840 C.2       1 GI8         0.0683
      4 C2         20.6230  -35.4860  -20.1380 C.2       1 GI8         0.2857
      5 N7         20.3890  -36.5300  -19.3460 N.pl3     1 GI8        -0.2573
      6 O1         20.9380  -35.8100  -21.5160 O.3       1 GI8        -0.1129
      7 C6         21.0530  -34.8110  -22.4410 C.2       1 GI8         0.2820
      8 N12        21.2110  -34.9790  -23.7550 N.pl3     1 GI8        -0.1712
      9 N11        21.2960  -33.6730  -24.2790 N.2       1 GI8        -0.2215
     10 C10        21.1880  -32.7200  -23.3270 C.2       1 GI8         0.0030
     11 C13        21.2230  -31.2340  -23.5960 C.3       1 GI8        -0.0262
     12 C5         21.0160  -33.4160  -22.0180 C.2       1 GI8        -0.0327
     13 C4         20.8220  -32.9720  -20.5850 C.3       1 GI8        -0.0527
     14 C14        22.0810  -32.2240  -20.0620 C.3       1 GI8        -0.1086
     15 C16        22.2760  -30.7840  -20.5500 C.3       1 GI8        -0.0809
     16 C15        23.3870  -32.9930  -20.2540 C.3       1 GI8        -0.0809
     17 C17        19.5440  -32.1440  -20.4930 C.ar      1 GI8        -0.1159
     18 C18        19.2730  -31.3710  -19.3590 C.ar      1 GI8        -0.0414
     19 C19        18.1140  -30.6200  -19.2250 C.ar      1 GI8         0.0992
     20 C23        17.9260  -29.9260  -18.1690 C.1       1 GI8         0.1021
     21 N24        17.7600  -29.3030  -17.2180 N.1       1 GI8        -0.3278
     22 C22        18.5680  -32.1490  -21.4890 C.ar      1 GI8        -0.0617
     23 C21        17.3990  -31.3890  -21.3790 C.ar      1 GI8        -0.0018
     24 C20        17.1510  -30.6260  -20.2410 C.ar      1 GI8        -0.0163
     25 C25        16.4620  -31.4610  -22.5200 C.2       1 GI8         0.0301
     26 S29        14.7850  -31.5770  -22.1800 S.3       1 GI8        -0.0306
     27 C28        14.3190  -31.6440  -23.8310 C.2       1 GI8         0.0441
     28 C27        15.4640  -31.5750  -24.6250 C.2       1 GI8        -0.0708
     29 C26        16.6520  -31.4660  -23.8930 C.2       1 GI8        -0.0784
     30 C30        12.8360  -31.7720  -24.1070 C.3       1 GI8         0.0958
     31 O31        12.2680  -30.6080  -24.7110 O.3       1 GI8        -0.3671
     32 C32        12.6080  -30.3790  -26.0890 C.3       1 GI8         0.0397
     33 H1         20.4486  -37.4864  -19.7236 H         1 GI8         0.2065
     34 H2         20.1483  -36.3814  -18.3556 H         1 GI8         0.2065
     35 H3         21.2601  -35.8679  -24.2730 H         1 GI8         0.2576
     36 H4         21.1144  -30.6871  -22.6478 H         1 GI8         0.0388
     37 H5         20.3979  -30.9641  -24.2715 H         1 GI8         0.0388
     38 H6         22.1822  -30.9686  -24.0645 H         1 GI8         0.0388
     39 H7         21.9279  -32.1496  -18.9753 H         1 GI8         0.0059
     40 H8         23.1957  -30.3696  -20.1113 H         1 GI8         0.0214
     41 H9         21.4150  -30.1726  -20.2419 H         1 GI8         0.0214
     42 H10        22.3574  -30.7764  -21.6469 H         1 GI8         0.0214
     43 H11        23.2572  -34.0285  -19.9064 H         1 GI8         0.0214
     44 H12        24.1863  -32.5089  -19.6737 H         1 GI8         0.0214
     45 H13        23.6578  -32.9953  -21.3201 H         1 GI8         0.0214
     46 H14        19.9974  -31.3582  -18.5527 H         1 GI8         0.0742
     47 H15        18.7194  -32.7585  -22.3725 H         1 GI8         0.0709
     48 H16        16.2366  -30.0519  -20.1444 H         1 GI8         0.0757
     49 H17        15.4361  -31.6033  -25.7133 H         1 GI8         0.0314
     50 H18        17.6337  -31.3920  -24.3586 H         1 GI8         0.0427
     51 H19        12.3188  -31.9578  -23.1541 H         1 GI8         0.0767
     52 H20        12.6795  -32.6264  -24.7818 H         1 GI8         0.0767
     53 H21        12.1150  -29.4606  -26.4405 H         1 GI8         0.0526
     54 H22        12.2707  -31.2317  -26.6965 H         1 GI8         0.0526
     55 H23        13.6983  -30.2693  -26.1843 H         1 GI8         0.0526
@<TRIPOS>BOND
     1    1    2 3  
     2    2    3 1  
     3    3    4 2  
     4    3   13 1  
     5    4    5 1  
     6    4    6 1  
     7    6    7 1  
     8    7    8 1  
     9    7   12 2  
    10    8    9 1  
    11    9   10 2  
    12   10   11 1  
    13   10   12 1  
    14   12   13 1  
    15   13   14 1  
    16   13   17 1  
    17   14   15 1  
    18   14   16 1  
    19   17   18 ar 
    20   17   22 ar 
    21   18   19 ar 
    22   19   20 1  
    23   19   24 ar 
    24   20   21 3  
    25   22   23 ar 
    26   23   24 ar 
    27   23   25 1  
    28   25   26 1  
    29   25   29 2  
    30   26   27 1  
    31   27   28 2  
    32   27   30 1  
    33   28   29 1  
    34   30   31 1  
    35   31   32 1  
    36    5   33 1  
    37    5   34 1  
    38    8   35 1  
    39   11   36 1  
    40   11   37 1  
    41   11   38 1  
    42   14   39 1  
    43   15   40 1  
    44   15   41 1  
    45   15   42 1  
    46   16   43 1  
    47   16   44 1  
    48   16   45 1  
    49   18   46 1  
    50   22   47 1  
    51   24   48 1  
    52   28   49 1  
    53   29   50 1  
    54   30   51 1  
    55   30   52 1  
    56   32   53 1  
    57   32   54 1  
    58   32   55 1  
@<TRIPOS>SUBSTRUCTURE
     1 GI8         1

