### 
### Created by X-TOOL on Mon Sep 10 21:13:34 2018
### 

@<TRIPOS>MOLECULE
5gvm_ligand
   58    61     1     0     0
SMALL
GAST_HUCK


@<TRIPOS>ATOM
      1 O52        39.9410   45.4310   21.9890 O.co2     1 G57        -0.5664
      2 C50        38.8570   45.5510   22.6090 C.2       1 G57         0.0463
      3 O51        38.2930   46.6640   22.7390 O.co2     1 G57        -0.5664
      4 C49        38.2280   44.3040   23.2100 C.3       1 G57         0.0335
      5 C42        36.7520   44.5260   23.4750 C.ar      1 G57        -0.0297
      6 C41        35.8400   44.5030   22.4130 C.ar      1 G57        -0.0505
      7 C43        36.3170   44.7650   24.7730 C.ar      1 G57        -0.0585
      8 C44        34.9660   45.0010   25.0050 C.ar      1 G57        -0.0675
      9 C45        34.0500   44.9700   23.9430 C.ar      1 G57        -0.0600
     10 C34        34.4790   44.6950   22.6490 C.ar      1 G57        -0.0158
     11 C20        33.4830   44.7140   21.5530 C.ar      1 G57         0.0163
     12 C19        33.7490   45.5130   20.4500 C.ar      1 G57        -0.0162
     13 C18        32.8310   45.6060   19.4070 C.ar      1 G57         0.0571
     14 C35        33.1290   46.4790   18.2190 C.3       1 G57         0.3796
     15 F48        32.2400   46.4280   17.2720 F         1 G57        -0.2194
     16 F47        33.2910   47.7120   18.6620 F         1 G57        -0.2194
     17 F46        34.2140   46.0630   17.6290 F         1 G57        -0.2194
     18 C17        31.6330   44.9090   19.4770 C.ar      1 G57        -0.0407
     19 C21        32.2830   44.0030   21.6180 C.ar      1 G57        -0.0374
     20 C16        31.3230   44.0980   20.5850 C.ar      1 G57        -0.0914
     21 C4         30.0200   43.2930   20.5700 C.3       1 G57        -0.0470
     22 C14        28.7650   43.9980   19.9970 C.3       1 G57        -0.1081
     23 C36        27.4770   43.1540   20.1000 C.3       1 G57        -0.0808
     24 C15        28.4830   45.4070   20.5630 C.3       1 G57        -0.0808
     25 C3         30.3530   42.0950   19.6620 C.2       1 G57         0.0689
     26 C8         30.7890   42.3140   18.4970 C.1       1 G57         0.0454
     27 N9         31.1860   42.5280   17.4360 N.1       1 G57        -0.3661
     28 C2         30.2000   40.8030   20.0210 C.2       1 G57         0.2858
     29 N7         30.4870   39.7690   19.2310 N.pl3     1 G57        -0.2573
     30 C5         29.7450   42.7880   21.9420 C.2       1 G57        -0.0321
     31 C10        29.5890   43.4280   23.2740 C.2       1 G57         0.0030
     32 C13        29.6380   44.8920   23.6220 C.3       1 G57        -0.0262
     33 N11        29.3870   42.4160   24.1390 N.2       1 G57        -0.2215
     34 N12        29.4310   41.1350   23.5650 N.pl3     1 G57        -0.1712
     35 C6         29.6280   41.3770   22.2810 C.2       1 G57         0.2821
     36 O1         29.7190   40.4400   21.3170 O.3       1 G57        -0.1128
     37 H1         38.7334   44.0647   24.1573 H         1 G57         0.0588
     38 H2         38.3472   43.4650   22.5087 H         1 G57         0.0588
     39 H3         36.1936   44.3351   21.4021 H         1 G57         0.0563
     40 H4         37.0228   44.7675   25.5957 H         1 G57         0.0561
     41 H5         34.6195   45.2098   26.0107 H         1 G57         0.0601
     42 H6         33.0000   45.1618   24.1324 H         1 G57         0.0568
     43 H7         34.6783   46.0689   20.3999 H         1 G57         0.0923
     44 H8         30.9222   44.9907   18.6627 H         1 G57         0.0929
     45 H9         32.0846   43.3683   22.4741 H         1 G57         0.0914
     46 H10        28.9695   44.1310   18.9244 H         1 G57         0.0060
     47 H11        26.6339   43.7184   19.6750 H         1 G57         0.0214
     48 H12        27.2709   42.9269   21.1564 H         1 G57         0.0214
     49 H13        27.6082   42.2152   19.5420 H         1 G57         0.0214
     50 H14        29.3947   46.0187   20.4949 H         1 G57         0.0214
     51 H15        28.1747   45.3244   21.6157 H         1 G57         0.0214
     52 H16        27.6789   45.8816   19.9815 H         1 G57         0.0214
     53 H17        30.3457   38.8068   19.5703 H         1 G57         0.2065
     54 H18        30.8501   39.9319   18.2810 H         1 G57         0.2065
     55 H19        29.4840   45.0170   24.7040 H         1 G57         0.0388
     56 H20        28.8468   45.4256   23.0750 H         1 G57         0.0388
     57 H21        30.6190   45.3030   23.3414 H         1 G57         0.0388
     58 H22        29.3330   40.2231   24.0337 H         1 G57         0.2576
@<TRIPOS>BOND
     1    1    2 ar 
     2    2    3 ar 
     3    2    4 1  
     4    4    5 1  
     5    5    6 ar 
     6    5    7 ar 
     7    6   10 ar 
     8    7    8 ar 
     9    8    9 ar 
    10    9   10 ar 
    11   10   11 1  
    12   11   12 ar 
    13   11   19 ar 
    14   12   13 ar 
    15   13   14 1  
    16   13   18 ar 
    17   14   15 1  
    18   14   16 1  
    19   14   17 1  
    20   18   20 ar 
    21   19   20 ar 
    22   20   21 1  
    23   21   22 1  
    24   21   25 1  
    25   21   30 1  
    26   22   23 1  
    27   22   24 1  
    28   25   26 1  
    29   25   28 2  
    30   26   27 3  
    31   28   29 1  
    32   28   36 1  
    33   30   31 1  
    34   30   35 2  
    35   31   32 1  
    36   31   33 2  
    37   33   34 1  
    38   34   35 1  
    39   35   36 1  
    40    4   37 1  
    41    4   38 1  
    42    6   39 1  
    43    7   40 1  
    44    8   41 1  
    45    9   42 1  
    46   12   43 1  
    47   18   44 1  
    48   19   45 1  
    49   22   46 1  
    50   23   47 1  
    51   23   48 1  
    52   23   49 1  
    53   24   50 1  
    54   24   51 1  
    55   24   52 1  
    56   29   53 1  
    57   29   54 1  
    58   32   55 1  
    59   32   56 1  
    60   32   57 1  
    61   34   58 1  
@<TRIPOS>SUBSTRUCTURE
     1 G57         1

