### 
### Created by X-TOOL on Mon Sep 10 21:13:34 2018
### 

@<TRIPOS>MOLECULE
5gvn_ligand
   58    61     1     0     0
SMALL
GAST_HUCK


@<TRIPOS>ATOM
      1 O58       -25.7630   23.7720   61.7230 O.co2     1 G6F        -0.5688
      2 C48       -26.4950   24.4450   62.4970 C.2       1 G6F         0.0367
      3 O55       -26.5730   24.2170   63.7380 O.co2     1 G6F        -0.5688
      4 C47       -27.3000   25.5630   61.8470 C.3       1 G6F         0.0098
      5 C46       -27.8380   26.6520   62.7950 C.3       1 G6F        -0.0076
      6 C42       -26.9320   27.8570   62.9330 C.ar      1 G6F        -0.0410
      7 C41       -26.4370   28.5410   61.8060 C.ar      1 G6F        -0.0527
      8 C43       -26.6040   28.2830   64.2190 C.ar      1 G6F        -0.0601
      9 C44       -25.7880   29.3800   64.3850 C.ar      1 G6F        -0.0678
     10 C45       -25.2930   30.0490   63.2690 C.ar      1 G6F        -0.0608
     11 C34       -25.6080   29.6480   61.9730 C.ar      1 G6F        -0.0235
     12 C20       -25.0310   30.4230   60.8350 C.ar      1 G6F        -0.0133
     13 C19       -24.3980   29.8020   59.7580 C.ar      1 G6F        -0.0118
     14 C18       -23.8540   30.5850   58.7320 C.ar      1 G6F         0.1404
     15 F35       -23.2440   30.0020   57.7000 F         1 G6F        -0.1812
     16 C17       -23.9490   31.9650   58.7850 C.ar      1 G6F        -0.0381
     17 C21       -25.1210   31.8170   60.8620 C.ar      1 G6F        -0.0678
     18 C16       -24.5770   32.6220   59.8520 C.ar      1 G6F        -0.1237
     19 C4        -24.6830   34.1460   59.8690 C.3       1 G6F        -0.0546
     20 C14       -23.4660   34.9140   59.2840 C.3       1 G6F        -0.1088
     21 C36       -23.5210   36.4400   59.4360 C.3       1 G6F        -0.0809
     22 C15       -22.0950   34.4390   59.7970 C.3       1 G6F        -0.0809
     23 C3        -25.9080   34.5170   59.0340 C.2       1 G6F         0.0680
     24 C8        -25.9690   34.0440   57.8520 C.1       1 G6F         0.0453
     25 N9        -26.0260   33.6130   56.7700 N.1       1 G6F        -0.3661
     26 C2        -26.8890   35.3310   59.5050 C.2       1 G6F         0.2857
     27 N7        -27.9620   35.6910   58.8020 N.pl3     1 G6F        -0.2573
     28 C5        -24.8480   34.5990   61.2820 C.2       1 G6F        -0.0329
     29 C10       -24.0930   34.3630   62.5450 C.2       1 G6F         0.0030
     30 C13       -22.8530   33.5270   62.7920 C.3       1 G6F        -0.0262
     31 N11       -24.7600   35.0490   63.4900 N.2       1 G6F        -0.2216
     32 N12       -25.9110   35.7300   63.0380 N.pl3     1 G6F        -0.1712
     33 C6        -25.9320   35.4570   61.7310 C.2       1 G6F         0.2820
     34 O1        -26.8480   35.8970   60.8330 O.3       1 G6F        -0.1129
     35 H1        -28.1612   25.1049   61.3386 H         1 G6F         0.0453
     36 H2        -26.6541   26.0537   61.1040 H         1 G6F         0.0453
     37 H3        -27.9731   26.2061   63.7914 H         1 G6F         0.0443
     38 H4        -28.8106   26.9938   62.4113 H         1 G6F         0.0443
     39 H5        -26.7008   28.2064   60.8093 H         1 G6F         0.0560
     40 H6        -26.9889   27.7540   65.0833 H         1 G6F         0.0558
     41 H7        -25.5320   29.7214   65.3815 H         1 G6F         0.0600
     42 H8        -24.6445   30.9057   63.4127 H         1 G6F         0.0567
     43 H9        -24.3277   28.7211   59.7155 H         1 G6F         0.0685
     44 H10       -23.5260   32.5538   57.9791 H         1 G6F         0.0664
     45 H11       -25.6293   32.2924   61.6931 H         1 G6F         0.0655
     46 H12       -23.4866   34.7063   58.2040 H         1 G6F         0.0059
     47 H13       -22.6184   36.8854   58.9922 H         1 G6F         0.0214
     48 H14       -23.5715   36.7006   60.5035 H         1 G6F         0.0214
     49 H15       -24.4124   36.8279   58.9213 H         1 G6F         0.0214
     50 H16       -22.0261   33.3454   59.7003 H         1 G6F         0.0214
     51 H17       -21.9810   34.7215   60.8540 H         1 G6F         0.0214
     52 H18       -21.2979   34.9105   59.2034 H         1 G6F         0.0214
     53 H19       -28.6682   36.3122   59.2219 H         1 G6F         0.2065
     54 H20       -28.0853   35.3481   57.8386 H         1 G6F         0.2065
     55 H21       -22.5758   33.5874   63.8548 H         1 G6F         0.0388
     56 H22       -22.0255   33.9073   62.1751 H         1 G6F         0.0388
     57 H23       -23.0578   32.4796   62.5255 H         1 G6F         0.0388
     58 H24       -26.5736   36.2992   63.5838 H         1 G6F         0.2576
@<TRIPOS>BOND
     1    1    2 ar 
     2    2    3 ar 
     3    2    4 1  
     4    4    5 1  
     5    5    6 1  
     6    6    7 ar 
     7    6    8 ar 
     8    7   11 ar 
     9    8    9 ar 
    10    9   10 ar 
    11   10   11 ar 
    12   11   12 1  
    13   12   13 ar 
    14   12   17 ar 
    15   13   14 ar 
    16   14   15 1  
    17   14   16 ar 
    18   16   18 ar 
    19   17   18 ar 
    20   18   19 1  
    21   19   20 1  
    22   19   23 1  
    23   19   28 1  
    24   20   21 1  
    25   20   22 1  
    26   23   24 1  
    27   23   26 2  
    28   24   25 3  
    29   26   27 1  
    30   26   34 1  
    31   28   29 1  
    32   28   33 2  
    33   29   30 1  
    34   29   31 2  
    35   31   32 1  
    36   32   33 1  
    37   33   34 1  
    38    4   35 1  
    39    4   36 1  
    40    5   37 1  
    41    5   38 1  
    42    7   39 1  
    43    8   40 1  
    44    9   41 1  
    45   10   42 1  
    46   13   43 1  
    47   16   44 1  
    48   17   45 1  
    49   20   46 1  
    50   21   47 1  
    51   21   48 1  
    52   21   49 1  
    53   22   50 1  
    54   22   51 1  
    55   22   52 1  
    56   27   53 1  
    57   27   54 1  
    58   30   55 1  
    59   30   56 1  
    60   30   57 1  
    61   32   58 1  
@<TRIPOS>SUBSTRUCTURE
     1 G6F         1

