### 
### Created by X-TOOL on Mon Sep 10 21:13:34 2018
### 

@<TRIPOS>MOLECULE
5gvp_ligand
   61    64     1     0     0
SMALL
GAST_HUCK


@<TRIPOS>ATOM
      1 O61        11.2680   18.4600   94.6770 O.co2     1 GCF        -0.5688
      2 C51        11.3230   17.3840   94.0280 C.2       1 GCF         0.0367
      3 O58        10.8630   17.2720   92.8650 O.co2     1 GCF        -0.5688
      4 C50        11.9560   16.1890   94.7190 C.3       1 GCF         0.0098
      5 C49        12.5410   15.1240   93.7720 C.3       1 GCF        -0.0076
      6 C42        14.0180   15.3170   93.5500 C.ar      1 GCF        -0.0410
      7 C41        14.8700   15.3110   94.6350 C.ar      1 GCF        -0.0521
      8 C43        14.5220   15.4900   92.2670 C.ar      1 GCF        -0.0601
      9 C44        15.8760   15.6640   92.0840 C.ar      1 GCF        -0.0678
     10 C45        16.7290   15.6650   93.1790 C.ar      1 GCF        -0.0602
     11 C34        16.2280   15.4820   94.4600 C.ar      1 GCF        -0.0161
     12 C20        17.1470   15.4870   95.6150 C.ar      1 GCF         0.0163
     13 C19        16.8200   16.2350   96.7300 C.ar      1 GCF        -0.0162
     14 C18        17.6760   16.2800   97.8240 C.ar      1 GCF         0.0571
     15 C35        17.3100   17.1170   99.0390 C.3       1 GCF         0.3796
     16 F48        18.1790   17.0660  100.0440 F         1 GCF        -0.2194
     17 F47        17.1460   18.3820   98.6760 F         1 GCF        -0.2194
     18 F46        16.1390   16.6780   99.4760 F         1 GCF        -0.2194
     19 C17        18.8740   15.5560   97.8010 C.ar      1 GCF        -0.0407
     20 C21        18.3270   14.7410   95.5900 C.ar      1 GCF        -0.0374
     21 C16        19.2360   14.7710   96.6690 C.ar      1 GCF        -0.0914
     22 C4         20.5250   13.9500   96.6620 C.3       1 GCF        -0.0470
     23 C14        21.7380   14.6430   97.3360 C.3       1 GCF        -0.1081
     24 C36        23.0470   13.8420   97.2830 C.3       1 GCF        -0.0808
     25 C15        22.0270   16.0770   96.8510 C.3       1 GCF        -0.0808
     26 C3         20.2320   12.6770   97.4800 C.2       1 GCF         0.0689
     27 C8         19.7380   12.8490   98.6390 C.1       1 GCF         0.0454
     28 N9         19.2850   13.0070   99.6990 N.1       1 GCF        -0.3661
     29 C2         20.5310   11.4320   97.0390 C.2       1 GCF         0.2858
     30 N7         20.3250   10.3230   97.7300 N.pl3     1 GCF        -0.2573
     31 C5         20.9250   13.5930   95.2640 C.2       1 GCF        -0.0321
     32 C10        21.1390   14.3570   93.9990 C.2       1 GCF         0.0030
     33 C13        21.0180   15.8440   93.7570 C.3       1 GCF        -0.0262
     34 N11        21.4740   13.4370   93.0720 N.2       1 GCF        -0.2215
     35 N12        21.4940   12.1020   93.5400 N.pl3     1 GCF        -0.1712
     36 C6         21.1750   12.2200   94.8280 C.2       1 GCF         0.2821
     37 O1         21.0940   11.2010   95.7340 O.3       1 GCF        -0.1128
     38 H1         11.1869   15.7073   95.3406 H         1 GCF         0.0453
     39 H2         12.7690   16.5576   95.3617 H         1 GCF         0.0453
     40 H3         12.0248   15.1885   92.8028 H         1 GCF         0.0443
     41 H4         12.3748   14.1290   94.2105 H         1 GCF         0.0443
     42 H5         14.4696   15.1709   95.6326 H         1 GCF         0.0560
     43 H6         13.8529   15.4881   91.4141 H         1 GCF         0.0558
     44 H7         16.2752   15.8001   91.0854 H         1 GCF         0.0600
     45 H8         17.7933   15.8097   93.0325 H         1 GCF         0.0567
     46 H9         15.8894   16.7905   96.7515 H         1 GCF         0.0923
     47 H10        19.5365   15.5934   98.6582 H         1 GCF         0.0929
     48 H11        18.5492   14.1268   94.7249 H         1 GCF         0.0914
     49 H12        21.4667   14.7250   98.3988 H         1 GCF         0.0060
     50 H13        23.8451   14.4103   97.7831 H         1 GCF         0.0214
     51 H14        23.3258   13.6640   96.2339 H         1 GCF         0.0214
     52 H15        22.9079   12.8779   97.7941 H         1 GCF         0.0214
     53 H16        21.0999   16.6682   96.8815 H         1 GCF         0.0214
     54 H17        22.4079   16.0455   95.8196 H         1 GCF         0.0214
     55 H18        22.7794   16.5409   97.5058 H         1 GCF         0.0214
     56 H19        20.5792    9.4101   97.3265 H         1 GCF         0.2065
     57 H20        19.9104   10.3724   98.6716 H         1 GCF         0.2065
     58 H21        21.2465   16.0638   92.7037 H         1 GCF         0.0388
     59 H22        21.7267   16.3799   94.4054 H         1 GCF         0.0388
     60 H23        19.9928   16.1705   93.9856 H         1 GCF         0.0388
     61 H24        21.7049   11.2437   93.0111 H         1 GCF         0.2576
@<TRIPOS>BOND
     1    1    2 ar 
     2    2    3 ar 
     3    2    4 1  
     4    4    5 1  
     5    5    6 1  
     6    6    7 ar 
     7    6    8 ar 
     8    7   11 ar 
     9    8    9 ar 
    10    9   10 ar 
    11   10   11 ar 
    12   11   12 1  
    13   12   13 ar 
    14   12   20 ar 
    15   13   14 ar 
    16   14   15 1  
    17   14   19 ar 
    18   15   16 1  
    19   15   17 1  
    20   15   18 1  
    21   19   21 ar 
    22   20   21 ar 
    23   21   22 1  
    24   22   23 1  
    25   22   26 1  
    26   22   31 1  
    27   23   24 1  
    28   23   25 1  
    29   26   27 1  
    30   26   29 2  
    31   27   28 3  
    32   29   30 1  
    33   29   37 1  
    34   31   32 1  
    35   31   36 2  
    36   32   33 1  
    37   32   34 2  
    38   34   35 1  
    39   35   36 1  
    40   36   37 1  
    41    4   38 1  
    42    4   39 1  
    43    5   40 1  
    44    5   41 1  
    45    7   42 1  
    46    8   43 1  
    47    9   44 1  
    48   10   45 1  
    49   13   46 1  
    50   19   47 1  
    51   20   48 1  
    52   23   49 1  
    53   24   50 1  
    54   24   51 1  
    55   24   52 1  
    56   25   53 1  
    57   25   54 1  
    58   25   55 1  
    59   30   56 1  
    60   30   57 1  
    61   33   58 1  
    62   33   59 1  
    63   33   60 1  
    64   35   61 1  
@<TRIPOS>SUBSTRUCTURE
     1 GCF         1

