### 
### Created by X-TOOL on Fri Nov  2 10:12:42 2018
### 

@<TRIPOS>MOLECULE
5gwa_ligand
   30    30     1     0     0
SMALL
GAST_HUCK


@<TRIPOS>ATOM
      1 OAC         8.1410   -2.8180   21.8830 O.2       1 NXL        -0.3828
      2 CAN         7.3910   -2.0360   21.3090 C.2       1 NXL         0.1743
      3 N           6.1640   -1.9040   21.5460 N.am      1 NXL        -0.2479
      4 CAJ         5.4190   -0.7630   21.0570 C.3       1 NXL         0.0807
      5 CA          5.5090   -2.8210   22.4690 C.3       1 NXL         0.1340
      6 C           4.4670   -3.6990   21.8660 C.2       1 NXL         0.1996
      7 O           4.0900   -3.5510   20.7180 O.2       1 NXL        -0.3947
      8 NAA         3.8890   -4.5500   22.7180 N.am      1 NXL        -0.2989
      9 CB          4.9250   -2.0270   23.6090 C.3       1 NXL        -0.0069
     10 CAH         4.1460   -0.8160   23.1540 C.3       1 NXL        -0.0025
     11 CAO         4.9670    0.0730   22.2300 C.3       1 NXL         0.0316
     12 NAK         6.1010    0.8000   22.8380 N.4       1 NXL         0.4138
     13 OAL         6.5960    0.2960   23.9490 O.3       1 NXL        -0.2010
     14 SAR         8.0430    0.6960   24.2570 S.o2      1 NXL        -0.0327
     15 OAD         7.9020    1.7890   25.1670 O.co2     1 NXL        -0.4578
     16 OAE         8.8330   -0.2460   24.9690 O.co2     1 NXL        -0.4578
     17 OAG         8.7480    0.7640   22.7860 O.co2     1 NXL        -0.4578
     18 H1          7.8223   -1.4061   20.5324 H         1 NXL         0.1547
     19 H2          4.5411   -1.1109   20.4929 H         1 NXL         0.0583
     20 H3          6.0611   -0.1583   20.3998 H         1 NXL         0.0583
     21 H4          6.2878   -3.4830   22.8755 H         1 NXL         0.0804
     22 H5          3.1787   -5.1756   22.3952 H         1 NXL         0.1815
     23 H6          4.1666   -4.5615   23.6786 H         1 NXL         0.1815
     24 H7          5.7471   -1.6902   24.2575 H         1 NXL         0.0314
     25 H8          4.2509   -2.6812   24.1813 H         1 NXL         0.0314
     26 H9          3.8485   -0.2320   24.0374 H         1 NXL         0.0323
     27 H10         3.2469   -1.1526   22.6171 H         1 NXL         0.0323
     28 H11         4.2830    0.8447   21.8472 H         1 NXL         0.0882
     29 H12         5.7907    1.7377   23.0392 H         1 NXL         0.2382
     30 H13         6.8446    0.8307   22.1581 H         1 NXL         0.2382
@<TRIPOS>BOND
     1    1    2 2  
     2    2    3 am 
     3    3    4 1  
     4    3    5 1  
     5    4   11 1  
     6    5    6 1  
     7    5    9 1  
     8    6    7 2  
     9    6    8 am 
    10    9   10 1  
    11   10   11 1  
    12   11   12 1  
    13   12   13 1  
    14   13   14 1  
    15   14   15 ar 
    16   14   16 ar 
    17   14   17 ar 
    18    2   18 1  
    19    4   19 1  
    20    4   20 1  
    21    5   21 1  
    22    8   22 1  
    23    8   23 1  
    24    9   24 1  
    25    9   25 1  
    26   10   26 1  
    27   10   27 1  
    28   11   28 1  
    29   12   29 1  
    30   12   30 1  
@<TRIPOS>SUBSTRUCTURE
     1 NXL         1

