### 
### Created by X-TOOL on Fri Nov  2 10:23:31 2018
### 

@<TRIPOS>MOLECULE
5gwy_ligand
   97    99     1     0     0
SMALL
GAST_HUCK


@<TRIPOS>ATOM
      1 C4        -40.7100   26.5770  -34.3520 C.2       1 MOL        -0.0165
      2 C5        -41.7390   26.1390  -35.0860 C.2       1 MOL         0.1392
      3 C6        -42.7820   25.1330  -34.7340 C.3       1 MOL         0.0097
      4 O1        -41.6820   26.7420  -36.2120 O.3       1 MOL        -0.1606
      5 N2        -40.6320   27.6000  -36.1870 N.2       1 MOL        -0.1328
      6 C3        -40.0080   27.4930  -35.0570 C.2       1 MOL         0.1131
      7 C41       -38.7500   28.2780  -34.6420 C.2       1 MOL         0.2113
      8 O42       -38.4630   28.4290  -33.4770 O.2       1 MOL        -0.3853
      9 N         -37.8900   28.8320  -35.6560 N.am      1 MOL        -0.2652
     10 CA        -36.7330   29.5410  -35.2140 C.3       1 MOL         0.1278
     11 C         -37.1180   30.9620  -34.8400 C.2       1 MOL         0.2036
     12 O         -38.1620   31.4650  -35.2540 O.2       1 MOL        -0.3944
     13 CB        -35.7640   29.6290  -36.3550 C.3       1 MOL        -0.0244
     14 N         -36.2410   31.7390  -33.9940 N.am      1 MOL        -0.2635
     15 CA        -36.6370   33.1050  -33.7050 C.3       1 MOL         0.1332
     16 C         -35.4050   33.9090  -33.9980 C.2       1 MOL         0.2041
     17 O         -34.2850   33.3730  -33.9520 O.2       1 MOL        -0.3944
     18 CB        -37.0870   33.3460  -32.2770 C.3       1 MOL        -0.0063
     19 CG1       -38.1810   32.3720  -31.8740 C.3       1 MOL        -0.0584
     20 CG2       -35.9280   33.2540  -31.3150 C.3       1 MOL        -0.0584
     21 N         -35.5280   35.3310  -34.3600 N.am      1 MOL        -0.2637
     22 CA        -34.3100   36.0330  -34.6060 C.3       1 MOL         0.1313
     23 C         -33.8440   36.4420  -33.1980 C.2       1 MOL         0.2045
     24 O         -34.6340   36.9580  -32.4150 O.2       1 MOL        -0.3943
     25 CB        -34.5890   37.2380  -35.4410 C.3       1 MOL        -0.0101
     26 CG        -34.3730   36.9700  -36.9530 C.3       1 MOL        -0.0425
     27 CD1       -34.2620   35.4670  -37.2730 C.3       1 MOL        -0.0625
     28 CD2       -35.6040   37.5890  -37.7590 C.3       1 MOL        -0.0625
     29 C19       -32.2100   36.6260  -31.3890 C.3       1 MOL         0.0828
     30 C20       -31.6950   38.0180  -31.4140 C.2       1 MOL        -0.0326
     31 C21       -31.7480   39.3980  -31.3430 C.2       1 MOL         0.0115
     32 C22       -32.8670   40.2880  -30.8640 C.2       1 MOL         0.2353
     33 C25       -31.2940   35.6600  -30.6530 C.3       1 MOL         0.0038
     34 C26       -32.1030   34.5800  -30.2360 C.3       1 MOL         0.0551
     35 C27       -32.9950   34.9980  -29.0610 C.3       1 MOL        -0.0127
     36 C28       -33.1970   33.7910  -28.4090 C.3       1 MOL         0.0332
     37 N6        -31.8600   33.0490  -28.5400 N.am      1 MOL        -0.2866
     38 C29       -31.2160   33.5020  -29.5980 C.2       1 MOL         0.1794
     39 O8        -30.1090   33.1410  -30.0140 O.2       1 MOL        -0.3968
     40 N5        -32.4870   36.1980  -32.7490 N.am      1 MOL        -0.2664
     41 O7        -33.7790   39.8550  -30.2590 O.2       1 MOL        -0.3744
     42 C         -33.6980   42.3360  -31.8910 C.3       1 MOL         0.1088
     43 O         -32.6810   41.6780  -31.1050 O.3       1 MOL        -0.2698
     44 C1        -36.1750   43.0460  -31.5130 C.ar      1 MOL        -0.0578
     45 C2        -37.1640   43.7660  -30.8580 C.ar      1 MOL        -0.0685
     46 C3        -36.7920   44.6120  -29.8140 C.ar      1 MOL        -0.0687
     47 C4        -35.4650   44.7570  -29.4060 C.ar      1 MOL        -0.0685
     48 C5        -34.4920   44.0200  -30.0640 C.ar      1 MOL        -0.0578
     49 C6        -34.8310   43.1580  -31.1190 C.ar      1 MOL        -0.0131
     50 H1        -40.4738   26.2466  -33.3416 H         1 MOL         0.0312
     51 H2        -43.4775   25.0153  -35.5780 H         1 MOL         0.0449
     52 H3        -43.3361   25.4742  -33.8471 H         1 MOL         0.0449
     53 H4        -42.3018   24.1674  -34.5173 H         1 MOL         0.0449
     54 H5        -38.0950   28.7243  -36.6288 H         1 MOL         0.1877
     55 H6        -36.2769   29.0270  -34.3551 H         1 MOL         0.0797
     56 H7        -34.8647   30.1735  -36.0311 H         1 MOL         0.0277
     57 H8        -36.2334   30.1629  -37.1944 H         1 MOL         0.0277
     58 H9        -35.4829   28.6153  -36.6764 H         1 MOL         0.0277
     59 H10       -35.3968   31.3517  -33.6233 H         1 MOL         0.1883
     60 H11       -37.4556   33.3988  -34.3784 H         1 MOL         0.0802
     61 H12       -37.4982   34.3646  -32.2197 H         1 MOL         0.0343
     62 H13       -38.4855   32.5716  -30.8360 H         1 MOL         0.0234
     63 H14       -37.8027   31.3422  -31.9535 H         1 MOL         0.0234
     64 H15       -39.0470   32.4970  -32.5406 H         1 MOL         0.0234
     65 H16       -35.1434   33.9633  -31.6173 H         1 MOL         0.0234
     66 H17       -35.5222   32.2317  -31.3264 H         1 MOL         0.0234
     67 H18       -36.2734   33.5001  -30.3001 H         1 MOL         0.0234
     68 H19       -36.4182   35.7812  -34.4298 H         1 MOL         0.1883
     69 H20       -33.5668   35.3922  -35.1030 H         1 MOL         0.0800
     70 H21       -33.9167   38.0497  -35.1262 H         1 MOL         0.0315
     71 H22       -35.6334   37.5444  -35.2819 H         1 MOL         0.0315
     72 H23       -33.4435   37.4655  -37.2700 H         1 MOL         0.0298
     73 H24       -34.1101   35.3326  -38.3541 H         1 MOL         0.0232
     74 H25       -35.1875   34.9575  -36.9666 H         1 MOL         0.0232
     75 H26       -33.4091   35.0378  -36.7268 H         1 MOL         0.0232
     76 H27       -35.6872   38.6624  -37.5336 H         1 MOL         0.0232
     77 H28       -36.5316   37.0787  -37.4605 H         1 MOL         0.0232
     78 H29       -35.4414   37.4525  -38.8383 H         1 MOL         0.0232
     79 H30       -33.1647   36.6374  -30.8427 H         1 MOL         0.0787
     80 H31       -30.6351   37.8524  -31.6016 H         1 MOL         0.0877
     81 H32       -30.8525   39.9168  -31.6819 H         1 MOL         0.0485
     82 H33       -30.8416   36.1548  -29.7810 H         1 MOL         0.0346
     83 H34       -30.4997   35.3026  -31.3249 H         1 MOL         0.0346
     84 H35       -32.6907   34.1896  -31.0799 H         1 MOL         0.0541
     85 H36       -33.9452   35.4260  -29.4130 H         1 MOL         0.0312
     86 H37       -32.4849   35.7233  -28.4101 H         1 MOL         0.0312
     87 H38       -34.0057   33.2210  -28.8897 H         1 MOL         0.0521
     88 H39       -33.4455   33.9586  -27.3506 H         1 MOL         0.0521
     89 H40       -31.5298   32.3358  -27.9217 H         1 MOL         0.1851
     90 H41       -31.7959   35.7686  -33.3303 H         1 MOL         0.1892
     91 H42       -34.2042   41.5609  -32.4851 H         1 MOL         0.0775
     92 H43       -33.1863   43.0389  -32.5649 H         1 MOL         0.0775
     93 H44       -36.4415   42.3919  -32.3353 H         1 MOL         0.0557
     94 H45       -38.2033   43.6727  -31.1516 H         1 MOL         0.0599
     95 H46       -37.5611   45.1776  -29.3006 H         1 MOL         0.0559
     96 H47       -35.2021   45.4280  -28.5962 H         1 MOL         0.0599
     97 H48       -33.4556   44.1107  -29.7597 H         1 MOL         0.0557
@<TRIPOS>BOND
     1    1    2 2  
     2    6    1 1  
     3    2    3 1  
     4    4    2 1  
     5    5    4 1  
     6    6    5 2  
     7    7    6 1  
     8    7    8 2  
     9    9    7 am 
    10   10    9 1  
    11   11   10 1  
    12   10   13 1  
    13   11   12 2  
    14   14   11 am 
    15   15   14 1  
    16   16   15 1  
    17   15   18 1  
    18   16   17 2  
    19   21   16 am 
    20   18   19 1  
    21   18   20 1  
    22   22   21 1  
    23   23   22 1  
    24   22   25 1  
    25   23   24 2  
    26   40   23 am 
    27   25   26 1  
    28   26   27 1  
    29   26   28 1  
    30   30   29 1  
    31   29   33 1  
    32   29   40 1  
    33   31   30 2  
    34   32   31 1  
    35   32   41 2  
    36   43   32 1  
    37   33   34 1  
    38   34   35 1  
    39   34   38 1  
    40   35   36 1  
    41   37   36 1  
    42   38   37 am 
    43   38   39 2  
    44   42   43 1  
    45   49   42 1  
    46   44   45 ar 
    47   44   49 ar 
    48   45   46 ar 
    49   46   47 ar 
    50   47   48 ar 
    51   48   49 ar 
    52    1   50 1  
    53    3   51 1  
    54    3   52 1  
    55    3   53 1  
    56    9   54 1  
    57   10   55 1  
    58   13   56 1  
    59   13   57 1  
    60   13   58 1  
    61   14   59 1  
    62   15   60 1  
    63   18   61 1  
    64   19   62 1  
    65   19   63 1  
    66   19   64 1  
    67   20   65 1  
    68   20   66 1  
    69   20   67 1  
    70   21   68 1  
    71   22   69 1  
    72   25   70 1  
    73   25   71 1  
    74   26   72 1  
    75   27   73 1  
    76   27   74 1  
    77   27   75 1  
    78   28   76 1  
    79   28   77 1  
    80   28   78 1  
    81   29   79 1  
    82   30   80 1  
    83   31   81 1  
    84   33   82 1  
    85   33   83 1  
    86   34   84 1  
    87   35   85 1  
    88   35   86 1  
    89   36   87 1  
    90   36   88 1  
    91   37   89 1  
    92   40   90 1  
    93   42   91 1  
    94   42   92 1  
    95   44   93 1  
    96   45   94 1  
    97   46   95 1  
    98   47   96 1  
    99   48   97 1  
@<TRIPOS>SUBSTRUCTURE
     1 MOL         1

