### 
### Created by X-TOOL on Mon Sep 10 21:13:32 2018
### 

@<TRIPOS>MOLECULE
5gwz_ligand
   95    97     1     0     0
SMALL
GAST_HUCK


@<TRIPOS>ATOM
      1 C4         -0.7590   32.7350    3.5030 C.2       1 02J        -0.0165
      2 C5         -1.8110   32.3550    4.2490 C.2       1 02J         0.1392
      3 C6         -2.7110   33.2550    5.0580 C.3       1 02J         0.0097
      4 O1         -1.8970   31.0450    4.1410 O.3       1 02J        -0.1606
      5 N2         -0.8920   30.5650    3.3170 N.2       1 02J        -0.1328
      6 C3         -0.2300   31.6210    2.9170 C.2       1 02J         0.1131
      7 C41         0.9990   31.7080    2.0420 C.2       1 02J         0.2113
      8 O42         1.8260   30.8270    1.9360 O.2       1 02J        -0.3853
      9 N           1.2230   32.9830    1.3820 N.am      1 ALA        -0.2652
     10 CA          2.4390   33.1560    0.6330 C.3       1 ALA         0.1278
     11 C           3.5620   33.4370    1.6320 C.2       1 ALA         0.2036
     12 O           3.3330   34.1010    2.6520 O.2       1 ALA        -0.3944
     13 CB          2.3170   34.3190   -0.3110 C.3       1 ALA        -0.0244
     14 N           4.9040   32.9250    1.3940 N.am      1 VAL        -0.2635
     15 CA          5.9460   33.2170    2.3700 C.3       1 VAL         0.1332
     16 C           7.0100   34.0750    1.7260 C.2       1 VAL         0.2041
     17 O           7.6350   33.6490    0.7470 O.2       1 VAL        -0.3944
     18 CB          6.5520   31.9210    2.8560 C.3       1 VAL        -0.0063
     19 CG1         7.6190   32.2210    3.8850 C.3       1 VAL        -0.0584
     20 CG2         5.4690   31.0660    3.4940 C.3       1 VAL        -0.0584
     21 N           7.3020   35.4290    2.2570 N.am      1 LEU        -0.2637
     22 CA          8.3240   36.2320    1.6460 C.3       1 LEU         0.1313
     23 C           9.6480   35.4920    1.8990 C.2       1 LEU         0.2045
     24 O           9.9420   35.1490    3.0410 O.2       1 LEU        -0.3943
     25 CB          8.3730   37.5710    2.3140 C.3       1 LEU        -0.0101
     26 CG          7.6970   38.6960    1.4780 C.3       1 LEU        -0.0425
     27 CD1         6.8870   38.1380    0.2940 C.3       1 LEU        -0.0625
     28 CD2         6.7320   39.5390    2.4350 C.3       1 LEU        -0.0625
     29 C19        11.7690   34.4360    1.1630 C.3       1 PJE         0.0841
     30 C20        12.9350   35.3680    1.2260 C.2       1 PJE        -0.0325
     31 C21        13.1670   35.7920    2.5330 C.2       1 PJE         0.0115
     32 C22        14.3650   36.6610    2.8280 C.2       1 PJE         0.2353
     33 C25        11.9650   33.2290    0.2480 C.3       1 PJE         0.0077
     34 C26        11.0160   32.2610    0.6540 C.3       1 PJE         0.0645
     35 C27        11.3750   31.7910    2.0730 C.2       1 PJE        -0.0691
     36 C28        11.0380   30.4440    2.0850 C.2       1 PJE         0.0145
     37 N6         11.1660   29.9540    0.6340 N.am      1 PJE        -0.2487
     38 C29        11.1530   30.9790   -0.1900 C.2       1 PJE         0.2045
     39 O8         11.2320   30.9190   -1.4190 O.2       1 PJE        -0.3941
     40 N5         10.5530   35.1600    0.8040 N.am      1 PJE        -0.2662
     41 O7         15.3560   36.4870    2.2290 O.2       1 PJE        -0.3744
     42 C          15.5540   37.6940    4.6420 C.3       1 010         0.1088
     43 O          14.3380   37.6330    3.8480 O.3       1 010        -0.2698
     44 C1         14.4190   36.2890    6.5510 C.ar      1 010        -0.0578
     45 C2         14.4840   35.2980    7.5360 C.ar      1 010        -0.0685
     46 C3         15.6770   34.6160    7.7520 C.ar      1 010        -0.0687
     47 C4         16.8100   34.9080    6.9950 C.ar      1 010        -0.0685
     48 C5         16.7410   35.8900    6.0250 C.ar      1 010        -0.0578
     49 C6         15.5520   36.5800    5.7830 C.ar      1 010        -0.0131
     50 H1         -0.3926   33.7539    3.3864 H         1 02J         0.0312
     51 H2         -3.4810   32.6495    5.5584 H         1 02J         0.0449
     52 H3         -3.1941   33.9850    4.3920 H         1 02J         0.0449
     53 H4         -2.1143   33.7868    5.8137 H         1 02J         0.0449
     54 H5          0.5503   33.7201    1.4467 H         1 ALA         0.1877
     55 H6          2.6596   32.2414    0.0631 H         1 ALA         0.0797
     56 H7          3.2552   34.4346   -0.8735 H         1 ALA         0.0277
     57 H8          2.1174   35.2367    0.2616 H         1 ALA         0.0277
     58 H9          1.4892   34.1369   -1.0122 H         1 ALA         0.0277
     59 H10         5.1065   32.3841    0.5776 H         1 VAL         0.1883
     60 H11         5.5090   33.7574    3.2226 H         1 VAL         0.0802
     61 H12         6.9977   31.3809    2.0077 H         1 VAL         0.0343
     62 H13         8.0613   31.2785    4.2400 H         1 VAL         0.0234
     63 H14         7.1696   32.7576    4.7336 H         1 VAL         0.0234
     64 H15         8.4022   32.8450    3.4299 H         1 VAL         0.0234
     65 H16         4.6902   30.8449    2.7493 H         1 VAL         0.0234
     66 H17         5.0235   31.6097    4.3401 H         1 VAL         0.0234
     67 H18         5.9096   30.1247    3.8542 H         1 VAL         0.0234
     68 H19         6.7882   35.7820    3.0389 H         1 LEU         0.1883
     69 H20         8.1387   36.3505    0.5682 H         1 LEU         0.0800
     70 H21         9.4264   37.8419    2.4781 H         1 LEU         0.0315
     71 H22         7.8579   37.4977    3.2832 H         1 LEU         0.0315
     72 H23         8.4811   39.3582    1.0821 H         1 LEU         0.0298
     73 H24         6.4311   38.9699   -0.2628 H         1 LEU         0.0232
     74 H25         6.0965   37.4728    0.6716 H         1 LEU         0.0232
     75 H26         7.5545   37.5727   -0.3729 H         1 LEU         0.0232
     76 H27         7.3114   39.9375    3.2809 H         1 LEU         0.0232
     77 H28         5.9309   38.8874    2.8139 H         1 LEU         0.0232
     78 H29         6.2901   40.3719    1.8685 H         1 LEU         0.0232
     79 H30        11.6282   34.0399    2.1795 H         1 PJE         0.0789
     80 H31        13.5256   35.6754    0.3643 H         1 PJE         0.0877
     81 H32        12.4901   35.4990    3.3341 H         1 PJE         0.0485
     82 H33        12.9846   32.8309    0.3567 H         1 PJE         0.0364
     83 H34        11.7925   33.5144   -0.8002 H         1 PJE         0.0364
     84 H35         9.9974   32.6730    0.6013 H         1 PJE         0.0632
     85 H36        11.7978   32.3809    2.8849 H         1 PJE         0.0250
     86 H37        10.7420   29.8526    2.9502 H         1 PJE         0.0812
     87 H38        11.2472   28.9965    0.3571 H         1 PJE         0.2275
     88 H39        10.3513   35.4147   -0.1418 H         1 PJE         0.1892
     89 H40        15.6281   38.6869    5.1097 H         1 010         0.0775
     90 H41        16.4208   37.5328    3.9843 H         1 010         0.0775
     91 H42        13.4945   36.8295    6.3832 H         1 010         0.0557
     92 H43        13.6077   35.0623    8.1290 H         1 010         0.0599
     93 H44        15.7258   33.8495    8.5170 H         1 010         0.0559
     94 H45        17.7358   34.3705    7.1652 H         1 010         0.0599
     95 H46        17.6240   36.1281    5.4430 H         1 010         0.0557
@<TRIPOS>BOND
     1    1    2 2  
     2    6    1 1  
     3    2    3 1  
     4    4    2 1  
     5    5    4 1  
     6    6    5 2  
     7    7    6 1  
     8    7    8 2  
     9    9    7 am 
    10   10    9 1  
    11   11   10 1  
    12   10   13 1  
    13   11   12 2  
    14   14   11 am 
    15   15   14 1  
    16   16   15 1  
    17   15   18 1  
    18   16   17 2  
    19   21   16 am 
    20   18   19 1  
    21   18   20 1  
    22   22   21 1  
    23   23   22 1  
    24   22   25 1  
    25   23   24 2  
    26   40   23 am 
    27   25   26 1  
    28   26   27 1  
    29   26   28 1  
    30   30   29 1  
    31   29   33 1  
    32   29   40 1  
    33   31   30 2  
    34   32   31 1  
    35   32   41 2  
    36   43   32 1  
    37   33   34 1  
    38   34   35 1  
    39   34   38 1  
    40   35   36 2  
    41   37   36 1  
    42   38   37 am 
    43   38   39 2  
    44   42   43 1  
    45   49   42 1  
    46   44   45 ar 
    47   44   49 ar 
    48   45   46 ar 
    49   46   47 ar 
    50   47   48 ar 
    51   48   49 ar 
    52    1   50 1  
    53    3   51 1  
    54    3   52 1  
    55    3   53 1  
    56    9   54 1  
    57   10   55 1  
    58   13   56 1  
    59   13   57 1  
    60   13   58 1  
    61   14   59 1  
    62   15   60 1  
    63   18   61 1  
    64   19   62 1  
    65   19   63 1  
    66   19   64 1  
    67   20   65 1  
    68   20   66 1  
    69   20   67 1  
    70   21   68 1  
    71   22   69 1  
    72   25   70 1  
    73   25   71 1  
    74   26   72 1  
    75   27   73 1  
    76   27   74 1  
    77   27   75 1  
    78   28   76 1  
    79   28   77 1  
    80   28   78 1  
    81   29   79 1  
    82   30   80 1  
    83   31   81 1  
    84   33   82 1  
    85   33   83 1  
    86   34   84 1  
    87   35   85 1  
    88   36   86 1  
    89   37   87 1  
    90   40   88 1  
    91   42   89 1  
    92   42   90 1  
    93   44   91 1  
    94   45   92 1  
    95   46   93 1  
    96   47   94 1  
    97   48   95 1  
@<TRIPOS>SUBSTRUCTURE
     1 02J         1

