### 
### Created by X-TOOL on Mon Sep 10 21:13:32 2018
### 

@<TRIPOS>MOLECULE
5gx6_ligand
   49    50     1     0     0
SMALL
GAST_HUCK


@<TRIPOS>ATOM
      1 C1         22.7210   15.8540   -4.3990 C.3       1 GCD         0.2075
      2 C2         22.7080   16.4090   -3.0020 C.3       1 GCD         0.1417
      3 C3         23.7100   15.6370   -2.1770 C.3       1 GCD         0.1056
      4 C4         23.3400   14.2920   -2.1590 C.2       1 GCD        -0.0271
      5 C5         22.6580   13.7410   -3.2480 C.2       1 GCD         0.1115
      6 C6         22.3240   12.3960   -3.3430 C.2       1 GCD         0.0810
      7 O2         23.0850   17.7920   -3.0410 O.3       1 GCD        -0.3820
      8 O3         23.5790   16.1490   -0.8390 O.3       1 GCD        -0.3804
      9 O5         22.3230   14.4640   -4.3690 O.3       1 GCD        -0.2949
     10 O6A        21.6890   11.9890   -4.3420 O.co2     1 GCD        -0.5623
     11 O6B        22.6570   11.5810   -2.4490 O.co2     1 GCD        -0.5623
     12 C1         22.2290   17.6710   -8.7830 C.3       1 ASG         0.1823
     13 C2         21.8930   17.7840   -7.3230 C.3       1 ASG         0.1212
     14 C3         22.2350   16.4840   -6.5950 C.3       1 ASG         0.1203
     15 C4         21.4470   15.3510   -7.2340 C.3       1 ASG         0.1412
     16 C5         21.8070   15.3300   -8.7320 C.3       1 ASG         0.1154
     17 C6         21.0120   14.3030   -9.5400 C.3       1 ASG         0.0731
     18 C7         22.0830   19.8470   -5.9760 C.2       1 ASG         0.1733
     19 C8         23.0750   20.8990   -5.4890 C.3       1 ASG         0.0257
     20 O1         21.7130   18.8240   -9.4290 O.3       1 ASG        -0.3651
     21 N          22.6410   18.9050   -6.7350 N.am      1 ASG        -0.2766
     22 O3         21.8110   16.6070   -5.2200 O.3       1 ASG        -0.3368
     23 O4         20.0470   15.6170   -7.1200 O.3       1 ASG        -0.2571
     24 O5         21.5020   16.5870   -9.3550 O.3       1 ASG        -0.3409
     25 O6         21.4390   14.4270  -10.9100 O.3       1 ASG        -0.3924
     26 O7         20.8710   19.9570   -5.7940 O.2       1 ASG        -0.3974
     27 OSA        18.6630   14.8180   -5.2030 O.co2     1 ASG        -0.4611
     28 OSB        19.8280   13.1550   -6.6370 O.co2     1 ASG        -0.4611
     29 OSC        17.8830   14.4380   -7.5480 O.co2     1 ASG        -0.4611
     30 S          19.1000   14.5010   -6.6270 S.o2      1 ASG        -0.0733
     31 H1         23.7365   15.9328   -4.8145 H         1 GCD         0.0990
     32 H2         21.7035   16.3084   -2.5652 H         1 GCD         0.0694
     33 H3         24.7326   15.7608   -2.5630 H         1 GCD         0.0743
     34 H4         23.5822   13.6717   -1.2973 H         1 GCD         0.0480
     35 H5         22.4540   18.2765   -3.5602 H         1 GCD         0.2103
     36 H6         24.1471   15.6587   -0.2565 H         1 GCD         0.2127
     37 H7         23.3129   17.5602   -8.9340 H         1 GCD         0.0932
     38 H8         20.8152   17.9772   -7.2177 H         1 GCD         0.0633
     39 H9         23.3151   16.2833   -6.6506 H         1 GCD         0.0650
     40 H10        21.6953   14.3911   -6.7576 H         1 GCD         0.0673
     41 H11        22.8821   15.1159   -8.8234 H         1 GCD         0.0648
     42 H12        19.9347   14.5101   -9.4594 H         1 GCD         0.0584
     43 H13        21.2190   13.2881   -9.1697 H         1 GCD         0.0584
     44 H14        22.5484   21.6414   -4.8714 H         1 GCD         0.0467
     45 H15        23.5323   21.4004   -6.3547 H         1 GCD         0.0467
     46 H16        23.8594   20.4137   -4.8897 H         1 GCD         0.0467
     47 H17        21.8591   18.7533  -10.3650 H         1 GCD         0.2126
     48 H18        23.6230   18.9636   -6.9148 H         1 GCD         0.1857
     49 H19        22.3711   14.2523  -10.9671 H         1 GCD         0.2095
@<TRIPOS>BOND
     1    1    2 1  
     2    1    9 1  
     3   22    1 1  
     4    2    3 1  
     5    2    7 1  
     6    3    4 1  
     7    3    8 1  
     8    5    4 2  
     9    5    6 1  
    10    9    5 1  
    11    6   10 ar 
    12    6   11 ar 
    13   13   12 1  
    14   12   20 1  
    15   12   24 1  
    16   13   14 1  
    17   21   13 1  
    18   14   15 1  
    19   14   22 1  
    20   15   16 1  
    21   15   23 1  
    22   16   17 1  
    23   24   16 1  
    24   17   25 1  
    25   18   19 1  
    26   18   21 am 
    27   18   26 2  
    28   23   30 1  
    29   30   27 ar 
    30   30   28 ar 
    31   30   29 ar 
    32    1   31 1  
    33    2   32 1  
    34    3   33 1  
    35    4   34 1  
    36    7   35 1  
    37    8   36 1  
    38   12   37 1  
    39   13   38 1  
    40   14   39 1  
    41   15   40 1  
    42   16   41 1  
    43   17   42 1  
    44   17   43 1  
    45   19   44 1  
    46   19   45 1  
    47   19   46 1  
    48   20   47 1  
    49   21   48 1  
    50   25   49 1  
@<TRIPOS>SUBSTRUCTURE
     1 GCD         1

