### 
### Created by X-TOOL on Mon Sep 10 21:13:33 2018
### 

@<TRIPOS>MOLECULE
5gx7_ligand
   49    50     1     0     0
SMALL
GAST_HUCK


@<TRIPOS>ATOM
      1 C1         16.8220  -16.0320   -4.5740 C.3       1 GCD         0.2075
      2 C2         16.8890  -16.7220   -3.1930 C.3       1 GCD         0.1417
      3 C3         15.9270  -15.9720   -2.2700 C.3       1 GCD         0.1056
      4 C4         16.1690  -14.4440   -2.3520 C.2       1 GCD        -0.0271
      5 C5         16.8880  -13.9060   -3.3590 C.2       1 GCD         0.1115
      6 C6         17.2720  -12.4980   -3.4710 C.2       1 GCD         0.0810
      7 O2         16.3460  -18.0400   -3.3970 O.3       1 GCD        -0.3820
      8 O3         16.0920  -16.4550   -0.9010 O.3       1 GCD        -0.3804
      9 O5         17.3470  -14.7340   -4.4470 O.3       1 GCD        -0.2949
     10 O6A        18.0580  -12.1840   -4.4350 O.co2     1 GCD        -0.5623
     11 O6B        16.8010  -11.6800   -2.6420 O.co2     1 GCD        -0.5623
     12 C1         17.4340  -17.9750   -8.9280 C.3       1 NG6         0.1823
     13 C2         17.7260  -18.0160   -7.4260 C.3       1 NG6         0.1211
     14 C3         17.2290  -16.7420   -6.7790 C.3       1 NG6         0.1179
     15 C4         17.8740  -15.5290   -7.4380 C.3       1 NG6         0.1121
     16 C5         17.6510  -15.6310   -8.9530 C.3       1 NG6         0.1154
     17 C6         18.3590  -14.5120   -9.6540 C.3       1 NG6         0.1024
     18 C7         17.6420  -20.1970   -6.1900 C.2       1 NG6         0.1733
     19 C8         16.6990  -21.3240   -5.7920 C.3       1 NG6         0.0257
     20 N          17.0300  -19.1390   -6.7710 N.am      1 NG6        -0.2766
     21 O1         18.0420  -19.1530   -9.4370 O.3       1 NG6        -0.3651
     22 O3         17.6600  -16.8040   -5.4490 O.3       1 NG6        -0.3369
     23 O4         19.2920  -15.5440   -7.2240 O.3       1 NG6        -0.3865
     24 O5         18.1700  -16.8710   -9.4800 O.3       1 NG6        -0.3409
     25 O6         17.9220  -14.8060  -10.9680 O.3       1 NG6        -0.2631
     26 O7         18.8630  -20.2670   -5.9580 O.2       1 NG6        -0.3974
     27 S          17.5410  -13.7270  -11.9120 S.o2      1 NG6        -0.0736
     28 O1S        16.7790  -14.1770  -13.0350 O.co2     1 NG6        -0.4611
     29 O2S        19.1350  -13.4010  -12.2010 O.co2     1 NG6        -0.4611
     30 O3S        16.7350  -12.7620  -11.2020 O.co2     1 NG6        -0.4611
     31 H1         15.7890  -15.9950   -4.9501 H         1 GCD         0.0990
     32 H2         17.9113  -16.7495   -2.7878 H         1 GCD         0.0694
     33 H3         14.8959  -16.1777   -2.5933 H         1 GCD         0.0743
     34 H4         15.7521  -13.7936   -1.5845 H         1 GCD         0.0480
     35 H5         16.9223  -18.5338   -3.9685 H         1 GCD         0.2103
     36 H6         15.9389  -17.3922   -0.8765 H         1 GCD         0.2127
     37 H7         16.3586  -17.9150   -9.1513 H         1 GCD         0.0932
     38 H8         18.8107  -18.1160   -7.2730 H         1 GCD         0.0633
     39 H9         16.1329  -16.6725   -6.8405 H         1 GCD         0.0649
     40 H10        17.4352  -14.6025   -7.0392 H         1 GCD         0.0647
     41 H11        16.5719  -15.5712   -9.1580 H         1 GCD         0.0648
     42 H12        19.4521  -14.5799   -9.5520 H         1 GCD         0.0610
     43 H13        18.0195  -13.5232   -9.3120 H         1 GCD         0.0610
     44 H14        17.2758  -22.1387   -5.3300 H         1 GCD         0.0467
     45 H15        16.1817  -21.7022   -6.6860 H         1 GCD         0.0467
     46 H16        15.9582  -20.9454   -5.0724 H         1 GCD         0.0467
     47 H17        16.0304  -19.1171   -6.7549 H         1 GCD         0.1857
     48 H18        17.9920  -19.1493  -10.3857 H         1 GCD         0.2126
     49 H19        19.4713  -15.4822   -6.2931 H         1 GCD         0.2100
@<TRIPOS>BOND
     1    1    2 1  
     2    1    9 1  
     3   22    1 1  
     4    2    3 1  
     5    2    7 1  
     6    3    4 1  
     7    3    8 1  
     8    5    4 2  
     9    5    6 1  
    10    9    5 1  
    11    6   10 ar 
    12    6   11 ar 
    13   13   12 1  
    14   12   21 1  
    15   12   24 1  
    16   13   14 1  
    17   20   13 1  
    18   14   15 1  
    19   14   22 1  
    20   15   16 1  
    21   15   23 1  
    22   16   17 1  
    23   24   16 1  
    24   17   25 1  
    25   18   19 1  
    26   18   20 am 
    27   18   26 2  
    28   25   27 1  
    29   27   28 ar 
    30   27   29 ar 
    31   27   30 ar 
    32    1   31 1  
    33    2   32 1  
    34    3   33 1  
    35    4   34 1  
    36    7   35 1  
    37    8   36 1  
    38   12   37 1  
    39   13   38 1  
    40   14   39 1  
    41   15   40 1  
    42   16   41 1  
    43   17   42 1  
    44   17   43 1  
    45   19   44 1  
    46   19   45 1  
    47   19   46 1  
    48   20   47 1  
    49   21   48 1  
    50   23   49 1  
@<TRIPOS>SUBSTRUCTURE
     1 GCD         1

