### 
### Created by X-TOOL on Mon Sep 10 21:13:34 2018
### 

@<TRIPOS>MOLECULE
5h08_ligand
   50    52     1     0     0
SMALL
GAST_HUCK


@<TRIPOS>ATOM
      1 C17        31.7900    2.1840   41.1370 C.ar      1 7WL        -0.0599
      2 C18        30.5160    2.3100   41.7610 C.ar      1 7WL        -0.0616
      3 C19        30.2610    1.7240   43.0050 C.ar      1 7WL        -0.0599
      4 C20        31.3100    0.9840   43.6150 C.ar      1 7WL        -0.0347
      5 N1         33.4880   -1.5850   43.0620 N.am      1 7WL        -0.1575
      6 F3         24.1320   -5.9260   46.6990 F         1 7WL        -0.2340
      7 C8         24.8920   -6.4090   45.7160 C.3       1 7WL         0.3595
      8 F1         24.8430   -5.5380   44.7010 F         1 7WL        -0.2340
      9 F2         24.4390   -7.6100   45.3750 F         1 7WL        -0.2340
     10 C1         26.3310   -6.4720   46.1460 C.ar      1 7WL         0.0244
     11 C2         27.3410   -6.2800   45.1880 C.ar      1 7WL        -0.0374
     12 C6         26.6730   -6.7210   47.4840 C.ar      1 7WL        -0.0436
     13 C5         28.0100   -6.7570   47.8380 C.ar      1 7WL        -0.0021
     14 C4         29.0250   -6.5390   46.8910 C.ar      1 7WL         0.1340
     15 O1         30.3730   -6.5420   47.1920 O.3       1 7WL        -0.2953
     16 C7         30.8460   -6.9380   48.4860 C.3       1 7WL         0.0759
     17 C21        32.3120   -7.3460   48.4080 C.3       1 7WL        -0.0357
     18 C3         28.6730   -6.2980   45.5660 C.ar      1 7WL         0.0323
     19 C9         29.6880   -6.0910   44.4830 C.3       1 7WL         0.0455
     20 S1         30.3250   -4.4070   44.2850 S.3       1 7WL        -0.0973
     21 C10        31.6260   -4.6790   43.1520 C.2       1 7WL         0.0232
     22 C11        31.9280   -5.8310   42.4440 C.2       1 7WL        -0.0494
     23 C12        33.0650   -5.7060   41.6620 C.2       1 7WL        -0.0006
     24 S2         33.7840   -4.1350   41.7680 S.3       1 7WL        -0.0367
     25 C13        32.5120   -3.6720   42.8890 C.2       1 7WL         0.1057
     26 C14        32.4550   -2.3640   43.4490 C.2       1 7WL         0.2163
     27 O2         31.6140   -1.9530   44.2460 O.2       1 7WL        -0.3978
     28 S3         33.7890   -0.1040   43.7970 S.o2      1 7WL         0.0896
     29 O4         35.1640    0.2230   43.3790 O.2       1 7WL        -0.1457
     30 O3         33.4360   -0.1350   45.2110 O.2       1 7WL        -0.1457
     31 C15        32.5700    0.8660   42.9900 C.ar      1 7WL         0.1130
     32 C16        32.8370    1.4500   41.7410 C.ar      1 7WL        -0.0347
     33 H1         31.9607    2.6609   40.1786 H         1 7WL         0.0618
     34 H2         29.7315    2.8690   41.2638 H         1 7WL         0.0618
     35 H3         29.2962    1.8306   43.4875 H         1 7WL         0.0618
     36 H4         31.1402    0.5043   44.5721 H         1 7WL         0.0637
     37 H5         34.0859   -1.8957   42.3231 H         1 7WL         0.2124
     38 H6         27.0764   -6.1172   44.1495 H         1 7WL         0.0736
     39 H7         25.9018   -6.8826   48.2285 H         1 7WL         0.0787
     40 H8         28.2804   -6.9578   48.8684 H         1 7WL         0.0638
     41 H9         30.2504   -7.7900   48.8456 H         1 7WL         0.0629
     42 H10        30.7401   -6.0954   49.1852 H         1 7WL         0.0629
     43 H11        32.6623   -7.6473   49.4062 H         1 7WL         0.0257
     44 H12        32.9109   -6.4954   48.0506 H         1 7WL         0.0257
     45 H13        32.4212   -8.1899   47.7110 H         1 7WL         0.0257
     46 H14        29.2255   -6.3877   43.5301 H         1 7WL         0.0551
     47 H15        30.5433   -6.7491   44.6961 H         1 7WL         0.0551
     48 H16        31.3328   -6.7414   42.4967 H         1 7WL         0.0435
     49 H17        33.4639   -6.5107   41.0461 H         1 7WL         0.0807
     50 H18        33.8031    1.3428   41.2611 H         1 7WL         0.0637
@<TRIPOS>BOND
     1    2    1 ar 
     2    1   32 ar 
     3    3    2 ar 
     4    4    3 ar 
     5   31    4 ar 
     6    5   26 am 
     7   28    5 am 
     8    7    6 1  
     9    7    8 1  
    10    7    9 1  
    11   10    7 1  
    12   11   10 ar 
    13   10   12 ar 
    14   18   11 ar 
    15   13   12 ar 
    16   14   13 ar 
    17   14   15 1  
    18   18   14 ar 
    19   15   16 1  
    20   16   17 1  
    21   19   18 1  
    22   20   19 1  
    23   21   20 1  
    24   21   22 1  
    25   25   21 2  
    26   23   22 2  
    27   24   23 1  
    28   25   24 1  
    29   26   25 1  
    30   26   27 2  
    31   28   29 2  
    32   28   30 2  
    33   28   31 1  
    34   31   32 ar 
    35    1   33 1  
    36    2   34 1  
    37    3   35 1  
    38    4   36 1  
    39    5   37 1  
    40   11   38 1  
    41   12   39 1  
    42   13   40 1  
    43   16   41 1  
    44   16   42 1  
    45   17   43 1  
    46   17   44 1  
    47   17   45 1  
    48   19   46 1  
    49   19   47 1  
    50   22   48 1  
    51   23   49 1  
    52   32   50 1  
@<TRIPOS>SUBSTRUCTURE
     1 7WL         1

