### 
### Created by X-TOOL on Mon Sep 10 21:13:32 2018
### 

@<TRIPOS>MOLECULE
5h09_ligand
   80    84     1     0     0
SMALL
GAST_HUCK


@<TRIPOS>ATOM
      1 O1          5.8530    3.6970    4.2850 O.3       1 OOO        -0.2729
      2 C3          4.1100   -3.4470   -1.8340 C.ar      1 OOO         0.0535
      3 C4          4.3680   -4.5910   -2.5300 C.ar      1 OOO         0.1172
      4 N5          5.5700   -5.1480   -2.4820 N.ar      1 OOO        -0.2727
      5 C6          6.5140   -4.5440   -1.7300 C.ar      1 OOO         0.0507
      6 N7          6.4060   -3.4210   -0.9990 N.ar      1 OOO        -0.2757
      7 N8          4.7200   -1.8800   -0.5450 N.pl3     1 OOO        -0.2456
      8 C9          3.5580   -1.5310   -0.7300 C.2       1 OOO         0.0405
      9 C10         3.0120   -2.4770   -1.5850 C.2       1 OOO        -0.0100
     10 N11         3.3380   -5.2100   -3.3370 N.pl3     1 OOO        -0.3157
     11 C12         1.5650   -2.5020   -2.0830 C.ar      1 OOO        -0.0471
     12 C13         5.5960   -1.0510    0.3030 C.3       1 OOO         0.0672
     13 C14         5.3050    0.4320    0.0590 C.3       1 OOO        -0.0176
     14 C15         6.3010    1.3300    0.7960 C.3       1 OOO        -0.0069
     15 C16         6.3790    1.0640    2.3030 C.3       1 OOO        -0.0203
     16 C17         6.5240   -0.4410    2.5660 C.3       1 OOO        -0.0069
     17 C18         5.4890   -1.2910    1.8080 C.3       1 OOO        -0.0176
     18 C19         0.9420   -1.3820   -2.6260 C.ar      1 OOO        -0.0693
     19 C20        -0.3850   -1.4400   -3.0470 C.ar      1 OOO        -0.0325
     20 C21        -1.1070   -2.6160   -2.9270 C.ar      1 OOO         0.1123
     21 C22        -0.4990   -3.7180   -2.3520 C.ar      1 OOO        -0.0325
     22 C23         0.8240   -3.6650   -1.9350 C.ar      1 OOO        -0.0693
     23 O24        -2.4650   -2.7420   -3.2830 O.3       1 OOO        -0.2602
     24 N25         7.5220    1.8140    2.8170 N.4       1 OOO         0.2494
     25 C26         6.3940    2.5590    4.8890 C.2       1 OOO         0.2828
     26 C27         7.5920    1.8350    4.2730 C.3       1 OOO         0.0786
     27 C28         8.8530    2.5770    4.7200 C.3       1 OOO         0.0116
     28 C29        10.0950    1.7370    4.4360 C.3       1 OOO        -0.0393
     29 C30        11.3400    2.6200    4.5090 C.3       1 OOO        -0.0623
     30 C31        10.1950    0.6080    5.4610 C.3       1 OOO        -0.0623
     31 C32        -2.9470   -2.2320   -4.4900 C.ar      1 OOO         0.1153
     32 C33        -4.1930   -1.6170   -4.4750 C.ar      1 OOO        -0.0286
     33 C34        -4.7390   -1.1200   -5.6470 C.ar      1 OOO        -0.0697
     34 C35        -4.0430   -1.2370   -6.8350 C.ar      1 OOO        -0.0723
     35 C36        -2.8050   -1.8630   -6.8520 C.ar      1 OOO        -0.0697
     36 C37        -2.2560   -2.3700   -5.6840 C.ar      1 OOO        -0.0286
     37 O38         5.9220    2.1610    5.9010 O.2       1 OOO        -0.3641
     38 C39         4.5190    3.9420    4.6350 C.3       1 OOO         0.0742
     39 C40         4.3430    5.4130    5.0140 C.3       1 OOO        -0.0371
     40 C2          5.1860   -2.9110   -1.0860 C.ar      1 OOO         0.1411
     41 H1          7.4845   -5.0267   -1.7133 H         1 OOO         0.0981
     42 H2          3.0589   -0.6591   -0.3098 H         1 OOO         0.0962
     43 H3          3.5425   -6.0740   -3.8591 H         1 OOO         0.1824
     44 H4          2.4006   -4.7865   -3.3891 H         1 OOO         0.1824
     45 H5          6.6329   -1.2641    0.0041 H         1 OOO         0.0648
     46 H6          4.2889    0.6595    0.4137 H         1 OOO         0.0297
     47 H7          5.3710    0.6360   -1.0199 H         1 OOO         0.0297
     48 H8          6.0012    2.3774    0.6442 H         1 OOO         0.0321
     49 H9          7.2994    1.1680    0.3636 H         1 OOO         0.0321
     50 H10         5.4599    1.4217    2.7900 H         1 OOO         0.0851
     51 H11         6.4019   -0.6209    3.6443 H         1 OOO         0.0321
     52 H12         7.5308   -0.7552    2.2535 H         1 OOO         0.0321
     53 H13         5.6712   -2.3552    2.0184 H         1 OOO         0.0297
     54 H14         4.4788   -1.0179    2.1469 H         1 OOO         0.0297
     55 H15         1.4951   -0.4547   -2.7224 H         1 OOO         0.0550
     56 H16        -0.8550   -0.5599   -3.4708 H         1 OOO         0.0544
     57 H17        -1.0633   -4.6349   -2.2255 H         1 OOO         0.0544
     58 H18         1.2822   -4.5407   -1.4896 H         1 OOO         0.0550
     59 H19         7.4559    2.7639    2.4864 H         1 OOO         0.2039
     60 H20         8.3664    1.3928    2.4624 H         1 OOO         0.2039
     61 H21         7.6203    0.7992    4.6422 H         1 OOO         0.1115
     62 H22         8.7912    2.7785    5.7996 H         1 OOO         0.0349
     63 H23         8.9265    3.5285    4.1730 H         1 OOO         0.0349
     64 H24        10.0175    1.3041    3.4277 H         1 OOO         0.0299
     65 H25        12.2334    2.0118    4.3039 H         1 OOO         0.0232
     66 H26        11.4190    3.0602    5.5140 H         1 OOO         0.0232
     67 H27        11.2640    3.4235    3.7616 H         1 OOO         0.0232
     68 H28         9.2953   -0.0221    5.4014 H         1 OOO         0.0232
     69 H29        10.2767    1.0359    6.4711 H         1 OOO         0.0232
     70 H30        11.0849   -0.0026    5.2483 H         1 OOO         0.0232
     71 H31        -4.7394   -1.5259   -3.5432 H         1 OOO         0.0552
     72 H32        -5.7108   -0.6400   -5.6322 H         1 OOO         0.0590
     73 H33        -4.4635   -0.8404   -7.7520 H         1 OOO         0.0527
     74 H34        -2.2626   -1.9565   -7.7859 H         1 OOO         0.0590
     75 H35        -1.2945   -2.8701   -5.7043 H         1 OOO         0.0552
     76 H36         4.2444    3.3091    5.4918 H         1 OOO         0.0610
     77 H37         3.8681    3.7050    3.7805 H         1 OOO         0.0610
     78 H38         3.2938    5.5981    5.2875 H         1 OOO         0.0255
     79 H39         4.6161    6.0474    4.1579 H         1 OOO         0.0255
     80 H40         4.9924    5.6516    5.8692 H         1 OOO         0.0255
@<TRIPOS>BOND
     1   25    1 1  
     2    1   38 1  
     3    2    3 ar 
     4    2    9 1  
     5   40    2 ar 
     6    3    4 ar 
     7    3   10 1  
     8    5    4 ar 
     9    6    5 ar 
    10   40    6 ar 
    11    7    8 1  
    12   12    7 1  
    13    7   40 1  
    14    8    9 2  
    15    9   11 1  
    16   11   18 ar 
    17   11   22 ar 
    18   13   12 1  
    19   17   12 1  
    20   14   13 1  
    21   15   14 1  
    22   15   16 1  
    23   24   15 1  
    24   16   17 1  
    25   18   19 ar 
    26   19   20 ar 
    27   21   20 ar 
    28   20   23 1  
    29   22   21 ar 
    30   23   31 1  
    31   26   24 1  
    32   25   26 1  
    33   25   37 2  
    34   26   27 1  
    35   27   28 1  
    36   28   29 1  
    37   28   30 1  
    38   31   32 ar 
    39   31   36 ar 
    40   32   33 ar 
    41   33   34 ar 
    42   34   35 ar 
    43   35   36 ar 
    44   38   39 1  
    45    5   41 1  
    46    8   42 1  
    47   10   43 1  
    48   10   44 1  
    49   12   45 1  
    50   13   46 1  
    51   13   47 1  
    52   14   48 1  
    53   14   49 1  
    54   15   50 1  
    55   16   51 1  
    56   16   52 1  
    57   17   53 1  
    58   17   54 1  
    59   18   55 1  
    60   19   56 1  
    61   21   57 1  
    62   22   58 1  
    63   24   59 1  
    64   24   60 1  
    65   26   61 1  
    66   27   62 1  
    67   27   63 1  
    68   28   64 1  
    69   29   65 1  
    70   29   66 1  
    71   29   67 1  
    72   30   68 1  
    73   30   69 1  
    74   30   70 1  
    75   32   71 1  
    76   33   72 1  
    77   34   73 1  
    78   35   74 1  
    79   36   75 1  
    80   38   76 1  
    81   38   77 1  
    82   39   78 1  
    83   39   79 1  
    84   39   80 1  
@<TRIPOS>SUBSTRUCTURE
     1 OOO         1

