### 
### Created by X-TOOL on Mon Sep 10 21:13:32 2018
### 

@<TRIPOS>MOLECULE
5h0b_ligand
   73    77     1     0     0
SMALL
GAST_HUCK


@<TRIPOS>ATOM
      1 C1          5.0260   -2.8340   -1.1980 C.ar      1 OOQ         0.1411
      2 C2          3.9240   -3.4420   -1.9490 C.ar      1 OOQ         0.0535
      3 C3          4.1970   -4.7110   -2.6590 C.ar      1 OOQ         0.1172
      4 N4          5.4480   -5.2160   -2.5530 N.ar      1 OOQ        -0.2727
      5 C5          6.4050   -4.6100   -1.8270 C.ar      1 OOQ         0.0507
      6 N6          6.2390   -3.4550   -1.1660 N.ar      1 OOQ        -0.2757
      7 N7          4.5970   -1.7000   -0.6440 N.pl3     1 OOQ        -0.2456
      8 C8          3.2950   -1.4840   -0.9660 C.2       1 OOQ         0.0405
      9 C9          2.7890   -2.4990   -1.7900 C.2       1 OOQ        -0.0100
     10 N10         3.2610   -5.3320   -3.4110 N.pl3     1 OOQ        -0.3157
     11 C11         1.3800   -2.5840   -2.2620 C.ar      1 OOQ        -0.0471
     12 C12         5.5050   -0.8280    0.1650 C.3       1 OOQ         0.0672
     13 C13         5.0450    0.6150    0.0070 C.3       1 OOQ        -0.0176
     14 C14         6.0840    1.5440    0.6320 C.3       1 OOQ        -0.0069
     15 C15         6.2650    1.2220    2.1110 C.3       1 OOQ        -0.0209
     16 C16         6.6620   -0.2400    2.2900 C.3       1 OOQ        -0.0069
     17 C17         5.6210   -1.1700    1.6440 C.3       1 OOQ        -0.0176
     18 C18         0.6550   -3.7660   -2.0760 C.ar      1 OOQ        -0.0693
     19 C19        -0.6850   -3.8290   -2.4680 C.ar      1 OOQ        -0.0325
     20 C20        -1.3020   -2.7200   -3.0390 C.ar      1 OOQ         0.1123
     21 C21        -0.5840   -1.5380   -3.1910 C.ar      1 OOQ        -0.0325
     22 C22         0.7530   -1.4650   -2.7990 C.ar      1 OOQ        -0.0693
     23 O23        -2.6430   -2.7880   -3.4010 O.3       1 OOQ        -0.2602
     24 N24         7.3150    2.1170    2.6690 N.4       1 OOQ         0.2431
     25 C25         6.2380    2.7750    4.7680 C.2       1 OOQ         0.0845
     26 C26         7.3800    2.0210    4.1380 C.3       1 OOQ         0.0306
     27 C27         8.6890    2.6480    4.6230 C.3       1 OOQ         0.0048
     28 C28         9.8710    1.7080    4.4590 C.3       1 OOQ        -0.0400
     29 C29         9.8090    0.5490    5.4490 C.3       1 OOQ        -0.0624
     30 C30        11.1810    2.4790    4.5960 C.3       1 OOQ        -0.0624
     31 C31        -3.1430   -2.2840   -4.5710 C.ar      1 OOQ         0.1153
     32 C32        -4.4010   -1.6630   -4.5660 C.ar      1 OOQ        -0.0286
     33 C33        -4.9120   -1.1700   -5.7640 C.ar      1 OOQ        -0.0697
     34 C34        -4.1810   -1.2710   -6.9420 C.ar      1 OOQ        -0.0723
     35 C35        -2.9270   -1.8880   -6.9490 C.ar      1 OOQ        -0.0697
     36 C36        -2.4220   -2.3980   -5.7590 C.ar      1 OOQ        -0.0286
     37 O37         5.8610    2.4290    5.9100 O.co2     1 OOQ        -0.5643
     38 O38         5.7180    3.7240    4.1490 O.co2     1 OOQ        -0.5643
     39 H1          7.3764   -5.0879   -1.7726 H         1 OOQ         0.0981
     40 H2          2.7153   -0.6272   -0.6257 H         1 OOQ         0.0962
     41 H3          3.4883   -6.2147   -3.8907 H         1 OOQ         0.1824
     42 H4          2.3205   -4.9225   -3.5043 H         1 OOQ         0.1824
     43 H5          6.5132   -0.9216   -0.2648 H         1 OOQ         0.0648
     44 H6          4.0781    0.7506    0.5136 H         1 OOQ         0.0297
     45 H7          4.9355    0.8515   -1.0617 H         1 OOQ         0.0297
     46 H8          5.7481    2.5862    0.5267 H         1 OOQ         0.0321
     47 H9          7.0450    1.4142    0.1128 H         1 OOQ         0.0321
     48 H10         5.3174    1.4015    2.6399 H         1 OOQ         0.0851
     49 H11         6.7309   -0.4664    3.3642 H         1 OOQ         0.0321
     50 H12         7.6402   -0.4090    1.8162 H         1 OOQ         0.0321
     51 H13         5.9402   -2.2166    1.7571 H         1 OOQ         0.0297
     52 H14         4.6459   -1.0291    2.1332 H         1 OOQ         0.0297
     53 H15         1.1315   -4.6309   -1.6289 H         1 OOQ         0.0550
     54 H16        -1.2461   -4.7456   -2.3267 H         1 OOQ         0.0544
     55 H17        -1.0674   -0.6665   -3.6175 H         1 OOQ         0.0544
     56 H18         1.3022   -0.5374   -2.9129 H         1 OOQ         0.0550
     57 H19         7.1050    3.0687    2.4118 H         1 OOQ         0.2033
     58 H20         8.2085    1.8541    2.2836 H         1 OOQ         0.2033
     59 H21         7.3361    0.9638    4.4387 H         1 OOQ         0.1025
     60 H22         8.5857    2.9047    5.6876 H         1 OOQ         0.0341
     61 H23         8.8804    3.5623    4.0422 H         1 OOQ         0.0341
     62 H24         9.8293    1.2851    3.4444 H         1 OOQ         0.0298
     63 H25        10.6788   -0.1076    5.2998 H         1 OOQ         0.0232
     64 H26         8.8846   -0.0242    5.2851 H         1 OOQ         0.0232
     65 H27         9.8190    0.9430    6.4760 H         1 OOQ         0.0232
     66 H28        11.1969    3.3065    3.8714 H         1 OOQ         0.0232
     67 H29        12.0265    1.8033    4.3995 H         1 OOQ         0.0232
     68 H30        11.2638    2.8830    5.6158 H         1 OOQ         0.0232
     69 H31        -4.9656   -1.5685   -3.6454 H         1 OOQ         0.0552
     70 H32        -5.8900   -0.7026   -5.7780 H         1 OOQ         0.0590
     71 H33        -4.5869   -0.8679   -7.8628 H         1 OOQ         0.0527
     72 H34        -2.3574   -1.9675   -7.8679 H         1 OOQ         0.0590
     73 H35        -1.4562   -2.8902   -5.7543 H         1 OOQ         0.0552
@<TRIPOS>BOND
     1    1    2 ar 
     2    1    6 ar 
     3    1    7 1  
     4    2    3 ar 
     5    2    9 1  
     6    3    4 ar 
     7    3   10 1  
     8    4    5 ar 
     9    5    6 ar 
    10    7    8 1  
    11    7   12 1  
    12    8    9 2  
    13    9   11 1  
    14   11   18 ar 
    15   11   22 ar 
    16   12   13 1  
    17   12   17 1  
    18   13   14 1  
    19   14   15 1  
    20   15   16 1  
    21   15   24 1  
    22   16   17 1  
    23   18   19 ar 
    24   19   20 ar 
    25   20   21 ar 
    26   20   23 1  
    27   21   22 ar 
    28   23   31 1  
    29   24   26 1  
    30   26   25 1  
    31   25   37 ar 
    32   25   38 ar 
    33   26   27 1  
    34   27   28 1  
    35   28   29 1  
    36   28   30 1  
    37   31   32 ar 
    38   31   36 ar 
    39   32   33 ar 
    40   33   34 ar 
    41   34   35 ar 
    42   35   36 ar 
    43    5   39 1  
    44    8   40 1  
    45   10   41 1  
    46   10   42 1  
    47   12   43 1  
    48   13   44 1  
    49   13   45 1  
    50   14   46 1  
    51   14   47 1  
    52   15   48 1  
    53   16   49 1  
    54   16   50 1  
    55   17   51 1  
    56   17   52 1  
    57   18   53 1  
    58   19   54 1  
    59   21   55 1  
    60   22   56 1  
    61   24   57 1  
    62   24   58 1  
    63   26   59 1  
    64   27   60 1  
    65   27   61 1  
    66   28   62 1  
    67   29   63 1  
    68   29   64 1  
    69   29   65 1  
    70   30   66 1  
    71   30   67 1  
    72   30   68 1  
    73   32   69 1  
    74   33   70 1  
    75   34   71 1  
    76   35   72 1  
    77   36   73 1  
@<TRIPOS>SUBSTRUCTURE
     1 OOQ         1

