### 
### Created by X-TOOL on Mon Sep 10 21:13:32 2018
### 

@<TRIPOS>MOLECULE
5h0e_ligand
   75    79     1     0     0
SMALL
GAST_HUCK


@<TRIPOS>ATOM
      1 C1          5.2590   -3.0250   -0.9570 C.ar      1 OOS         0.1411
      2 C2          4.1700   -3.5730   -1.7450 C.ar      1 OOS         0.0535
      3 C3          4.4290   -4.7110   -2.4720 C.ar      1 OOS         0.1172
      4 N4          5.6470   -5.2690   -2.4210 N.ar      1 OOS        -0.2727
      5 C5          6.6020   -4.6640   -1.6330 C.ar      1 OOS         0.0507
      6 N6          6.4940   -3.5460   -0.8740 N.ar      1 OOS        -0.2757
      7 N7          4.7690   -1.9990   -0.3840 N.pl3     1 OOS        -0.2456
      8 C8          3.5900   -1.6400   -0.5770 C.2       1 OOS         0.0405
      9 C9          3.0620   -2.5820   -1.4620 C.2       1 OOS        -0.0100
     10 N10         3.4550   -5.2860   -3.2710 N.pl3     1 OOS        -0.3157
     11 C11         1.5940   -2.5890   -1.9770 C.ar      1 OOS        -0.0471
     12 C12         5.6150   -1.1770    0.4820 C.3       1 OOS         0.0672
     13 C13         5.3660    0.2710    0.1590 C.3       1 OOS        -0.0176
     14 C14         6.3670    1.1680    0.9160 C.3       1 OOS        -0.0069
     15 C15         6.3440    0.9620    2.4340 C.3       1 OOS        -0.0204
     16 C16         6.4400   -0.5000    2.7300 C.3       1 OOS        -0.0069
     17 C17         5.3840   -1.3390    1.9600 C.3       1 OOS        -0.0176
     18 C18         1.0090   -1.4390   -2.5080 C.ar      1 OOS        -0.0693
     19 C19        -0.3230   -1.4700   -2.9430 C.ar      1 OOS        -0.0325
     20 C20        -1.0600   -2.6420   -2.8470 C.ar      1 OOS         0.1123
     21 C21        -0.4790   -3.7940   -2.2870 C.ar      1 OOS        -0.0325
     22 C22         0.8480   -3.7660   -1.8570 C.ar      1 OOS        -0.0693
     23 O23        -2.4340   -2.7440   -3.2180 O.3       1 OOS        -0.2602
     24 N24         7.4720    1.7010    2.9920 N.4       1 OOS         0.2483
     25 C25         6.6290    2.9320    4.8950 C.2       1 OOS         0.2221
     26 C26         7.4590    1.7950    4.4420 C.3       1 OOS         0.0669
     27 C27         8.8780    2.0520    4.9940 C.3       1 OOS         0.0102
     28 C28         9.9340    1.1560    4.3060 C.3       1 OOS        -0.0394
     29 C29        11.2790    1.8740    4.2960 C.3       1 OOS        -0.0623
     30 C30        10.0640   -0.1370    5.0690 C.3       1 OOS        -0.0623
     31 C31        -2.9360   -2.2420   -4.4570 C.ar      1 OOS         0.1153
     32 C32        -2.2030   -2.3490   -5.6470 C.ar      1 OOS        -0.0286
     33 C33        -2.7400   -1.8810   -6.8270 C.ar      1 OOS        -0.0697
     34 C34        -3.9860   -1.3130   -6.8470 C.ar      1 OOS        -0.0723
     35 C35        -4.7350   -1.2170   -5.6630 C.ar      1 OOS        -0.0697
     36 C36        -4.1940   -1.6900   -4.4650 C.ar      1 OOS        -0.0286
     37 O37         6.1540    3.7210    4.0800 O.2       1 OOS        -0.3911
     38 N38         6.3890    3.1090    6.3340 N.am      1 OOS        -0.2963
     39 H1          7.5718   -5.1481   -1.6180 H         1 OOS         0.0981
     40 H2          3.0820   -0.7777   -0.1477 H         1 OOS         0.0962
     41 H3          3.6671   -6.1386   -3.8086 H         1 OOS         0.1824
     42 H4          2.5184   -4.8611   -3.3277 H         1 OOS         0.1824
     43 H5          6.6641   -1.4291    0.2679 H         1 OOS         0.0648
     44 H6          4.3416    0.5384    0.4573 H         1 OOS         0.0297
     45 H7          5.4854    0.4272   -0.9233 H         1 OOS         0.0297
     46 H8          6.1226    2.2192    0.7034 H         1 OOS         0.0321
     47 H9          7.3801    0.9457    0.5497 H         1 OOS         0.0321
     48 H10         5.4055    1.3541    2.8529 H         1 OOS         0.0851
     49 H11         6.2902   -0.6510    3.8092 H         1 OOS         0.0321
     50 H12         7.4431   -0.8512    2.4463 H         1 OOS         0.0321
     51 H13         5.4832   -2.3994    2.2351 H         1 OOS         0.0297
     52 H14         4.3741   -0.9865    2.2166 H         1 OOS         0.0297
     53 H15         1.5837   -0.5231   -2.5840 H         1 OOS         0.0550
     54 H16        -0.7784   -0.5768   -3.3552 H         1 OOS         0.0544
     55 H17        -1.0617   -4.7028   -2.1896 H         1 OOS         0.0544
     56 H18         1.2998   -4.6545   -1.4309 H         1 OOS         0.0550
     57 H19         7.4569    2.6353    2.6139 H         1 OOS         0.2038
     58 H20         8.3230    1.2390    2.7122 H         1 OOS         0.2038
     59 H21         7.0624    0.8559    4.8554 H         1 OOS         0.1099
     60 H22         8.8831    1.8428    6.0739 H         1 OOS         0.0348
     61 H23         9.1406    3.1065    4.8235 H         1 OOS         0.0348
     62 H24         9.6214    0.9447    3.2728 H         1 OOS         0.0299
     63 H25        12.0308    1.2373    3.8067 H         1 OOS         0.0232
     64 H26        11.5914    2.0818    5.3300 H         1 OOS         0.0232
     65 H27        11.1851    2.8208    3.7440 H         1 OOS         0.0232
     66 H28         9.0946   -0.6568    5.0775 H         1 OOS         0.0232
     67 H29        10.3745    0.0767    6.1024 H         1 OOS         0.0232
     68 H30        10.8177   -0.7748    4.5841 H         1 OOS         0.0232
     69 H31        -1.2166   -2.7985   -5.6393 H         1 OOS         0.0552
     70 H32        -2.1716   -1.9632   -7.7464 H         1 OOS         0.0590
     71 H33        -4.3946   -0.9370   -7.7780 H         1 OOS         0.0527
     72 H34        -5.7264   -0.7788   -5.6785 H         1 OOS         0.0590
     73 H35        -4.7644   -1.6218   -3.5457 H         1 OOS         0.0552
     74 H36         5.8301    3.8725    6.6575 H         1 OOS         0.1816
     75 H37         6.7846    2.4659    6.9897 H         1 OOS         0.1816
@<TRIPOS>BOND
     1    1    2 ar 
     2    1    6 ar 
     3    1    7 1  
     4    2    3 ar 
     5    2    9 1  
     6    3    4 ar 
     7    3   10 1  
     8    4    5 ar 
     9    5    6 ar 
    10    7    8 1  
    11    7   12 1  
    12    8    9 2  
    13    9   11 1  
    14   11   18 ar 
    15   11   22 ar 
    16   12   13 1  
    17   12   17 1  
    18   13   14 1  
    19   14   15 1  
    20   15   16 1  
    21   15   24 1  
    22   16   17 1  
    23   18   19 ar 
    24   19   20 ar 
    25   20   21 ar 
    26   20   23 1  
    27   21   22 ar 
    28   23   31 1  
    29   24   26 1  
    30   26   25 1  
    31   25   37 2  
    32   25   38 am 
    33   26   27 1  
    34   27   28 1  
    35   28   29 1  
    36   28   30 1  
    37   31   32 ar 
    38   31   36 ar 
    39   32   33 ar 
    40   33   34 ar 
    41   34   35 ar 
    42   35   36 ar 
    43    5   39 1  
    44    8   40 1  
    45   10   41 1  
    46   10   42 1  
    47   12   43 1  
    48   13   44 1  
    49   13   45 1  
    50   14   46 1  
    51   14   47 1  
    52   15   48 1  
    53   16   49 1  
    54   16   50 1  
    55   17   51 1  
    56   17   52 1  
    57   18   53 1  
    58   19   54 1  
    59   21   55 1  
    60   22   56 1  
    61   24   57 1  
    62   24   58 1  
    63   26   59 1  
    64   27   60 1  
    65   27   61 1  
    66   28   62 1  
    67   29   63 1  
    68   29   64 1  
    69   29   65 1  
    70   30   66 1  
    71   30   67 1  
    72   30   68 1  
    73   32   69 1  
    74   33   70 1  
    75   34   71 1  
    76   35   72 1  
    77   36   73 1  
    78   38   74 1  
    79   38   75 1  
@<TRIPOS>SUBSTRUCTURE
     1 OOS         1

