### 
### Created by X-TOOL on Mon Sep 10 21:13:32 2018
### 

@<TRIPOS>MOLECULE
5h0g_ligand
   78    82     1     0     0
SMALL
GAST_HUCK


@<TRIPOS>ATOM
      1 N01         5.3380   -5.3380   -2.5520 N.ar      1 OOU        -0.2727
      2 C01         6.2980   -4.8320   -1.6890 C.ar      1 OOU         0.0507
      3 N02         6.1780   -3.7610   -0.8730 N.ar      1 OOU        -0.2757
      4 C02         4.9400   -3.1710   -0.9740 C.ar      1 OOU         0.1411
      5 C03         3.8380   -3.5770   -1.8050 C.ar      1 OOU         0.0535
      6 C04         4.1330   -4.7070   -2.5920 C.ar      1 OOU         0.1172
      7 N03         4.5540   -2.0580   -0.2670 N.pl3     1 OOU        -0.2456
      8 C05         3.2290   -1.7660   -0.6410 C.2       1 OOU         0.0405
      9 C06         2.7620   -2.6340   -1.5860 C.2       1 OOU        -0.0100
     10 C07         1.4190   -2.5520   -2.0770 C.ar      1 OOU        -0.0471
     11 C08         5.3920   -1.3530    0.7160 C.3       1 OOU         0.0672
     12 N04         3.1360   -5.1960   -3.4880 N.pl3     1 OOU        -0.3157
     13 C09         5.5830    0.0740    0.2220 C.3       1 OOU        -0.0176
     14 C10         6.3470    0.9290    1.2680 C.3       1 OOU        -0.0069
     15 C11         5.6070    0.9320    2.6380 C.3       1 OOU        -0.0204
     16 C12         5.4400   -0.5120    3.1010 C.3       1 OOU        -0.0069
     17 C13         4.6920   -1.3470    2.0610 C.3       1 OOU        -0.0176
     18 N05         6.4120    1.7010    3.6170 N.4       1 OOU         0.2483
     19 C14         6.7470    3.0850    3.2650 C.3       1 OOU         0.0671
     20 C15         0.7860   -1.4270   -2.5940 C.ar      1 OOU        -0.0693
     21 C16        -0.5420   -1.4600   -3.0300 C.ar      1 OOU        -0.0325
     22 C17        -1.3010   -2.6290   -2.9320 C.ar      1 OOU         0.1123
     23 C18        -0.6910   -3.7620   -2.3940 C.ar      1 OOU        -0.0325
     24 C19         0.6310   -3.7090   -1.9730 C.ar      1 OOU        -0.0693
     25 O01        -2.6300   -2.6760   -3.3160 O.3       1 OOU        -0.2602
     26 C20        -3.1040   -2.1970   -4.5030 C.ar      1 OOU         0.1153
     27 C21        -2.3320   -2.2870   -5.6760 C.ar      1 OOU        -0.0286
     28 C22        -2.8340   -1.8120   -6.8710 C.ar      1 OOU        -0.0697
     29 C23        -4.1070   -1.2540   -6.9170 C.ar      1 OOU        -0.0723
     30 C24        -4.8780   -1.1830   -5.7660 C.ar      1 OOU        -0.0697
     31 C25        -4.3910   -1.6410   -4.5480 C.ar      1 OOU        -0.0286
     32 C26         7.3990    3.6590    4.5250 C.2       1 OOU         0.2243
     33 O02         6.8560    3.5500    5.6270 O.2       1 OOU        -0.3909
     34 N06         8.6230    4.2900    4.4020 N.am      1 OOU        -0.2854
     35 C27         5.5240    3.9810    2.8560 C.3       1 OOU         0.0103
     36 C28         5.9680    5.3770    2.3610 C.3       1 OOU        -0.0394
     37 C29         6.7440    5.2790    1.0340 C.3       1 OOU        -0.0623
     38 C30         4.7510    6.2950    2.1700 C.3       1 OOU        -0.0623
     39 C31         9.2700    4.8400    5.5900 C.3       1 OOU         0.0197
     40 H1          7.2488   -5.3521   -1.6661 H         1 OOU         0.0981
     41 H2          2.6456   -0.9454   -0.2261 H         1 OOU         0.0962
     42 H3          6.3676   -1.8525    0.8090 H         1 OOU         0.0648
     43 H4          2.2162   -4.7350   -3.5362 H         1 OOU         0.1824
     44 H5          3.3361   -6.0100   -4.0866 H         1 OOU         0.1824
     45 H6          4.5970    0.5261    0.0394 H         1 OOU         0.0297
     46 H7          6.1574    0.0558   -0.7159 H         1 OOU         0.0297
     47 H8          6.4247    1.9625    0.8995 H         1 OOU         0.0321
     48 H9          7.3555    0.5119    1.4054 H         1 OOU         0.0321
     49 H10         4.6178    1.4003    2.5280 H         1 OOU         0.0851
     50 H11         4.8732   -0.5226    4.0437 H         1 OOU         0.0321
     51 H12         6.4343   -0.9525    3.2660 H         1 OOU         0.0321
     52 H13         4.6175   -2.3821    2.4256 H         1 OOU         0.0297
     53 H14         3.6823   -0.9300    1.9324 H         1 OOU         0.0297
     54 H15         7.2783    1.2044    3.7548 H         1 OOU         0.2038
     55 H16         5.8965    1.7241    4.4829 H         1 OOU         0.2038
     56 H17         7.4649    3.0815    2.4316 H         1 OOU         0.1099
     57 H18         1.3386   -0.4968   -2.6610 H         1 OOU         0.0550
     58 H19        -0.9890   -0.5662   -3.4499 H         1 OOU         0.0544
     59 H20        -1.2504   -4.6862   -2.3043 H         1 OOU         0.0544
     60 H21         1.0743   -4.6008   -1.5449 H         1 OOU         0.0550
     61 H22        -1.3430   -2.7294   -5.6413 H         1 OOU         0.0552
     62 H23        -2.2362   -1.8739   -7.7731 H         1 OOU         0.0590
     63 H24        -4.4975   -0.8738   -7.8540 H         1 OOU         0.0527
     64 H25        -5.8762   -0.7636   -5.8177 H         1 OOU         0.0590
     65 H26        -4.9939   -1.5700   -3.6499 H         1 OOU         0.0552
     66 H27         9.0617    4.3691    3.5068 H         1 OOU         0.1849
     67 H28         4.8677    4.1064    3.7298 H         1 OOU         0.0348
     68 H29         4.9694    3.4784    2.0499 H         1 OOU         0.0348
     69 H30         6.6282    5.8197    3.1213 H         1 OOU         0.0299
     70 H31         7.0448    6.2862    0.7099 H         1 OOU         0.0232
     71 H32         6.1014    4.8234    0.2662 H         1 OOU         0.0232
     72 H33         7.6400    4.6575    1.1782 H         1 OOU         0.0232
     73 H34         4.1943    6.3673    3.1160 H         1 OOU         0.0232
     74 H35         4.0964    5.8786    1.3902 H         1 OOU         0.0232
     75 H36         5.0909    7.2963    1.8672 H         1 OOU         0.0232
     76 H37        10.2274    5.3011    5.3058 H         1 OOU         0.0484
     77 H38         9.4526    4.0331    6.3149 H         1 OOU         0.0484
     78 H39         8.6175    5.6002    6.0442 H         1 OOU         0.0484
@<TRIPOS>BOND
     1    1    2 ar 
     2    1    6 ar 
     3    2    3 ar 
     4    3    4 ar 
     5    4    5 ar 
     6    4    7 1  
     7    5    6 ar 
     8    5    9 1  
     9    6   12 1  
    10    7    8 1  
    11    7   11 1  
    12    8    9 2  
    13    9   10 1  
    14   10   20 ar 
    15   10   24 ar 
    16   11   13 1  
    17   11   17 1  
    18   13   14 1  
    19   14   15 1  
    20   15   16 1  
    21   15   18 1  
    22   16   17 1  
    23   18   19 1  
    24   19   32 1  
    25   19   35 1  
    26   20   21 ar 
    27   21   22 ar 
    28   22   23 ar 
    29   22   25 1  
    30   23   24 ar 
    31   25   26 1  
    32   26   27 ar 
    33   26   31 ar 
    34   27   28 ar 
    35   28   29 ar 
    36   29   30 ar 
    37   30   31 ar 
    38   32   33 2  
    39   32   34 am 
    40   34   39 1  
    41   35   36 1  
    42   36   37 1  
    43   36   38 1  
    44    2   40 1  
    45    8   41 1  
    46   11   42 1  
    47   12   43 1  
    48   12   44 1  
    49   13   45 1  
    50   13   46 1  
    51   14   47 1  
    52   14   48 1  
    53   15   49 1  
    54   16   50 1  
    55   16   51 1  
    56   17   52 1  
    57   17   53 1  
    58   18   54 1  
    59   18   55 1  
    60   19   56 1  
    61   20   57 1  
    62   21   58 1  
    63   23   59 1  
    64   24   60 1  
    65   27   61 1  
    66   28   62 1  
    67   29   63 1  
    68   30   64 1  
    69   31   65 1  
    70   34   66 1  
    71   35   67 1  
    72   35   68 1  
    73   36   69 1  
    74   37   70 1  
    75   37   71 1  
    76   37   72 1  
    77   38   73 1  
    78   38   74 1  
    79   38   75 1  
    80   39   76 1  
    81   39   77 1  
    82   39   78 1  
@<TRIPOS>SUBSTRUCTURE
     1 OOU         1

