### 
### Created by X-TOOL on Mon Sep 10 21:13:32 2018
### 

@<TRIPOS>MOLECULE
5h0h_ligand
   81    85     1     0     0
SMALL
GAST_HUCK


@<TRIPOS>ATOM
      1 N01        -5.5360   -4.9300    2.1470 N.ar      1 OOV        -0.2727
      2 C01        -6.4760   -4.2590    1.4280 C.ar      1 OOV         0.0507
      3 N02        -6.3060   -3.0860    0.7890 N.ar      1 OOV        -0.2757
      4 C02        -5.0380   -2.5810    0.9160 C.ar      1 OOV         0.1411
      5 C03        -3.9500   -3.1630    1.6230 C.ar      1 OOV         0.0535
      6 C04        -4.2870   -4.3860    2.2300 C.ar      1 OOV         0.1172
      7 N03        -4.6180   -1.4180    0.3540 N.pl3     1 OOV        -0.2456
      8 C05        -3.2830   -1.2120    0.7050 C.2       1 OOV         0.0405
      9 C06        -2.8160   -2.2710    1.4900 C.2       1 OOV        -0.0100
     10 C07        -1.4570   -2.3270    1.9480 C.ar      1 OOV        -0.0471
     11 C08        -0.7840   -1.2530    2.5230 C.ar      1 OOV        -0.0693
     12 C09         0.5530   -1.3460    2.9290 C.ar      1 OOV        -0.0325
     13 C10         1.2830   -2.5210    2.7680 C.ar      1 OOV         0.1123
     14 C11         0.6410   -3.6140    2.1740 C.ar      1 OOV        -0.0325
     15 C12        -0.7020   -3.5020    1.7740 C.ar      1 OOV        -0.0693
     16 O01         2.6210   -2.6040    3.1490 O.3       1 OOV        -0.2602
     17 C13         3.1140   -2.0840    4.3200 C.ar      1 OOV         0.1153
     18 C14         4.3710   -1.4360    4.3300 C.ar      1 OOV        -0.0286
     19 C15         4.8630   -0.9470    5.5460 C.ar      1 OOV        -0.0697
     20 C16         4.1380   -1.0710    6.7230 C.ar      1 OOV        -0.0723
     21 C17         2.9030   -1.7210    6.7020 C.ar      1 OOV        -0.0697
     22 C18         2.4000   -2.2150    5.5120 C.ar      1 OOV        -0.0286
     23 C19        -5.4920   -0.5240   -0.3950 C.3       1 OOV         0.0672
     24 C20        -5.0610    0.9220   -0.0990 C.3       1 OOV        -0.0176
     25 C21        -6.0010    1.9230   -0.7210 C.3       1 OOV        -0.0069
     26 C22        -6.1590    1.7340   -2.2330 C.3       1 OOV        -0.0204
     27 C23        -6.5350    0.2700   -2.5370 C.3       1 OOV        -0.0069
     28 C24        -5.5460   -0.7310   -1.9010 C.3       1 OOV        -0.0176
     29 N04        -7.1600    2.6820   -2.7400 N.4       1 OOV         0.2483
     30 C25        -7.1690    2.8880   -4.1950 C.3       1 OOV         0.0673
     31 C26        -8.5710    3.3350   -4.6950 C.3       1 OOV         0.0103
     32 C27        -6.1110    3.9740   -4.4120 C.2       1 OOV         0.2265
     33 O02        -5.6990    4.6750   -3.4960 O.2       1 OOV        -0.3907
     34 N05        -5.5850    4.1330   -5.7120 N.am      1 OOV        -0.2747
     35 C28        -5.9940    3.3360   -6.8700 C.3       1 OOV         0.0224
     36 C29        -4.5680    5.1570   -5.9660 C.3       1 OOV         0.0224
     37 N06        -3.3180   -5.0440    2.9870 N.pl3     1 OOV        -0.3157
     38 C30        -9.5690    2.1790   -4.7000 C.3       1 OOV        -0.0394
     39 C31       -11.0150    2.6790   -4.6170 C.3       1 OOV        -0.0623
     40 C32        -9.3860    1.3100   -5.9470 C.3       1 OOV        -0.0623
     41 H1         -7.4581   -4.7132    1.3632 H         1 OOV         0.0981
     42 H2         -2.6889   -0.3486    0.4094 H         1 OOV         0.0962
     43 H3         -1.3109   -0.3158    2.6608 H         1 OOV         0.0550
     44 H4          1.0308   -0.4833    3.3791 H         1 OOV         0.0544
     45 H5          1.1777   -4.5436    2.0230 H         1 OOV         0.0544
     46 H6         -1.1774   -4.3590    1.3108 H         1 OOV         0.0550
     47 H7          4.9414   -1.3204    3.4155 H         1 OOV         0.0552
     48 H8          5.8316   -0.4608    5.5688 H         1 OOV         0.0590
     49 H9          4.5274   -0.6666    7.6503 H         1 OOV         0.0527
     50 H10         2.3375   -1.8388    7.6193 H         1 OOV         0.0590
     51 H11         1.4364   -2.7115    5.5051 H         1 OOV         0.0552
     52 H12        -6.5130   -0.6724   -0.0136 H         1 OOV         0.0648
     53 H13        -4.0508    1.0827   -0.5035 H         1 OOV         0.0297
     54 H14        -5.0483    1.0742    0.9903 H         1 OOV         0.0297
     55 H15        -5.6114    2.9343   -0.5327 H         1 OOV         0.0321
     56 H16        -6.9889    1.8169   -0.2491 H         1 OOV         0.0321
     57 H17        -5.1975    1.9518   -2.7210 H         1 OOV         0.0851
     58 H18        -6.5351    0.1234   -3.6272 H         1 OOV         0.0321
     59 H19        -7.5420    0.0733   -2.1404 H         1 OOV         0.0321
     60 H20        -5.8781   -1.7574   -2.1159 H         1 OOV         0.0297
     61 H21        -4.5440   -0.5731   -2.3265 H         1 OOV         0.0297
     62 H22        -6.9899    3.5742   -2.3028 H         1 OOV         0.2038
     63 H23        -8.0704    2.3437   -2.4703 H         1 OOV         0.2038
     64 H24        -6.8825    1.9634   -4.7175 H         1 OOV         0.1099
     65 H25        -8.4754    3.7267   -5.7184 H         1 OOV         0.0348
     66 H26        -8.9486    4.1279   -4.0327 H         1 OOV         0.0348
     67 H27        -5.4313    3.6625   -7.7570 H         1 OOV         0.0486
     68 H28        -7.0708    3.4734   -7.0479 H         1 OOV         0.0486
     69 H29        -5.7872    2.2733   -6.6753 H         1 OOV         0.0486
     70 H30        -4.3413    5.6887   -5.0301 H         1 OOV         0.0486
     71 H31        -4.9458    5.8721   -6.7116 H         1 OOV         0.0486
     72 H32        -3.6535    4.6790   -6.3469 H         1 OOV         0.0486
     73 H33        -2.3691   -4.6507    3.0629 H         1 OOV         0.1824
     74 H34        -3.5513   -5.9232    3.4702 H         1 OOV         0.1824
     75 H35        -9.3715    1.5571   -3.8144 H         1 OOV         0.0299
     76 H36       -11.7011    1.8192   -4.6231 H         1 OOV         0.0232
     77 H37       -11.2296    3.3255   -5.4807 H         1 OOV         0.0232
     78 H38       -11.1524    3.2511   -3.6876 H         1 OOV         0.0232
     79 H39        -8.3457    0.9561   -5.9978 H         1 OOV         0.0232
     80 H40        -9.6157    1.9033   -6.8443 H         1 OOV         0.0232
     81 H41       -10.0650    0.4462   -5.8948 H         1 OOV         0.0232
@<TRIPOS>BOND
     1    1    2 ar 
     2    1    6 ar 
     3    2    3 ar 
     4    3    4 ar 
     5    4    5 ar 
     6    4    7 1  
     7    5    6 ar 
     8    5    9 1  
     9    6   37 1  
    10    7    8 1  
    11    7   23 1  
    12    8    9 2  
    13    9   10 1  
    14   10   11 ar 
    15   10   15 ar 
    16   11   12 ar 
    17   12   13 ar 
    18   13   14 ar 
    19   13   16 1  
    20   14   15 ar 
    21   16   17 1  
    22   17   18 ar 
    23   17   22 ar 
    24   18   19 ar 
    25   19   20 ar 
    26   20   21 ar 
    27   21   22 ar 
    28   23   24 1  
    29   23   28 1  
    30   24   25 1  
    31   25   26 1  
    32   26   27 1  
    33   26   29 1  
    34   27   28 1  
    35   29   30 1  
    36   30   31 1  
    37   30   32 1  
    38   31   38 1  
    39   32   33 2  
    40   32   34 am 
    41   34   35 1  
    42   34   36 1  
    43   38   39 1  
    44   38   40 1  
    45    2   41 1  
    46    8   42 1  
    47   11   43 1  
    48   12   44 1  
    49   14   45 1  
    50   15   46 1  
    51   18   47 1  
    52   19   48 1  
    53   20   49 1  
    54   21   50 1  
    55   22   51 1  
    56   23   52 1  
    57   24   53 1  
    58   24   54 1  
    59   25   55 1  
    60   25   56 1  
    61   26   57 1  
    62   27   58 1  
    63   27   59 1  
    64   28   60 1  
    65   28   61 1  
    66   29   62 1  
    67   29   63 1  
    68   30   64 1  
    69   31   65 1  
    70   31   66 1  
    71   35   67 1  
    72   35   68 1  
    73   35   69 1  
    74   36   70 1  
    75   36   71 1  
    76   36   72 1  
    77   37   73 1  
    78   37   74 1  
    79   38   75 1  
    80   39   76 1  
    81   39   77 1  
    82   39   78 1  
    83   40   79 1  
    84   40   80 1  
    85   40   81 1  
@<TRIPOS>SUBSTRUCTURE
     1 OOV         1

