### 
### Created by X-TOOL on Mon Sep 10 21:13:32 2018
### 

@<TRIPOS>MOLECULE
5h14_ligand
   46    49     1     0     0
SMALL
GAST_HUCK


@<TRIPOS>ATOM
      1 C2         35.1280   78.8130   -7.7310 C.ar      1 LQB         0.2361
      2 C3         35.3710   78.1180   -8.9420 C.ar      1 LQB         0.1742
      3 C11        36.9320   81.7590   -7.6060 C.2       1 LQB         0.1930
      4 C12        32.8470   74.8330   -5.9540 C.3       1 LQB         0.0685
      5 C13        34.9780   76.7760   -9.0540 C.ar      1 LQB         0.0182
      6 C14        31.3490   75.0880   -5.6960 C.ar      1 LQB        -0.0169
      7 C17        33.4210   76.6590   -4.3660 C.3       1 LQB         0.0477
      8 C18        34.3930   76.1110   -7.9760 C.ar      1 LQB         0.0173
      9 C19        30.9370   76.0940   -4.7760 C.ar      1 LQB        -0.0368
     10 C20        31.9430   76.9810   -4.0130 C.3       1 LQB         0.0008
     11 C21        33.2880   81.3020   -7.3090 C.3       1 LQB         0.0796
     12 C22        38.2220   82.5240   -7.6670 C.3       1 LQB         0.0276
     13 C23        30.3870   74.3770   -6.4360 C.ar      1 LQB        -0.0647
     14 C24        29.5670   76.3290   -4.5940 C.ar      1 LQB        -0.0667
     15 C25        29.0200   74.6030   -6.2230 C.ar      1 LQB        -0.0754
     16 C26        28.6110   75.5810   -5.3130 C.ar      1 LQB        -0.0755
     17 N1         35.5240   80.1180   -7.6090 N.pl3     1 LQB         0.0322
     18 N4         35.9190   78.7130  -10.0330 N.2       1 LQB        -0.1869
     19 N5         36.8180   80.5020   -7.7080 N.2       1 LQB         0.0355
     20 C6         34.7870   81.2080   -7.4690 C.2       1 LQB         0.2493
     21 C7         34.5530   78.1190   -6.6440 C.ar      1 LQB         0.0460
     22 N8         33.5700   76.0840   -5.7120 N.pl3     1 LQB        -0.2727
     23 C9         35.5740   82.2890   -7.4520 C.2       1 LQB         0.1184
     24 C10        34.1990   76.7510   -6.7370 C.ar      1 LQB         0.0996
     25 O15        35.1390   79.5740  -10.8170 O.2       1 LQB        -0.4777
     26 O16        37.0740   78.5160  -10.3530 O.2       1 LQB        -0.4777
     27 H1         32.9966   74.5114   -6.9952 H         1 LQB         0.0693
     28 H2         33.2150   74.0519   -5.2725 H         1 LQB         0.0693
     29 H3         35.1306   76.2495   -9.9892 H         1 LQB         0.0796
     30 H4         33.8099   75.9392   -3.6307 H         1 LQB         0.0567
     31 H5         34.0061   77.5890   -4.3137 H         1 LQB         0.0567
     32 H6         34.0812   75.0796   -8.0949 H         1 LQB         0.0961
     33 H7         31.7435   78.0334   -4.2634 H         1 LQB         0.0433
     34 H8         31.7983   76.8271   -2.9335 H         1 LQB         0.0433
     35 H9         32.9946   82.3581   -7.2167 H         1 LQB         0.0872
     36 H10        32.9807   80.7558   -6.4050 H         1 LQB         0.0872
     37 H11        32.7969   80.8606   -8.1888 H         1 LQB         0.0872
     38 H12        38.0171   83.5983   -7.5493 H         1 LQB         0.0574
     39 H13        38.7074   82.3476   -8.6382 H         1 LQB         0.0574
     40 H14        38.8869   82.1868   -6.8581 H         1 LQB         0.0574
     41 H15        30.7045   73.6503   -7.1751 H         1 LQB         0.0538
     42 H16        29.2398   77.0909   -3.8958 H         1 LQB         0.0537
     43 H17        28.2823   74.0205   -6.7629 H         1 LQB         0.0541
     44 H18        27.5541   75.7660   -5.1586 H         1 LQB         0.0541
     45 H19        34.3779   78.6473   -5.7138 H         1 LQB         0.0582
     46 H20        35.2732   83.3304   -7.3472 H         1 LQB         0.0854
@<TRIPOS>BOND
     1    1    2 ar 
     2    1   17 1  
     3   21    1 ar 
     4    5    2 ar 
     5    2   18 1  
     6    3   12 1  
     7   19    3 2  
     8   23    3 1  
     9    4    6 1  
    10   22    4 1  
    11    8    5 ar 
    12    6    9 ar 
    13    6   13 ar 
    14    7   10 1  
    15   22    7 1  
    16   24    8 ar 
    17   10    9 1  
    18    9   14 ar 
    19   20   11 1  
    20   13   15 ar 
    21   14   16 ar 
    22   15   16 ar 
    23   17   19 1  
    24   17   20 1  
    25   18   25 2  
    26   18   26 2  
    27   20   23 2  
    28   24   21 ar 
    29   22   24 1  
    30    4   27 1  
    31    4   28 1  
    32    5   29 1  
    33    7   30 1  
    34    7   31 1  
    35    8   32 1  
    36   10   33 1  
    37   10   34 1  
    38   11   35 1  
    39   11   36 1  
    40   11   37 1  
    41   12   38 1  
    42   12   39 1  
    43   12   40 1  
    44   13   41 1  
    45   14   42 1  
    46   15   43 1  
    47   16   44 1  
    48   21   45 1  
    49   23   46 1  
@<TRIPOS>SUBSTRUCTURE
     1 LQB         1

