### 
### Created by X-TOOL on Mon Sep 10 21:13:32 2018
### 

@<TRIPOS>MOLECULE
5h15_ligand
   58    61     1     0     0
SMALL
GAST_HUCK


@<TRIPOS>ATOM
      1 C1         32.6530   14.2350   33.9370 C.2       1 LQD        -0.0325
      2 C2         32.3160   15.7190   34.0810 C.3       1 LQD         0.0636
      3 C3         33.8530   13.6470   34.1140 C.2       1 LQD         0.0196
      4 C11        30.2980   17.1210   34.2260 C.3       1 LQD         0.0151
      5 C12        30.0330   17.6780   31.7350 C.3       1 LQD         0.0008
      6 C14        27.9550   16.5530   30.6790 C.ar      1 LQD         0.0974
      7 C15        34.9040   11.4190   33.9930 C.3       1 LQD         0.0373
      8 C16        30.3560   13.0630   33.1370 C.ar      1 LQD        -0.0747
      9 C18        32.0170   10.7230   33.1730 C.ar      1 LQD        -0.0442
     10 C19        27.6670   18.4150   32.2440 C.ar      1 LQD        -0.0637
     11 C20        30.5750   17.2510   37.1520 C.3       1 LQD        -0.0428
     12 C21        31.8050   15.1710   37.2850 C.3       1 LQD        -0.0428
     13 C22        26.5430   16.4970   30.5440 C.ar      1 LQD        -0.0394
     14 C23        28.3920   14.5130   29.2390 C.3       1 LQD         0.0578
     15 C24        29.8420   11.7890   32.7990 C.ar      1 LQD        -0.0792
     16 C25        30.6590   10.6350   32.8090 C.ar      1 LQD        -0.0768
     17 C26        26.2700   18.3330   32.1230 C.ar      1 LQD        -0.0795
     18 C27        25.7030   17.3770   31.2560 C.ar      1 LQD        -0.0776
     19 N4         33.7740   12.3550   33.8880 N.pl3     1 LQD        -0.2777
     20 C5         31.7080   13.1290   33.5120 C.ar      1 LQD        -0.0208
     21 N6         30.5040   16.7650   32.8110 N.4       1 LQD         0.2509
     22 C7         31.0940   16.0220   34.9970 C.3       1 LQD         0.0314
     23 C8         32.5210   11.9950   33.5290 C.ar      1 LQD         0.0625
     24 C9         31.9230   16.3690   32.7260 C.3       1 LQD        -0.0180
     25 C10        28.5120   17.5360   31.5340 C.ar      1 LQD         0.0306
     26 N13        31.4780   16.3330   36.4170 N.4       1 LQD         0.2380
     27 O17        28.8170   15.7040   29.9500 O.3       1 LQD        -0.3248
     28 H1         33.2058   16.2216   34.4880 H         1 LQD         0.0494
     29 H2         34.7626   14.1706   34.4043 H         1 LQD         0.0797
     30 H3         29.2301   17.0898   34.4880 H         1 LQD         0.0872
     31 H4         30.6995   18.1220   34.4422 H         1 LQD         0.0872
     32 H5         30.5472   17.4262   30.7958 H         1 LQD         0.0956
     33 H6         30.2659   18.7163   32.0136 H         1 LQD         0.0956
     34 H7         35.8065   11.9669   34.3017 H         1 LQD         0.0559
     35 H8         35.0792   10.9447   33.0161 H         1 LQD         0.0559
     36 H9         34.6713   10.6456   34.7398 H         1 LQD         0.0559
     37 H10        29.7334   13.9499   33.1078 H         1 LQD         0.0540
     38 H11        32.6536    9.8457   33.1799 H         1 LQD         0.0541
     39 H12        28.1029   19.1657   32.8933 H         1 LQD         0.0528
     40 H13        30.9569   17.4017   38.1725 H         1 LQD         0.0778
     41 H14        29.5666   16.8140   37.1987 H         1 LQD         0.0778
     42 H15        30.5316   18.2184   36.6302 H         1 LQD         0.0778
     43 H16        32.4750   14.4865   36.7442 H         1 LQD         0.0778
     44 H17        30.8789   14.6416   37.5533 H         1 LQD         0.0778
     45 H18        32.3031   15.5252   38.1996 H         1 LQD         0.0778
     46 H19        26.1018   15.7626   29.8799 H         1 LQD         0.0521
     47 H20        29.2628   14.0419   28.7596 H         1 LQD         0.0574
     48 H21        27.6547   14.7882   28.4705 H         1 LQD         0.0574
     49 H22        27.9364   13.8058   29.9477 H         1 LQD         0.0574
     50 H23        28.7972   11.6953   32.5259 H         1 LQD         0.0510
     51 H24        30.2370    9.6750   32.5344 H         1 LQD         0.0530
     52 H25        25.6326   19.0000   32.6921 H         1 LQD         0.0505
     53 H26        24.6271   17.3189   31.1375 H         1 LQD         0.0531
     54 H27        29.9637   15.9271   32.6626 H         1 LQD         0.2050
     55 H28        30.4627   15.1224   35.0438 H         1 LQD         0.0924
     56 H29        32.0612   15.6450   31.9095 H         1 LQD         0.0834
     57 H30        32.5483   17.2548   32.5405 H         1 LQD         0.0834
     58 H31        32.3446   16.8391   36.3229 H         1 LQD         0.2034
@<TRIPOS>BOND
     1    2    1 1  
     2    1    3 2  
     3    1   20 1  
     4   22    2 1  
     5    2   24 1  
     6    3   19 1  
     7    4   21 1  
     8   22    4 1  
     9   21    5 1  
    10    5   25 1  
    11    6   13 ar 
    12   25    6 ar 
    13    6   27 1  
    14   19    7 1  
    15    8   15 ar 
    16   20    8 ar 
    17    9   16 ar 
    18   23    9 ar 
    19   10   17 ar 
    20   25   10 ar 
    21   26   11 1  
    22   26   12 1  
    23   13   18 ar 
    24   27   14 1  
    25   15   16 ar 
    26   17   18 ar 
    27   23   19 1  
    28   20   23 ar 
    29   21   24 1  
    30   22   26 1  
    31    2   28 1  
    32    3   29 1  
    33    4   30 1  
    34    4   31 1  
    35    5   32 1  
    36    5   33 1  
    37    7   34 1  
    38    7   35 1  
    39    7   36 1  
    40    8   37 1  
    41    9   38 1  
    42   10   39 1  
    43   11   40 1  
    44   11   41 1  
    45   11   42 1  
    46   12   43 1  
    47   12   44 1  
    48   12   45 1  
    49   13   46 1  
    50   14   47 1  
    51   14   48 1  
    52   14   49 1  
    53   15   50 1  
    54   16   51 1  
    55   17   52 1  
    56   18   53 1  
    57   21   54 1  
    58   22   55 1  
    59   24   56 1  
    60   24   57 1  
    61   26   58 1  
@<TRIPOS>SUBSTRUCTURE
     1 LQD         1

