### 
### Created by X-TOOL on Mon Sep 10 21:13:32 2018
### 

@<TRIPOS>MOLECULE
5h17_ligand
   56    59     1     0     0
SMALL
GAST_HUCK


@<TRIPOS>ATOM
      1 C1          3.0990   13.4110   10.6240 C.ar      1 LQE        -0.0117
      2 C2          1.8020   13.2500   11.1740 C.ar      1 LQE        -0.0442
      3 C3          4.3120   13.6300   11.5540 C.3       1 LQE        -0.0157
      4 C11         0.8840   12.9230    8.9370 C.ar      1 LQE        -0.0839
      5 C12         5.2090   13.9580   13.9480 C.3       1 LQE        -0.0340
      6 C13         4.9350   14.1480    7.4820 C.3       1 LQE         0.0575
      7 C15         4.8670   14.6860   15.2840 C.3       1 LQE         0.0093
      8 C16         3.5930   14.0660   15.8890 C.3       1 LQE        -0.0270
      9 C17         1.1380   14.1800   15.6170 C.3       1 LQE        -0.0427
     10 C18         6.0830   14.8850   16.2250 C.3       1 LQE        -0.0140
     11 C19         6.3340   16.4020   16.0790 C.ar      1 LQE        -0.0515
     12 C20         7.2080   16.8560   15.0800 C.ar      1 LQE        -0.0322
     13 C21         5.5420   17.3420   16.7750 C.ar      1 LQE        -0.0714
     14 C22         7.3950   18.2290   14.8300 C.ar      1 LQE         0.0841
     15 C23         5.6700   18.7140   16.5040 C.ar      1 LQE        -0.0772
     16 C24         6.6180   19.1600   15.5640 C.ar      1 LQE        -0.0401
     17 C26         9.2970   17.7690   13.2140 C.3       1 LQE         0.0592
     18 C4          3.2920   13.3120    9.2190 C.ar      1 LQE         0.0859
     19 C5          1.4940   13.3760   12.6760 C.3       1 LQE         0.0195
     20 C6          0.7020   13.0230   10.3250 C.ar      1 LQE        -0.0776
     21 C7          3.9880   14.1460   12.9880 C.3       1 LQE         0.0114
     22 C8          2.1730   13.0450    8.3920 C.ar      1 LQE        -0.0464
     23 O9          4.5890   13.4210    8.6750 O.3       1 LQE        -0.3269
     24 C10         2.7150   13.5000   13.6460 C.3       1 LQE        -0.0085
     25 N14         2.4650   14.2430   14.9370 N.4       1 LQE         0.2371
     26 O25         8.3370   18.6340   13.8570 O.3       1 LQE        -0.3230
     27 H1          4.9760   14.3641   11.0741 H         1 LQE         0.0392
     28 H2          4.8382   12.6691   11.6529 H         1 LQE         0.0392
     29 H3          0.0329   12.7522    8.2878 H         1 LQE         0.0515
     30 H4          5.3785   12.8875   14.1357 H         1 LQE         0.0277
     31 H5          6.1114   14.3991   13.4996 H         1 LQE         0.0277
     32 H6          6.0160   14.0588    7.2989 H         1 LQE         0.0574
     33 H7          4.6709   15.2082    7.6091 H         1 LQE         0.0574
     34 H8          4.3827   13.7325    6.6262 H         1 LQE         0.0574
     35 H9          4.5784   15.7087   14.9998 H         1 LQE         0.0375
     36 H10         3.3550   14.5671   16.8389 H         1 LQE         0.0819
     37 H11         3.7562   12.9935   16.0710 H         1 LQE         0.0819
     38 H12         0.3384   14.3158   14.8739 H         1 LQE         0.0778
     39 H13         1.0751   14.9767   16.3729 H         1 LQE         0.0778
     40 H14         1.0223   13.2012   16.1053 H         1 LQE         0.0778
     41 H15         6.9516   14.2991   15.8899 H         1 LQE         0.0429
     42 H16         5.8373   14.6156   17.2628 H         1 LQE         0.0429
     43 H17         7.7530   16.1316   14.4856 H         1 LQE         0.0478
     44 H18         4.8326   17.0030   17.5213 H         1 LQE         0.0464
     45 H19         5.0388   19.4294   17.0186 H         1 LQE         0.0572
     46 H20         6.7548   20.2228   15.4003 H         1 LQE         0.0486
     47 H21         9.8991   18.3539   12.5031 H         1 LQE         0.0577
     48 H22         8.7672   16.9698   12.6750 H         1 LQE         0.0577
     49 H23         9.9564   17.3241   13.9738 H         1 LQE         0.0577
     50 H24         0.9240   12.4835   12.9734 H         1 LQE         0.0464
     51 H25         0.8703   14.2717   12.8124 H         1 LQE         0.0464
     52 H26        -0.2920   12.9248   10.7462 H         1 LQE         0.0447
     53 H27         3.7937   15.2250   12.8987 H         1 LQE         0.0375
     54 H28         2.3136   12.9332    7.3230 H         1 LQE         0.0467
     55 H29         2.9778   12.4675   13.9195 H         1 LQE         0.0877
     56 H30         2.5219   15.2086   14.6536 H         1 LQE         0.2035
@<TRIPOS>BOND
     1    1    2 ar 
     2    1    3 1  
     3   18    1 ar 
     4    2   19 1  
     5    2   20 ar 
     6    3   21 1  
     7    4   20 ar 
     8   22    4 ar 
     9    5    7 1  
    10   21    5 1  
    11   23    6 1  
    12    7    8 1  
    13    7   10 1  
    14    8   25 1  
    15   25    9 1  
    16   10   11 1  
    17   11   12 ar 
    18   11   13 ar 
    19   12   14 ar 
    20   13   15 ar 
    21   14   16 ar 
    22   14   26 1  
    23   15   16 ar 
    24   26   17 1  
    25   18   22 ar 
    26   18   23 1  
    27   19   24 1  
    28   21   24 1  
    29   24   25 1  
    30    3   27 1  
    31    3   28 1  
    32    4   29 1  
    33    5   30 1  
    34    5   31 1  
    35    6   32 1  
    36    6   33 1  
    37    6   34 1  
    38    7   35 1  
    39    8   36 1  
    40    8   37 1  
    41    9   38 1  
    42    9   39 1  
    43    9   40 1  
    44   10   41 1  
    45   10   42 1  
    46   12   43 1  
    47   13   44 1  
    48   15   45 1  
    49   16   46 1  
    50   17   47 1  
    51   17   48 1  
    52   17   49 1  
    53   19   50 1  
    54   19   51 1  
    55   20   52 1  
    56   21   53 1  
    57   22   54 1  
    58   24   55 1  
    59   25   56 1  
@<TRIPOS>SUBSTRUCTURE
     1 LQE         1

