### 
### Created by X-TOOL on Mon Sep 10 21:13:31 2018
### 

@<TRIPOS>MOLECULE
5h19_ligand
   49    53     1     0     0
SMALL
GAST_HUCK


@<TRIPOS>ATOM
      1 C2          4.8710   13.1910   11.7510 C.2       1 LQF         0.0091
      2 C3          5.8660   14.0060   14.3470 C.2       1 LQF         0.2456
      3 C11         7.8690   14.8510   13.0740 C.1       1 LQF         0.0599
      4 C13         4.2150   12.8160   10.4330 C.3       1 LQF         0.0250
      5 C15         6.8280   14.1720   10.5620 C.3       1 LQF        -0.0080
      6 C16         6.9680   16.6330   16.1650 C.2       1 LQF         0.1190
      7 C18         6.1580   17.1450   17.0880 C.2       1 LQF        -0.0684
      8 C19         6.9800   18.6610   15.7070 C.2       1 LQF         0.0670
      9 C20         5.9400   14.1560    9.2910 C.3       1 LQF         0.0121
     10 C21         6.1540   18.5710   16.7570 C.2       1 LQF        -0.0808
     11 C22         7.3580   15.1720   16.0540 C.3       1 LQF         0.1016
     12 C23         4.4550   12.6560    7.9700 C.3       1 LQF         0.0341
     13 C24         5.4500   12.2310    6.8730 C.ar      1 LQF        -0.0289
     14 C25         5.8980   13.1610    5.9160 C.ar      1 LQF        -0.0591
     15 C26         5.9250   10.9020    6.8370 C.ar      1 LQF        -0.0591
     16 C27         6.8490   10.5100    5.8530 C.ar      1 LQF        -0.0685
     17 C28         6.8270   12.7800    4.9370 C.ar      1 LQF        -0.0685
     18 C29         7.2940   11.4550    4.9070 C.ar      1 LQF        -0.0687
     19 N1          4.6870   13.3770   14.1690 N.pl3     1 LQF        -0.1381
     20 C4          4.1980   12.9390   13.0340 C.2       1 LQF         0.1473
     21 C5          6.5860   14.2020   13.1860 C.2       1 LQF         0.1478
     22 C6          6.0510   13.8370   11.8310 C.2       1 LQF        -0.0201
     23 N7          3.0610   12.3450   13.1170 N.2       1 LQF        -0.2916
     24 N8          2.7670   12.3840   14.5150 N.2       1 LQF        -0.2729
     25 N9          6.2460   14.3210   15.5940 N.pl3     1 LQF        -0.2500
     26 C10         3.7690   12.9910   15.0180 C.2       1 LQF         0.1386
     27 N12         5.1520   12.8940    9.2640 N.3       1 LQF        -0.2836
     28 N14         8.8850   15.3750   12.9380 N.1       1 LQF        -0.3731
     29 O17         7.5410   17.5050   15.3030 O.3       1 LQF        -0.2666
     30 H1          3.3739   13.5018   10.2534 H         1 LQF         0.0521
     31 H2          3.8379   11.7856   10.5107 H         1 LQF         0.0521
     32 H3          7.2653   15.1753   10.6724 H         1 LQF         0.0445
     33 H4          7.6330   13.4327   10.4375 H         1 LQF         0.0445
     34 H5          5.6297   16.6313   17.8898 H         1 LQF         0.0219
     35 H6          7.1852   19.6086   15.2112 H         1 LQF         0.0854
     36 H7          6.5768   14.2119    8.3959 H         1 LQF         0.0454
     37 H8          5.2559   15.0172    9.3086 H         1 LQF         0.0454
     38 H9          5.6063   19.3726   17.2503 H         1 LQF         0.0296
     39 H10         7.6858   14.8189   17.0429 H         1 LQF         0.0735
     40 H11         8.1889   15.0827   15.3387 H         1 LQF         0.0735
     41 H12         3.7082   11.8598    8.1055 H         1 LQF         0.0590
     42 H13         3.9507   13.5825    7.6581 H         1 LQF         0.0590
     43 H14         5.5227   14.1778    5.9359 H         1 LQF         0.0557
     44 H15         5.5766   10.1828    7.5694 H         1 LQF         0.0557
     45 H16         7.2158    9.4904    5.8221 H         1 LQF         0.0599
     46 H17         7.1817   13.5013    4.2097 H         1 LQF         0.0599
     47 H18         8.0059   11.1559    4.1462 H         1 LQF         0.0559
     48 H19         5.6744   13.9055   16.3434 H         1 LQF         0.2018
     49 H20         3.8556   13.1767   16.0876 H         1 LQF         0.1241
@<TRIPOS>BOND
     1    1    4 1  
     2   20    1 1  
     3    1   22 2  
     4   19    2 1  
     5    2   21 2  
     6    2   25 1  
     7   21    3 1  
     8    3   28 3  
     9    4   27 1  
    10    5    9 1  
    11   22    5 1  
    12    6    7 2  
    13   11    6 1  
    14    6   29 1  
    15    7   10 1  
    16    8   10 2  
    17   29    8 1  
    18   27    9 1  
    19   25   11 1  
    20   12   13 1  
    21   27   12 1  
    22   13   14 ar 
    23   13   15 ar 
    24   14   17 ar 
    25   15   16 ar 
    26   16   18 ar 
    27   17   18 ar 
    28   19   20 1  
    29   19   26 1  
    30   20   23 2  
    31   21   22 1  
    32   23   24 1  
    33   24   26 2  
    34    4   30 1  
    35    4   31 1  
    36    5   32 1  
    37    5   33 1  
    38    7   34 1  
    39    8   35 1  
    40    9   36 1  
    41    9   37 1  
    42   10   38 1  
    43   11   39 1  
    44   11   40 1  
    45   12   41 1  
    46   12   42 1  
    47   14   43 1  
    48   15   44 1  
    49   16   45 1  
    50   17   46 1  
    51   18   47 1  
    52   25   48 1  
    53   26   49 1  
@<TRIPOS>SUBSTRUCTURE
     1 LQF         1

