### 
### Created by X-TOOL on Mon Sep 10 21:13:31 2018
### 

@<TRIPOS>MOLECULE
5h21_ligand
   43    44     1     0     0
SMALL
GAST_HUCK


@<TRIPOS>ATOM
      1 C1        -22.8970   -6.0270   80.2290 C.ar      1 RMR        -0.0323
      2 C2        -23.0760   -7.0090   79.2760 C.ar      1 RMR         0.0216
      3 C3        -22.0210   -7.4860   78.5110 C.ar      1 RMR        -0.0323
      4 C4        -20.7510   -6.9890   78.7320 C.ar      1 RMR         0.1172
      5 C5        -20.5720   -6.0030   79.7030 C.ar      1 RMR         0.1527
      6 C6        -21.6270   -5.5250   80.4370 C.ar      1 RMR         0.1172
      7 C7        -24.4580   -7.5410   78.9860 C.2       1 RMR         0.1920
      8 N8        -24.5450   -8.5120   77.9180 N.am      1 RMR        -0.2861
      9 C9        -25.8120   -9.0710   77.5010 C.3       1 RMR         0.0391
     10 C10       -25.8050   -9.0910   75.9700 C.3       1 RMR         0.0018
     11 C11       -25.0390   -7.8940   75.3930 C.2       1 RMR        -0.0209
     12 S12       -25.5490   -6.1510   75.5750 S.3       1 RMR        -0.1121
     13 C13       -24.7380   -5.6710   74.2280 C.3       1 RMR         0.0088
     14 C14       -23.7450   -6.7490   73.8190 C.3       1 RMR        -0.0353
     15 C15       -23.9730   -8.0000   74.5650 C.2       1 RMR        -0.0973
     16 O16       -21.3820   -4.5460   81.3970 O.3       1 RMR        -0.3270
     17 C17       -22.4910   -4.0970   82.1240 C.3       1 RMR         0.0565
     18 O18       -19.3240   -5.4480   79.9510 O.3       1 RMR        -0.3259
     19 C19       -18.6030   -6.2740   80.8010 C.3       1 RMR         0.0554
     20 O20       -19.6620   -7.4700   77.9830 O.3       1 RMR        -0.3270
     21 C21       -19.9600   -8.4900   77.0690 C.3       1 RMR         0.0565
     22 O22       -25.4080   -7.1270   79.5610 O.2       1 RMR        -0.3898
     23 H1        -23.7379   -5.6563   80.8040 H         1 RMR         0.0474
     24 H2        -22.1912   -8.2388   77.7499 H         1 RMR         0.0474
     25 H3        -23.7077   -8.8044   77.4560 H         1 RMR         0.1843
     26 H4        -26.6402   -8.4468   77.8676 H         1 RMR         0.0541
     27 H5        -25.9220  -10.0931   77.8924 H         1 RMR         0.0541
     28 H6        -26.8432   -9.0585   75.6078 H         1 RMR         0.0438
     29 H7        -25.3260  -10.0200   75.6273 H         1 RMR         0.0438
     30 H8        -24.1975   -4.7366   74.4395 H         1 RMR         0.0415
     31 H9        -25.4539   -5.5033   73.4099 H         1 RMR         0.0415
     32 H10       -22.7247   -6.3918   74.0223 H         1 RMR         0.0349
     33 H11       -23.8560   -6.9485   72.7430 H         1 RMR         0.0349
     34 H12       -23.3617   -8.8955   74.4630 H         1 RMR         0.0251
     35 H13       -22.1708   -3.3307   82.8453 H         1 RMR         0.0572
     36 H14       -22.9425   -4.9425   82.6636 H         1 RMR         0.0572
     37 H15       -23.2311   -3.6649   81.4344 H         1 RMR         0.0572
     38 H16       -17.6155   -5.8294   80.9939 H         1 RMR         0.0570
     39 H17       -18.4755   -7.2609   80.3323 H         1 RMR         0.0570
     40 H18       -19.1462   -6.3866   81.7509 H         1 RMR         0.0570
     41 H19       -19.0424   -8.7890   76.5412 H         1 RMR         0.0572
     42 H20       -20.6995   -8.1254   76.3409 H         1 RMR         0.0572
     43 H21       -20.3719   -9.3562   77.6076 H         1 RMR         0.0572
@<TRIPOS>BOND
     1    1    2 ar 
     2    1    6 ar 
     3    2    3 ar 
     4    2    7 1  
     5    3    4 ar 
     6    4    5 ar 
     7    4   20 1  
     8    5    6 ar 
     9    5   18 1  
    10    6   16 1  
    11    7    8 am 
    12    7   22 2  
    13    8    9 1  
    14    9   10 1  
    15   10   11 1  
    16   11   12 1  
    17   11   15 2  
    18   12   13 1  
    19   13   14 1  
    20   14   15 1  
    21   16   17 1  
    22   18   19 1  
    23   20   21 1  
    24    1   23 1  
    25    3   24 1  
    26    8   25 1  
    27    9   26 1  
    28    9   27 1  
    29   10   28 1  
    30   10   29 1  
    31   13   30 1  
    32   13   31 1  
    33   14   32 1  
    34   14   33 1  
    35   15   34 1  
    36   17   35 1  
    37   17   36 1  
    38   17   37 1  
    39   19   38 1  
    40   19   39 1  
    41   19   40 1  
    42   21   41 1  
    43   21   42 1  
    44   21   43 1  
@<TRIPOS>SUBSTRUCTURE
     1 RMR         1

