### 
### Created by X-TOOL on Fri Nov  2 10:50:30 2018
### 

@<TRIPOS>MOLECULE
5h22_ligand
   51    54     1     0     0
SMALL
GAST_HUCK


@<TRIPOS>ATOM
      1 C13       -29.3620  -12.3500  -23.4840 C.ar      1 MOL         0.0404
      2 C15       -27.1180  -12.9600  -23.5400 C.ar      1 MOL        -0.0142
      3 C17       -28.7360  -14.5480  -24.2940 C.ar      1 MOL         0.1076
      4 C20       -29.4520   -8.1490  -27.5700 C.ar      1 MOL        -0.0378
      5 C21       -28.8060   -7.3890  -26.6030 C.ar      1 MOL        -0.0593
      6 C22       -27.4780   -7.0050  -26.8040 C.ar      1 MOL        -0.0685
      7 C24       -27.4600   -8.1370  -28.9170 C.ar      1 MOL        -0.0685
      8 C26       -31.1930  -13.9600  -24.2250 C.3       1 MOL        -0.0312
      9 C28       -28.9010  -15.9870  -26.1770 C.3       1 MOL         0.0589
     10 CL        -34.1900   -9.1110  -27.7980 Cl        1 MOL        -0.0326
     11 N01       -34.7650  -10.5510  -25.6630 N.ar      1 MOL        -0.2544
     12 C02       -34.5280  -11.2130  -24.5440 C.ar      1 MOL         0.1651
     13 N03       -33.3120  -11.2970  -24.0120 N.ar      1 MOL        -0.2539
     14 C04       -32.2720  -10.6820  -24.6240 C.ar      1 MOL         0.1321
     15 C05       -32.4650   -9.9830  -25.7830 C.ar      1 MOL         0.0368
     16 C06       -33.7810   -9.9400  -26.2950 C.ar      1 MOL         0.1144
     17 N07       -30.9530  -10.6340  -24.3090 N.pl3     1 MOL        -0.2503
     18 C08       -30.2910   -9.8940  -25.1990 C.2       1 MOL         0.0257
     19 C09       -31.1850   -9.4630  -26.1780 C.2       1 MOL        -0.0286
     20 N11       -35.6380  -11.8430  -23.8900 N.pl3     1 MOL        -0.3097
     21 C12       -30.3960  -11.2700  -23.1190 C.3       1 MOL         0.0917
     22 N14       -28.0780  -12.0860  -23.2690 N.ar      1 MOL        -0.3265
     23 C16       -27.4100  -14.2140  -24.0550 C.ar      1 MOL        -0.0029
     24 C18       -29.7240  -13.6040  -23.9840 C.ar      1 MOL         0.0083
     25 C19       -30.9120   -8.5950  -27.4190 C.3       1 MOL        -0.0021
     26 C23       -26.8080   -7.3810  -27.9550 C.ar      1 MOL        -0.0688
     27 C25       -28.7820   -8.5110  -28.7200 C.ar      1 MOL        -0.0593
     28 O27       -29.0860  -15.8060  -24.7940 O.3       1 MOL        -0.3207
     29 C29       -26.2750  -15.2040  -24.3360 C.3       1 MOL        -0.0316
     30 H1        -26.0848  -12.6888  -23.3553 H         1 MOL         0.0643
     31 H2        -29.3284   -7.0962  -25.6994 H         1 MOL         0.0558
     32 H3        -26.9696   -6.4094  -26.0544 H         1 MOL         0.0599
     33 H4        -26.9392   -8.4349  -29.8198 H         1 MOL         0.0599
     34 H5        -31.8289  -13.1124  -23.9297 H         1 MOL         0.0365
     35 H6        -31.4591  -14.8438  -23.6266 H         1 MOL         0.0365
     36 H7        -31.3469  -14.1796  -25.2918 H         1 MOL         0.0365
     37 H8        -29.2067  -17.0057  -26.4576 H         1 MOL         0.0577
     38 H9        -27.8399  -15.8407  -26.4273 H         1 MOL         0.0577
     39 H10       -29.5118  -15.2562  -26.7274 H         1 MOL         0.0577
     40 H11       -29.2270   -9.6641  -25.1665 H         1 MOL         0.0787
     41 H12       -36.5808  -11.7795  -24.2998 H         1 MOL         0.1806
     42 H13       -35.4924  -12.3589  -23.0105 H         1 MOL         0.1806
     43 H14       -29.9075  -10.5030  -22.5001 H         1 MOL         0.0763
     44 H15       -31.2127  -11.7362  -22.5483 H         1 MOL         0.0763
     45 H16       -31.1892   -9.1743  -28.3120 H         1 MOL         0.0513
     46 H17       -31.5420   -7.6955  -27.3553 H         1 MOL         0.0513
     47 H18       -25.7759   -7.0851  -28.1041 H         1 MOL         0.0558
     48 H19       -29.2932   -9.0936  -29.4778 H         1 MOL         0.0558
     49 H20       -25.3116  -14.7400  -24.0781 H         1 MOL         0.0369
     50 H21       -26.2786  -15.4729  -25.4026 H         1 MOL         0.0369
     51 H22       -26.4198  -16.1098  -23.7290 H         1 MOL         0.0369
@<TRIPOS>BOND
     1   21    1 1  
     2    1   22 ar 
     3    1   24 ar 
     4   22    2 ar 
     5    2   23 ar 
     6    3   23 ar 
     7   24    3 ar 
     8    3   28 1  
     9    4    5 ar 
    10   25    4 1  
    11    4   27 ar 
    12    5    6 ar 
    13    6   26 ar 
    14    7   26 ar 
    15   27    7 ar 
    16   24    8 1  
    17   28    9 1  
    18   16   10 1  
    19   11   12 ar 
    20   16   11 ar 
    21   13   12 ar 
    22   12   20 1  
    23   14   13 ar 
    24   15   14 ar 
    25   17   14 1  
    26   15   16 ar 
    27   19   15 1  
    28   18   17 1  
    29   17   21 1  
    30   19   18 2  
    31   19   25 1  
    32   23   29 1  
    33    2   30 1  
    34    5   31 1  
    35    6   32 1  
    36    7   33 1  
    37    8   34 1  
    38    8   35 1  
    39    8   36 1  
    40    9   37 1  
    41    9   38 1  
    42    9   39 1  
    43   18   40 1  
    44   20   41 1  
    45   20   42 1  
    46   21   43 1  
    47   21   44 1  
    48   25   45 1  
    49   25   46 1  
    50   26   47 1  
    51   27   48 1  
    52   29   49 1  
    53   29   50 1  
    54   29   51 1  
@<TRIPOS>SUBSTRUCTURE
     1 MOL         1

