### 
### Created by X-TOOL on Mon Sep 10 21:13:32 2018
### 

@<TRIPOS>MOLECULE
5h3q_ligand
   68    71     1     0     0
SMALL
GAST_HUCK


@<TRIPOS>ATOM
      1 CAP        55.6500   25.8720   -2.1640 C.ar      1 7HF        -0.0279
      2 CAK        55.9120   27.1130   -1.5760 C.ar      1 7HF         0.1588
      3 FBF        55.2530   28.2670   -1.9660 F         1 7HF        -0.1861
      4 CAQ        56.9080   27.2120   -0.6510 C.ar      1 7HF         0.1576
      5 FBG        57.1210   28.3350   -0.1080 F         1 7HF        -0.1901
      6 CAD        57.6680   26.0870   -0.2630 C.ar      1 7HF        -0.0365
      7 CAA        57.3960   24.8490   -0.8450 C.ar      1 7HF        -0.0655
      8 CAN        56.3690   24.7200   -1.8060 C.ar      1 7HF        -0.0382
      9 CBJ        56.0500   23.4540   -2.3910 C.3       1 7HF         0.0578
     10 CAZ        57.2210   22.4890   -2.2370 C.3       1 7HF        -0.0175
     11 NAB        56.9120   21.4840   -3.2830 N.4       1 7HF         0.2402
     12 CBD        58.0340   20.4990   -3.4560 C.3       1 7HF        -0.0077
     13 CAW        57.6960   19.4360   -4.4730 C.3       1 7HF         0.0871
     14 OAM        56.7330   18.5080   -4.0050 O.3       1 7HF        -0.3777
     15 CBI        56.1710   17.6390   -4.9680 C.3       1 7HF         0.0367
     16 CAR        56.5360   22.2630   -4.4670 C.3       1 7HF        -0.0060
     17 CBH        55.8750   23.6230   -3.9210 C.3       1 7HF         0.0991
     18 NAJ        54.5140   23.6370   -4.4280 N.am      1 7HF        -0.2570
     19 CAS        54.1020   24.3230   -5.5120 C.2       1 7HF         0.2908
     20 OBA        54.8590   25.1610   -6.0060 O.2       1 7HF        -0.3900
     21 NAO        52.8240   24.1190   -5.9130 N.am      1 7HF        -0.1953
     22 CAV        52.3690   24.5890   -7.0730 C.2       1 7HF         0.1926
     23 CAG        51.2590   25.2390   -7.3990 C.2       1 7HF         0.0149
     24 CBE        50.2350   25.8590   -6.4750 C.3       1 7HF        -0.0529
     25 CAX        51.2730   25.4520   -8.7310 C.2       1 7HF         0.1188
     26 OAI        50.3660   26.1400   -9.4960 O.3       1 7HF        -0.3244
     27 CAL        50.8110   26.1100  -10.8960 C.3       1 7HF         0.0647
     28 CAF        50.2650   27.3480  -11.6370 C.3       1 7HF        -0.0377
     29 NAT        52.3040   24.8140   -9.2630 N.2       1 7HF        -0.2244
     30 NAY        52.9830   24.2560   -8.2770 N.pl3     1 7HF        -0.1628
     31 CAE        54.1190   23.5490   -8.5300 C.ar      1 7HF         0.0996
     32 CAU        54.4220   22.3380   -7.9050 C.ar      1 7HF        -0.0295
     33 CAH        55.5700   21.5900   -8.1350 C.ar      1 7HF        -0.0679
     34 CBB        56.4760   22.0600   -9.0480 C.ar      1 7HF        -0.0704
     35 CBC        56.1620   23.2260   -9.7460 C.ar      1 7HF        -0.0679
     36 CAC        55.0080   23.9780   -9.4950 C.ar      1 7HF        -0.0295
     37 H1         54.8722   25.7971   -2.9153 H         1 7HF         0.0532
     38 H2         58.4531   26.1843    0.4780 H         1 7HF         0.0576
     39 H3         57.9768   23.9799   -0.5578 H         1 7HF         0.0513
     40 H4         55.1391   23.0443   -1.9301 H         1 7HF         0.0530
     41 H5         57.2388   22.0346   -1.2354 H         1 7HF         0.0841
     42 H6         58.1819   22.9883   -2.4303 H         1 7HF         0.0841
     43 H7         56.1052   20.9529   -2.9948 H         1 7HF         0.2037
     44 H8         58.2351   20.0151   -2.4889 H         1 7HF         0.0837
     45 H9         58.9327   21.0382   -3.7901 H         1 7HF         0.0837
     46 H10        58.6158   18.8886   -4.7268 H         1 7HF         0.0613
     47 H11        57.3006   19.9266   -5.3746 H         1 7HF         0.0613
     48 H12        55.4434   16.9732   -4.4808 H         1 7HF         0.0524
     49 H13        56.9682   17.0368   -5.4281 H         1 7HF         0.0524
     50 H14        55.6640   18.2307   -5.7444 H         1 7HF         0.0524
     51 H15        55.8099   21.7043   -5.0757 H         1 7HF         0.0839
     52 H16        57.4259   22.4886   -5.0729 H         1 7HF         0.0839
     53 H17        56.4052   24.5215   -4.2695 H         1 7HF         0.0634
     54 H18        53.8315   23.0969   -3.9356 H         1 7HF         0.1860
     55 H19        52.2055   23.6014   -5.3218 H         1 7HF         0.2298
     56 H20        50.4311   25.5371   -5.4416 H         1 7HF         0.0262
     57 H21        49.2272   25.5356   -6.7747 H         1 7HF         0.0262
     58 H22        50.3018   26.9552   -6.5364 H         1 7HF         0.0262
     59 H23        50.4345   25.1972  -11.3808 H         1 7HF         0.0605
     60 H24        51.9104   26.1171  -10.9313 H         1 7HF         0.0605
     61 H25        50.5986   27.3247  -12.6849 H         1 7HF         0.0255
     62 H26        50.6415   28.2610  -11.1526 H         1 7HF         0.0255
     63 H27        49.1656   27.3410  -11.6020 H         1 7HF         0.0255
     64 H28        53.7080   21.9523   -7.1863 H         1 7HF         0.0568
     65 H29        55.7438   20.6598   -7.6062 H         1 7HF         0.0595
     66 H30        57.4110   21.5404   -9.2233 H         1 7HF         0.0543
     67 H31        56.8427   23.5656  -10.5183 H         1 7HF         0.0595
     68 H32        54.8147   24.8874  -10.0525 H         1 7HF         0.0568
@<TRIPOS>BOND
     1    1    2 ar 
     2    1    8 ar 
     3    2    3 1  
     4    2    4 ar 
     5    4    5 1  
     6    4    6 ar 
     7    6    7 ar 
     8    7    8 ar 
     9    8    9 1  
    10    9   10 1  
    11    9   17 1  
    12   10   11 1  
    13   11   12 1  
    14   11   16 1  
    15   12   13 1  
    16   13   14 1  
    17   14   15 1  
    18   16   17 1  
    19   17   18 1  
    20   18   19 am 
    21   19   20 2  
    22   19   21 am 
    23   21   22 1  
    24   22   23 2  
    25   22   30 1  
    26   23   24 1  
    27   23   25 1  
    28   25   26 1  
    29   25   29 2  
    30   26   27 1  
    31   27   28 1  
    32   29   30 1  
    33   30   31 1  
    34   31   32 ar 
    35   31   36 ar 
    36   32   33 ar 
    37   33   34 ar 
    38   34   35 ar 
    39   35   36 ar 
    40    1   37 1  
    41    6   38 1  
    42    7   39 1  
    43    9   40 1  
    44   10   41 1  
    45   10   42 1  
    46   11   43 1  
    47   12   44 1  
    48   12   45 1  
    49   13   46 1  
    50   13   47 1  
    51   15   48 1  
    52   15   49 1  
    53   15   50 1  
    54   16   51 1  
    55   16   52 1  
    56   17   53 1  
    57   18   54 1  
    58   21   55 1  
    59   24   56 1  
    60   24   57 1  
    61   24   58 1  
    62   27   59 1  
    63   27   60 1  
    64   28   61 1  
    65   28   62 1  
    66   28   63 1  
    67   32   64 1  
    68   33   65 1  
    69   34   66 1  
    70   35   67 1  
    71   36   68 1  
@<TRIPOS>SUBSTRUCTURE
     1 7HF         1

