### 
### Created by X-TOOL on Wed Jan  1 15:39:34 2020
### 

@<TRIPOS>MOLECULE
5h4j_ligand
   60    62     1     0     0
SMALL
GAST_HUCK


@<TRIPOS>ATOM
      1 O16         4.6070    3.9200   27.0360 O.2       1 FKM        -0.1553
      2 S14         4.9940    3.8410   25.6590 S.o2      1 FKM         0.0410
      3 O15         4.3160    4.7280   24.7460 O.2       1 FKM        -0.1553
      4 C13         6.6560    4.2880   25.7110 C.3       1 FKM         0.0867
      5 C12         7.5220    3.2950   26.5630 C.3       1 FKM        -0.0082
      6 C11         9.0110    3.4910   26.2620 C.3       1 FKM         0.0523
      7 O10         9.4200    4.8490   26.5000 O.3       1 FKM        -0.3498
      8 C9         10.7460    5.1100   26.1800 C.3       1 FKM         0.1663
      9 N4         10.8460    5.1910   24.7000 N.am      1 FKM        -0.1646
     10 C3         11.5740    4.1950   24.0320 C.2       1 FKM         0.3325
     11 O8         12.1340    3.2710   24.6790 O.2       1 FKM        -0.3815
     12 N2         11.7160    4.2580   22.7050 N.am      1 FKM        -0.1865
     13 C5         10.2920    6.2060   23.9850 C.2       1 FKM         0.0587
     14 C6         10.4140    6.2640   22.6020 C.2       1 FKM         0.0062
     15 C1         11.1260    5.2400   21.9600 C.2       1 FKM         0.1822
     16 O7         11.2130    5.2110   20.7570 O.2       1 FKM        -0.4124
     17 N17         4.8280    2.3770   25.0960 N.am      1 FKM        -0.2380
     18 C18         4.8870    1.9950   23.6770 C.3       1 FKM         0.0657
     19 C19         4.1780    0.6760   23.4310 C.3       1 FKM        -0.0355
     20 C20         6.3050    1.9860   23.2020 C.ar      1 FKM        -0.0309
     21 C25         6.7690    2.9590   22.3010 C.ar      1 FKM        -0.0696
     22 C24         8.0910    2.9440   21.9050 C.ar      1 FKM        -0.0771
     23 C23         9.0470    2.0570   22.4090 C.ar      1 FKM        -0.0401
     24 C22         8.5950    1.0610   23.2920 C.ar      1 FKM         0.0848
     25 C21         7.2490    1.0400   23.6900 C.ar      1 FKM        -0.0304
     26 O26         9.5250    0.1680   23.7600 O.3       1 FKM        -0.3166
     27 C27         9.1230   -0.8810   24.6410 C.3       1 FKM         0.0811
     28 C31        10.2410   -1.9170   24.6580 C.3       1 FKM        -0.0222
     29 C30        10.3660   -2.3940   26.0940 C.3       1 FKM        -0.0503
     30 C29         9.7750   -1.3260   27.0160 C.3       1 FKM        -0.0503
     31 C28         9.0540   -0.3700   26.0780 C.3       1 FKM        -0.0222
     32 H1          6.7369    5.2928   26.1513 H         1 FKM         0.0519
     33 H2          7.0485    4.3052   24.6835 H         1 FKM         0.0519
     34 H3          7.2356    2.2618   26.3173 H         1 FKM         0.0304
     35 H4          7.3408    3.4814   27.6318 H         1 FKM         0.0304
     36 H5          9.1991    3.2402   25.2076 H         1 FKM         0.0561
     37 H6          9.5979    2.8220   26.9084 H         1 FKM         0.0561
     38 H7         11.3884    4.2997   26.5550 H         1 FKM         0.0931
     39 H8         11.0591    6.0640   26.6294 H         1 FKM         0.0931
     40 H9         12.2706    3.5658   22.2431 H         1 FKM         0.2259
     41 H10         9.7422    6.9884   24.5060 H         1 FKM         0.1178
     42 H11         9.9701    7.0800   22.0336 H         1 FKM         0.0258
     43 H12         4.6692    1.6466   25.7603 H         1 FKM         0.1699
     44 H13         4.3519    2.7644   23.1011 H         1 FKM         0.0670
     45 H14         4.2404    0.4198   22.3631 H         1 FKM         0.0270
     46 H15         3.1220    0.7669   23.7251 H         1 FKM         0.0270
     47 H16         4.6577   -0.1148   24.0264 H         1 FKM         0.0270
     48 H17         6.0935    3.7161   21.9196 H         1 FKM         0.0465
     49 H18         8.4072    3.6633   21.1582 H         1 FKM         0.0572
     50 H19        10.0919    2.1340   22.1308 H         1 FKM         0.0486
     51 H20         6.9191    0.2807   24.3898 H         1 FKM         0.0479
     52 H21         8.1636   -1.3142   24.3219 H         1 FKM         0.0650
     53 H22        11.1856   -1.4620   24.3253 H         1 FKM         0.0294
     54 H23         9.9877   -2.7601   23.9984 H         1 FKM         0.0294
     55 H24        11.4262   -2.5515   26.3413 H         1 FKM         0.0266
     56 H25         9.8158   -3.3381   26.2202 H         1 FKM         0.0266
     57 H26        10.5713   -0.8038   27.5667 H         1 FKM         0.0266
     58 H27         9.0696   -1.7759   27.7301 H         1 FKM         0.0266
     59 H28         8.0004   -0.2883   26.3834 H         1 FKM         0.0294
     60 H29         9.5298    0.6202   26.1338 H         1 FKM         0.0294
@<TRIPOS>BOND
     1    1    2 2  
     2    2    3 2  
     3    2    4 1  
     4    2   17 am 
     5    4    5 1  
     6    5    6 1  
     7    6    7 1  
     8    7    8 1  
     9    8    9 1  
    10    9   10 am 
    11    9   13 1  
    12   10   11 2  
    13   10   12 am 
    14   12   15 am 
    15   13   14 2  
    16   14   15 1  
    17   15   16 2  
    18   17   18 1  
    19   18   19 1  
    20   18   20 1  
    21   20   21 ar 
    22   20   25 ar 
    23   21   22 ar 
    24   22   23 ar 
    25   23   24 ar 
    26   24   25 ar 
    27   24   26 1  
    28   26   27 1  
    29   27   28 1  
    30   27   31 1  
    31   28   29 1  
    32   29   30 1  
    33   30   31 1  
    34    4   32 1  
    35    4   33 1  
    36    5   34 1  
    37    5   35 1  
    38    6   36 1  
    39    6   37 1  
    40    8   38 1  
    41    8   39 1  
    42   12   40 1  
    43   13   41 1  
    44   14   42 1  
    45   17   43 1  
    46   18   44 1  
    47   19   45 1  
    48   19   46 1  
    49   19   47 1  
    50   21   48 1  
    51   22   49 1  
    52   23   50 1  
    53   25   51 1  
    54   27   52 1  
    55   28   53 1  
    56   28   54 1  
    57   29   55 1  
    58   29   56 1  
    59   30   57 1  
    60   30   58 1  
    61   31   59 1  
    62   31   60 1  
@<TRIPOS>SUBSTRUCTURE
     1 FKM         1

