### 
### Created by X-TOOL on Wed Jan  1 15:39:34 2020
### 

@<TRIPOS>MOLECULE
5h6v_ligand
   53    52     1     0     0
SMALL
GAST_HUCK


@<TRIPOS>ATOM
      1 N          -6.4370    3.3350  -12.9570 N.am      1 7HS        -0.2658
      2 CA         -7.8210    3.8080  -12.8870 C.3       1 7HS         0.1309
      3 CAA        -4.6400    1.8170  -13.3560 C.3       1 7HS         0.0258
      4 CAB        -6.1440    2.1320  -13.4330 C.2       1 7HS         0.1751
      5 CAN        -9.9400    5.1730  -15.6950 C.3       1 7HS         0.1129
      6 CAO       -11.2280    5.8150  -15.1360 C.2       1 7HS         0.1245
      7 CAQ       -10.1750    4.3310  -16.9670 C.3       1 7HS        -0.0105
      8 CAR        -8.8380    4.0760  -17.6490 C.3       1 7HS        -0.0155
      9 CAS        -8.1080    5.3850  -17.9160 C.3       1 7HS         0.0627
     10 CAU        -5.9180    5.0400  -19.0720 C.cat     1 7HS         0.2882
     11 C          -8.1870    4.6340  -14.1040 C.2       1 7HS         0.2040
     12 O          -7.4110    5.4390  -14.6150 O.2       1 7HS        -0.3944
     13 NAM        -9.4040    4.4020  -14.5640 N.am      1 7HS        -0.2650
     14 NAT        -6.6590    5.1280  -17.9520 N.pl3     1 7HS        -0.2723
     15 NAV        -6.4910    5.1880  -20.2870 N.pl3     1 7HS        -0.2849
     16 NAW        -4.5960    4.8140  -18.9670 N.pl3     1 7HS        -0.2849
     17 OAC        -6.9910    1.3500  -13.8820 O.2       1 7HS        -0.3972
     18 OAX       -11.1110    6.6040  -14.1950 O.2       1 7HS        -0.3725
     19 CB         -7.9600    4.6710  -11.6220 C.3       1 7HS        -0.0122
     20 CG         -8.9390    3.9760  -10.6750 C.3       1 7HS        -0.0440
     21 CD         -8.2090    2.9280   -9.8450 C.3       1 7HS        -0.0124
     22 CE         -9.2340    2.1280   -9.0510 C.3       1 7HS        -0.0354
     23 NZ         -8.7610    1.9150   -7.6800 N.4       1 7HS         0.2185
     24 H1         -5.6986    3.9302  -12.6399 H         1 7HS         0.1882
     25 H2         -8.4985    2.9438  -12.8234 H         1 7HS         0.0800
     26 H3         -4.4547    0.8117  -13.7622 H         1 7HS         0.0467
     27 H4         -4.3106    1.8551  -12.3072 H         1 7HS         0.0467
     28 H5         -4.0794    2.5589  -13.9436 H         1 7HS         0.0467
     29 H6         -9.2263    5.9677  -15.9577 H         1 7HS         0.0790
     30 H7        -12.2044    5.5798  -15.5571 H         1 7HS         0.1373
     31 H8        -10.8401    4.8767  -17.6525 H         1 7HS         0.0314
     32 H9        -10.6379    3.3714  -16.6934 H         1 7HS         0.0314
     33 H10        -9.0133    3.5597  -18.6044 H         1 7HS         0.0301
     34 H11        -8.2165    3.4429  -16.9987 H         1 7HS         0.0301
     35 H12        -8.3351    6.1038  -17.1149 H         1 7HS         0.0689
     36 H13        -8.4332    5.7980  -18.8823 H         1 7HS         0.0689
     37 H14        -9.9668    3.6938  -14.1378 H         1 7HS         0.1884
     38 H15        -6.1751    5.0062  -17.0509 H         1 7HS         0.2642
     39 H16        -5.9165    5.1192  -21.1391 H         1 7HS         0.2615
     40 H17        -7.5022    5.3696  -20.3608 H         1 7HS         0.2615
     41 H18        -4.1648    4.7020  -18.0383 H         1 7HS         0.2615
     42 H19        -4.0150    4.7529  -19.8153 H         1 7HS         0.2615
     43 H20        -8.3444    5.6661  -11.8904 H         1 7HS         0.0312
     44 H21        -6.9802    4.7760  -11.1333 H         1 7HS         0.0312
     45 H22        -9.7300    3.4879  -11.2633 H         1 7HS         0.0269
     46 H23        -9.3887    4.7228  -10.0042 H         1 7HS         0.0269
     47 H24        -7.5116    3.4240   -9.1539 H         1 7HS         0.0317
     48 H25        -7.6491    2.2541  -10.5101 H         1 7HS         0.0317
     49 H26        -9.3893    1.1534   -9.5369 H         1 7HS         0.0813
     50 H27       -10.1848    2.6805   -9.0252 H         1 7HS         0.0813
     51 H28        -9.4476    1.3852   -7.1662 H         1 7HS         0.1994
     52 H29        -8.6196    2.8063   -7.2310 H         1 7HS         0.1994
     53 H30        -7.8906    1.4070   -7.6999 H         1 7HS         0.1994
@<TRIPOS>BOND
     1    2    1 1  
     2    1    4 am 
     3   11    2 1  
     4    2   19 1  
     5    4    3 1  
     6    4   17 2  
     7    5    6 1  
     8    5    7 1  
     9   13    5 1  
    10    6   18 2  
    11    7    8 1  
    12    8    9 1  
    13    9   14 1  
    14   14   10 ar 
    15   10   15 ar 
    16   10   16 ar 
    17   11   12 2  
    18   11   13 am 
    19   19   20 1  
    20   20   21 1  
    21   21   22 1  
    22   22   23 1  
    23    1   24 1  
    24    2   25 1  
    25    3   26 1  
    26    3   27 1  
    27    3   28 1  
    28    5   29 1  
    29    6   30 1  
    30    7   31 1  
    31    7   32 1  
    32    8   33 1  
    33    8   34 1  
    34    9   35 1  
    35    9   36 1  
    36   13   37 1  
    37   14   38 1  
    38   15   39 1  
    39   15   40 1  
    40   16   41 1  
    41   16   42 1  
    42   19   43 1  
    43   19   44 1  
    44   20   45 1  
    45   20   46 1  
    46   21   47 1  
    47   21   48 1  
    48   22   49 1  
    49   22   50 1  
    50   23   51 1  
    51   23   52 1  
    52   23   53 1  
@<TRIPOS>SUBSTRUCTURE
     1 7HS         1

