### 
### Created by X-TOOL on Mon Sep 10 21:13:28 2018
### 

@<TRIPOS>MOLECULE
5h7h_ligand
   85    87     1     0     0
SMALL
GAST_HUCK


@<TRIPOS>ATOM
      1 C          46.8670  -12.1650  -17.5220 C.2       1 ACE         0.1752
      2 O          47.4130  -11.4040  -16.7570 O.2       1 ACE        -0.3972
      3 CH3        47.5840  -13.4050  -18.0290 C.3       1 ACE         0.0258
      4 N          45.6610  -11.9180  -17.9620 N.am      1 TRP        -0.2648
      5 CA         44.8320  -10.8290  -17.3560 C.3       1 TRP         0.1351
      6 C          44.5700  -11.1120  -15.8750 C.2       1 TRP         0.2052
      7 O          44.2570  -12.2530  -15.5100 O.2       1 TRP        -0.3942
      8 CB         43.5070  -10.7090  -18.1220 C.3       1 TRP         0.0042
      9 CG         42.4260   -9.9940  -17.3900 C.2       1 TRP        -0.0418
     10 CD1        41.2750  -10.5360  -16.9110 C.2       1 TRP         0.0167
     11 CD2        42.3940   -8.6040  -17.0370 C.ar      1 TRP        -0.0214
     12 NE1        40.5120   -9.5720  -16.2890 N.pl3     1 TRP        -0.2890
     13 CE2        41.1810   -8.3800  -16.3340 C.ar      1 TRP         0.0603
     14 CE3        43.2730   -7.5260  -17.2410 C.ar      1 TRP        -0.0747
     15 CZ2        40.8170   -7.1230  -15.8430 C.ar      1 TRP        -0.0443
     16 CZ3        42.9190   -6.2640  -16.7350 C.ar      1 TRP        -0.0792
     17 CH2        41.6960   -6.0770  -16.0470 C.ar      1 TRP        -0.0768
     18 N          44.7070  -10.0790  -15.0340 N.am      1 ARG        -0.2636
     19 CA         44.3330  -10.1530  -13.6220 C.3       1 ARG         0.1311
     20 C          43.2360   -9.1690  -13.2980 C.2       1 ARG         0.2039
     21 O          43.3960   -7.9620  -13.5160 O.2       1 ARG        -0.3944
     22 CB         45.5340   -9.8580  -12.7120 C.3       1 ARG        -0.0092
     23 CG         46.4900  -11.0220  -12.5080 C.3       1 ARG        -0.0156
     24 CD         45.8250  -12.2030  -11.8040 C.3       1 ARG         0.0627
     25 NE         46.7720  -13.2890  -11.5940 N.pl3     1 ARG        -0.2723
     26 CZ         47.2310  -14.0900  -12.5540 C.cat     1 ARG         0.2882
     27 NH1        48.0980  -15.0460  -12.2340 N.pl3     1 ARG        -0.2849
     28 NH2        46.8400  -13.9510  -13.8290 N.pl3     1 ARG        -0.2849
     29 N          42.1290   -9.6590  -12.7370 N.am      1 VAL        -0.2635
     30 CA         41.1120   -8.7600  -12.1880 C.3       1 VAL         0.1334
     31 C          41.7670   -7.9340  -11.0740 C.2       1 VAL         0.2061
     32 O          42.3940   -8.5090  -10.1870 O.2       1 VAL        -0.3942
     33 CB         39.9060   -9.5320  -11.6500 C.3       1 VAL        -0.0062
     34 CG1        39.0100   -8.6510  -10.7810 C.3       1 VAL        -0.0584
     35 CG2        39.1300  -10.1230  -12.8270 C.3       1 VAL        -0.0584
     36 N          41.6400   -6.5910  -11.1210 N.am      1 PRO        -0.2556
     37 CA         42.3160   -5.8060  -10.0750 C.3       1 PRO         0.0972
     38 C          41.6440   -5.9270   -8.6970 C.2       1 PRO         0.0603
     39 O          42.1560   -5.3420   -7.7610 O.co2     1 PRO        -0.5666
     40 CB         42.2820   -4.3660  -10.6120 C.3       1 PRO        -0.0159
     41 CG         41.1680   -4.3420  -11.6000 C.3       1 PRO        -0.0288
     42 CD         41.0670   -5.7400  -12.1720 C.3       1 PRO         0.0362
     43 OXT        40.6260   -6.5950   -8.4250 O.co2     1 PRO        -0.5666
     44 H1         46.9207  -13.9598  -18.7088 H         1 ACE         0.0467
     45 H2         47.8550  -14.0459  -17.1771 H         1 ACE         0.0467
     46 H3         48.4953  -13.1070  -18.5682 H         1 ACE         0.0467
     47 H4         45.2878  -12.4633  -18.7126 H         1 TRP         0.1884
     48 H5         45.3786   -9.8782  -17.4405 H         1 TRP         0.0815
     49 H6         43.1512  -11.7242  -18.3517 H         1 TRP         0.0397
     50 H7         43.7014  -10.1676  -19.0596 H         1 TRP         0.0397
     51 H8         40.9955  -11.5843  -17.0056 H         1 TRP         0.0795
     52 H9         39.5881   -9.7243  -15.8599 H         1 TRP         0.2216
     53 H10        44.2045   -7.6656  -17.7775 H         1 TRP         0.0540
     54 H11        39.8787   -6.9743  -15.3209 H         1 TRP         0.0541
     55 H12        43.5900   -5.4239  -16.8730 H         1 TRP         0.0510
     56 H13        41.4438   -5.0916  -15.6721 H         1 TRP         0.0530
     57 H14        45.0807   -9.2209  -15.3862 H         1 ARG         0.1883
     58 H15        43.9710  -11.1705  -13.4134 H         1 ARG         0.0800
     59 H16        45.1490   -9.5567  -11.7266 H         1 ARG         0.0313
     60 H17        46.1005   -9.0254  -13.1546 H         1 ARG         0.0313
     61 H18        47.3391  -10.6795  -11.8983 H         1 ARG         0.0301
     62 H19        46.8551  -11.3560  -13.4904 H         1 ARG         0.0301
     63 H20        44.9919  -12.5675  -12.4230 H         1 ARG         0.0689
     64 H21        45.4391  -11.8694  -10.8294 H         1 ARG         0.0689
     65 H22        47.1111  -13.4491  -10.6347 H         1 ARG         0.2642
     66 H23        48.4636  -15.6748  -12.9633 H         1 ARG         0.2615
     67 H24        48.4040  -15.1577  -11.2569 H         1 ARG         0.2615
     68 H25        46.1687  -13.2127  -14.0842 H         1 ARG         0.2615
     69 H26        47.2110  -14.5825  -14.5532 H         1 ARG         0.2615
     70 H27        41.9928  -10.6486  -12.6911 H         1 VAL         0.1883
     71 H28        40.7653   -8.0838  -12.9833 H         1 VAL         0.0803
     72 H29        40.2746  -10.3591  -11.0255 H         1 VAL         0.0343
     73 H30        38.1576   -9.2425  -10.4156 H         1 VAL         0.0234
     74 H31        38.6397   -7.8038  -11.3770 H         1 VAL         0.0234
     75 H32        39.5875   -8.2724   -9.9248 H         1 VAL         0.0234
     76 H33        39.8019  -10.7503  -13.4312 H         1 VAL         0.0234
     77 H34        38.7309   -9.3084  -13.4492 H         1 VAL         0.0234
     78 H35        38.2989  -10.7356  -12.4477 H         1 VAL         0.0234
     79 H36        43.3584   -6.1429   -9.9760 H         1 PRO         0.0728
     80 H37        43.2352   -4.1139  -11.0997 H         1 PRO         0.0306
     81 H38        42.0884   -3.6547   -9.7956 H         1 PRO         0.0306
     82 H39        41.3859   -3.6194  -12.4002 H         1 PRO         0.0286
     83 H40        40.2261   -4.0662  -11.1033 H         1 PRO         0.0286
     84 H41        40.0182   -6.0092  -12.3658 H         1 PRO         0.0524
     85 H42        41.6455   -5.8248  -13.1037 H         1 PRO         0.0524
@<TRIPOS>BOND
     1    1    2 2  
     2    1    3 1  
     3    1    4 am 
     4    4    5 1  
     5    5    6 1  
     6    5    8 1  
     7    6    7 2  
     8    6   18 am 
     9    8    9 1  
    10    9   10 2  
    11    9   11 1  
    12   10   12 1  
    13   11   13 ar 
    14   11   14 ar 
    15   12   13 1  
    16   13   15 ar 
    17   14   16 ar 
    18   15   17 ar 
    19   16   17 ar 
    20   18   19 1  
    21   19   20 1  
    22   19   22 1  
    23   20   21 2  
    24   20   29 am 
    25   22   23 1  
    26   23   24 1  
    27   24   25 1  
    28   25   26 ar 
    29   26   27 ar 
    30   26   28 ar 
    31   29   30 1  
    32   30   31 1  
    33   30   33 1  
    34   31   32 2  
    35   31   36 am 
    36   33   34 1  
    37   33   35 1  
    38   36   37 1  
    39   36   42 1  
    40   37   38 1  
    41   37   40 1  
    42   38   39 ar 
    43   38   43 ar 
    44   40   41 1  
    45   41   42 1  
    46    3   44 1  
    47    3   45 1  
    48    3   46 1  
    49    4   47 1  
    50    5   48 1  
    51    8   49 1  
    52    8   50 1  
    53   10   51 1  
    54   12   52 1  
    55   14   53 1  
    56   15   54 1  
    57   16   55 1  
    58   17   56 1  
    59   18   57 1  
    60   19   58 1  
    61   22   59 1  
    62   22   60 1  
    63   23   61 1  
    64   23   62 1  
    65   24   63 1  
    66   24   64 1  
    67   25   65 1  
    68   27   66 1  
    69   27   67 1  
    70   28   68 1  
    71   28   69 1  
    72   29   70 1  
    73   30   71 1  
    74   33   72 1  
    75   34   73 1  
    76   34   74 1  
    77   34   75 1  
    78   35   76 1  
    79   35   77 1  
    80   35   78 1  
    81   37   79 1  
    82   40   80 1  
    83   40   81 1  
    84   41   82 1  
    85   41   83 1  
    86   42   84 1  
    87   42   85 1  
@<TRIPOS>SUBSTRUCTURE
     1 ACE         1

