### 
### Created by X-TOOL on Wed Jan  1 15:39:34 2020
### 

@<TRIPOS>MOLECULE
5h85_ligand
   33    35     1     0     0
SMALL
GAST_HUCK


@<TRIPOS>ATOM
      1 C10       -15.6670   -9.4480   23.4910 C.2       1 5XS         0.2417
      2 N12       -14.8690  -10.1680   24.4920 N.am      1 5XS        -0.2094
      3 C13       -13.7360   -9.5700   25.2450 C.ar      1 5XS         0.1830
      4 C15       -12.4550   -9.3560   27.1580 C.ar      1 5XS         0.0460
      5 C17       -11.6730   -8.2770   25.1980 C.ar      1 5XS         0.0985
      6 C21       -12.7560   -8.7710   24.5160 C.ar      1 5XS         0.1575
      7 C22       -17.6070   -9.6770   21.8830 C.ar      1 5XS        -0.0200
      8 C01       -20.3000   -7.8630   19.1440 C.3       1 5XS         0.0647
      9 O02       -19.4680   -8.3380   20.2000 O.3       1 5XS        -0.2808
     10 C03       -19.4730   -9.7860   20.2760 C.2       1 5XS         0.2641
     11 O04       -20.2620  -10.4310   19.6310 O.2       1 5XS        -0.3568
     12 C05       -18.4880  -10.4640   21.1770 C.ar      1 5XS         0.0676
     13 C06       -18.4780  -11.8480   21.3080 C.ar      1 5XS        -0.0364
     14 C07       -17.5560  -12.4560   22.1490 C.ar      1 5XS        -0.0504
     15 C08       -16.6660  -11.6740   22.8500 C.ar      1 5XS        -0.0369
     16 C09       -16.7000  -10.2810   22.7370 C.ar      1 5XS         0.0637
     17 O11       -15.4980   -8.3060   23.2650 O.2       1 5XS        -0.3685
     18 N14       -13.5280   -9.8520   26.5380 N.ar      1 5XS        -0.2693
     19 N16       -11.5410   -8.5850   26.5260 N.ar      1 5XS        -0.2992
     20 N18       -10.9400   -7.5580   24.3200 N.2       1 5XS        -0.2874
     21 C19       -11.5330   -7.5950   23.1430 C.2       1 5XS         0.1104
     22 N20       -12.6460   -8.3310   23.2470 N.pl3     1 5XS        -0.2417
     23 H1        -15.1032  -11.1221   24.6789 H         1 5XS         0.2359
     24 H2        -12.3106   -9.5798   28.2088 H         1 5XS         0.0964
     25 H3        -17.6230   -8.5988   21.7719 H         1 5XS         0.0726
     26 H4        -20.2695   -6.7637   19.1194 H         1 5XS         0.0575
     27 H5        -21.3342   -8.1973   19.3133 H         1 5XS         0.0575
     28 H6        -19.9382   -8.2614   18.1846 H         1 5XS         0.0575
     29 H7        -19.1887  -12.4511   20.7546 H         1 5XS         0.0706
     30 H8        -17.5371  -13.5349   22.2526 H         1 5XS         0.0641
     31 H9        -15.9321  -12.1427   23.4956 H         1 5XS         0.0705
     32 H10       -11.1764   -7.1077   22.2368 H         1 5XS         0.1394
     33 H11       -13.3087   -8.5284   22.4836 H         1 5XS         0.2375
@<TRIPOS>BOND
     1    1    2 am 
     2   16    1 1  
     3    1   17 2  
     4    2    3 1  
     5    3    6 ar 
     6    3   18 ar 
     7   18    4 ar 
     8    4   19 ar 
     9    6    5 ar 
    10    5   19 ar 
    11    5   20 1  
    12    6   22 1  
    13   12    7 ar 
    14    7   16 ar 
    15    9    8 1  
    16   10    9 1  
    17   10   11 2  
    18   10   12 1  
    19   12   13 ar 
    20   13   14 ar 
    21   14   15 ar 
    22   15   16 ar 
    23   20   21 2  
    24   21   22 1  
    25    2   23 1  
    26    4   24 1  
    27    7   25 1  
    28    8   26 1  
    29    8   27 1  
    30    8   28 1  
    31   13   29 1  
    32   14   30 1  
    33   15   31 1  
    34   21   32 1  
    35   22   33 1  
@<TRIPOS>SUBSTRUCTURE
     1 5XS         1

