### 
### Created by X-TOOL on Mon Sep 10 21:13:27 2018
### 

@<TRIPOS>MOLECULE
5h8b_ligand
   44    47     1     0     0
SMALL
GAST_HUCK


@<TRIPOS>ATOM
      1 C1         14.5970  -64.7180   -3.0080 C.ar      1 5Y2        -0.0350
      2 C2         14.6720  -65.0670   -1.6570 C.ar      1 5Y2        -0.0823
      3 C3         15.6870  -65.8710   -1.1690 C.ar      1 5Y2        -0.0599
      4 N6         21.5790  -69.8910   -0.8380 N.pl3     1 5Y2        -0.2595
      5 C7         16.0120  -65.5140   -6.3090 C.2       1 5Y2         0.1986
      6 C8         16.0120  -67.0140   -6.2300 C.3       1 5Y2         0.0313
      7 C9         18.7830  -67.7870   -2.0840 C.2       1 5Y2         0.1156
      8 C10        19.5930  -68.5180   -1.2150 C.2       1 5Y2         0.0493
      9 C11        20.7090  -69.2120   -1.6700 C.2       1 5Y2         0.2263
     10 C12        20.1020  -68.3430   -3.8680 C.2       1 5Y2         0.1796
     11 C13        20.5780  -68.4480   -5.1860 C.2       1 5Y2         0.1072
     12 C14        21.7240  -69.2510   -5.0870 C.2       1 5Y2         0.0145
     13 C15        20.0180  -67.8540   -6.3610 C.1       1 5Y2         0.0408
     14 C16        21.4220  -69.9330    0.6190 C.3       1 5Y2         0.0840
     15 N5         19.5910  -67.3760   -7.3100 N.1       1 5Y2        -0.3835
     16 N4         21.9870  -69.6490   -3.8110 N.2       1 5Y2        -0.2011
     17 N2         20.9200  -69.1480   -3.0770 N.pl3     1 5Y2        -0.1018
     18 C18        20.7580  -71.1020    1.2270 C.2       1 5Y2        -0.0554
     19 C17        22.2200  -70.9070    1.3900 C.2       1 5Y2        -0.0554
     20 N3         19.0140  -67.7080   -3.4030 N.2       1 5Y2        -0.2698
     21 N1         17.6730  -67.1810   -1.5090 N.pl3     1 5Y2        -0.2623
     22 C4         16.6760  -66.3390   -2.0240 C.ar      1 5Y2         0.0441
     23 C5         16.6660  -65.9540   -3.3610 C.ar      1 5Y2        -0.0246
     24 C6         15.6620  -65.1120   -3.8410 C.ar      1 5Y2         0.0594
     25 C          13.4770  -63.8430   -3.5140 C.3       1 5Y2        -0.0401
     26 N          15.5150  -64.8740   -5.2240 N.am      1 5Y2        -0.2395
     27 O          16.3210  -64.9240   -7.3310 O.2       1 5Y2        -0.3860
     28 H1         13.9156  -64.6984   -0.9736 H         1 5Y2         0.0488
     29 H2         15.7101  -66.1358   -0.1181 H         1 5Y2         0.0395
     30 H3         22.3743  -70.3905   -1.2611 H         1 5Y2         0.1957
     31 H4         16.4336  -67.4300   -7.1570 H         1 5Y2         0.0471
     32 H5         14.9806  -67.3745   -6.1022 H         1 5Y2         0.0471
     33 H6         16.6219  -67.3361   -5.3731 H         1 5Y2         0.0471
     34 H7         19.3456  -68.5459   -0.1548 H         1 5Y2         0.0417
     35 H8         22.3396  -69.5276   -5.9417 H         1 5Y2         0.0721
     36 H9         21.2428  -68.9212    1.0116 H         1 5Y2         0.0660
     37 H10        19.8563  -71.6823    1.4169 H         1 5Y2         0.0597
     38 H11        23.1783  -71.2388    1.7870 H         1 5Y2         0.0597
     39 H12        17.5597  -67.3913   -0.5071 H         1 5Y2         0.2149
     40 H13        17.4402  -66.3091   -4.0316 H         1 5Y2         0.0396
     41 H14        12.7584  -63.6607   -2.7013 H         1 5Y2         0.0342
     42 H15        12.9668  -64.3463   -4.3485 H         1 5Y2         0.0342
     43 H16        13.8891  -62.8840   -3.8610 H         1 5Y2         0.0342
     44 H17        14.9373  -64.0878   -5.4434 H         1 5Y2         0.2233
@<TRIPOS>BOND
     1    1    2 ar 
     2   24    1 ar 
     3    1   25 1  
     4    2    3 ar 
     5   22    3 ar 
     6    9    4 1  
     7    4   14 1  
     8    5    6 1  
     9   26    5 am 
    10    5   27 2  
    11    7    8 1  
    12    7   20 2  
    13   21    7 1  
    14    8    9 2  
    15    9   17 1  
    16   10   11 2  
    17   10   17 1  
    18   20   10 1  
    19   11   12 1  
    20   11   13 1  
    21   16   12 2  
    22   13   15 3  
    23   14   18 1  
    24   14   19 1  
    25   17   16 1  
    26   19   18 2  
    27   22   21 1  
    28   23   22 ar 
    29   24   23 ar 
    30   24   26 1  
    31    2   28 1  
    32    3   29 1  
    33    4   30 1  
    34    6   31 1  
    35    6   32 1  
    36    6   33 1  
    37    8   34 1  
    38   12   35 1  
    39   14   36 1  
    40   18   37 1  
    41   19   38 1  
    42   21   39 1  
    43   23   40 1  
    44   25   41 1  
    45   25   42 1  
    46   25   43 1  
    47   26   44 1  
@<TRIPOS>SUBSTRUCTURE
     1 5Y2         1

