### 
### Created by X-TOOL on Mon Sep 10 21:13:26 2018
### 

@<TRIPOS>MOLECULE
5h8e_ligand
   55    58     1     0     0
SMALL
GAST_HUCK


@<TRIPOS>ATOM
      1 C1         16.4310   65.2870   37.5450 C.2       1 5Y3         0.1973
      2 C2         16.3050   64.9840   35.0110 C.ar      1 5Y3         0.0772
      3 C3         17.2870   65.8580   34.5510 C.ar      1 5Y3        -0.0284
      4 N6         22.3030   69.9030   35.2050 N.2       1 5Y3        -0.2012
      5 C7         15.4210   64.4100   34.0830 C.ar      1 5Y3         0.0526
      6 C8         13.1930   63.7670   35.0470 C.3       1 5Y3         0.0110
      7 C9         14.4890   62.0640   33.7200 C.3       1 5Y3         0.0618
      8 C10        15.8190   61.3310   33.7980 C.3       1 5Y3        -0.0161
      9 C11        19.2800   67.8900   33.3430 C.2       1 5Y3         0.1144
     10 C12        20.1150   68.6440   32.5130 C.2       1 5Y3         0.0490
     11 C13        21.1930   69.3600   33.0390 C.2       1 5Y3         0.2261
     12 C14        20.5160   68.4630   35.1770 C.2       1 5Y3         0.1794
     13 C15        20.9330   68.5840   36.4980 C.2       1 5Y3         0.1072
     14 C16        22.0890   69.3790   36.4380 C.2       1 5Y3         0.0144
     15 C19        22.7040   71.2770   30.1190 C.2       1 5Y3        -0.0554
     16 C20        21.2250   71.2970   30.2400 C.2       1 5Y3        -0.0554
     17 N7         19.9030   67.4460   38.5500 N.1       1 5Y3        -0.3835
     18 C17        20.3520   67.9620   37.6400 C.1       1 5Y3         0.0407
     19 N4         21.3590   69.2710   34.4220 N.pl3     1 5Y3        -0.1019
     20 N8         22.1110   70.0630   32.2510 N.pl3     1 5Y3        -0.2595
     21 C18        21.9990   70.1750   30.7990 C.3       1 5Y3         0.0840
     22 N5         19.4560   67.8090   34.6730 N.2       1 5Y3        -0.2703
     23 N3         18.2700   67.1760   32.7210 N.pl3     1 5Y3        -0.2656
     24 C4         17.3140   66.2580   33.2150 C.ar      1 5Y3         0.0382
     25 C5         16.4590   65.6550   32.3000 C.ar      1 5Y3        -0.0648
     26 C6         15.4850   64.7730   32.7350 C.ar      1 5Y3        -0.0654
     27 N1         14.4850   63.3600   34.5310 N.pl3     1 5Y3        -0.3176
     28 N2         16.0200   60.6830   35.1120 N.4       1 5Y3         0.2199
     29 N          16.0850   64.6690   36.3840 N.am      1 5Y3        -0.2406
     30 O          16.4820   64.7010   38.6190 O.2       1 5Y3        -0.3867
     31 C          16.5340   66.7840   37.4650 C.3       1 5Y3         0.0310
     32 H1         18.0378   66.2311   35.2381 H         1 5Y3         0.0381
     33 H2         12.6165   62.8760   35.3364 H         1 5Y3         0.0468
     34 H3         12.6459   64.3212   34.2701 H         1 5Y3         0.0468
     35 H4         13.3360   64.4126   35.9261 H         1 5Y3         0.0468
     36 H5         13.6992   61.4035   34.1071 H         1 5Y3         0.0557
     37 H6         14.2812   62.3063   32.6673 H         1 5Y3         0.0557
     38 H7         16.6322   62.0525   33.6301 H         1 5Y3         0.0832
     39 H8         15.8455   60.5596   33.0143 H         1 5Y3         0.0832
     40 H9         19.9224   68.6735   31.4416 H         1 5Y3         0.0416
     41 H10        22.7437   69.5560   37.2901 H         1 5Y3         0.0721
     42 H11        23.6300   71.7378   29.7782 H         1 5Y3         0.0597
     43 H12        20.2690   71.7838   30.0529 H         1 5Y3         0.0597
     44 H13        22.9049   70.5242   32.7179 H         1 5Y3         0.1957
     45 H14        21.9487   69.1759   30.3415 H         1 5Y3         0.0660
     46 H15        18.2019   67.3452   31.7073 H         1 5Y3         0.2134
     47 H16        16.5552   65.8760   31.2431 H         1 5Y3         0.0379
     48 H17        14.7712   64.3635   32.0294 H         1 5Y3         0.0442
     49 H18        16.9102   60.2103   35.1208 H         1 5Y3         0.1995
     50 H19        15.2830   60.0145   35.2732 H         1 5Y3         0.1995
     51 H20        16.0039   61.3825   35.8376 H         1 5Y3         0.1995
     52 H21        15.5721   63.8216   36.5212 H         1 5Y3         0.2217
     53 H22        16.8172   67.1851   38.4493 H         1 5Y3         0.0471
     54 H23        15.5624   67.2029   37.1642 H         1 5Y3         0.0471
     55 H24        17.2978   67.0599   36.7231 H         1 5Y3         0.0471
@<TRIPOS>BOND
     1   29    1 am 
     2    1   30 2  
     3    1   31 1  
     4    3    2 ar 
     5    2    5 ar 
     6    2   29 1  
     7   24    3 ar 
     8    4   14 2  
     9   19    4 1  
    10    5   26 ar 
    11    5   27 1  
    12   27    6 1  
    13    7    8 1  
    14   27    7 1  
    15    8   28 1  
    16    9   10 1  
    17    9   22 2  
    18   23    9 1  
    19   10   11 2  
    20   11   19 1  
    21   11   20 1  
    22   12   13 2  
    23   12   19 1  
    24   22   12 1  
    25   13   14 1  
    26   13   18 1  
    27   16   15 2  
    28   21   15 1  
    29   21   16 1  
    30   18   17 3  
    31   20   21 1  
    32   23   24 1  
    33   24   25 ar 
    34   25   26 ar 
    35    3   32 1  
    36    6   33 1  
    37    6   34 1  
    38    6   35 1  
    39    7   36 1  
    40    7   37 1  
    41    8   38 1  
    42    8   39 1  
    43   10   40 1  
    44   14   41 1  
    45   15   42 1  
    46   16   43 1  
    47   20   44 1  
    48   21   45 1  
    49   23   46 1  
    50   25   47 1  
    51   26   48 1  
    52   28   49 1  
    53   28   50 1  
    54   28   51 1  
    55   29   52 1  
    56   31   53 1  
    57   31   54 1  
    58   31   55 1  
@<TRIPOS>SUBSTRUCTURE
     1 5Y3         1

