### 
### Created by X-TOOL on Mon Sep 10 21:13:26 2018
### 

@<TRIPOS>MOLECULE
5h8g_ligand
   61    64     1     0     0
SMALL
GAST_HUCK


@<TRIPOS>ATOM
      1 C1         10.9590   -1.0890   28.6040 C.2       1 5Y4         0.1973
      2 C2         10.4880   -1.5870   31.0590 C.ar      1 5Y4         0.0772
      3 C3         10.5550   -2.9780   31.0930 C.ar      1 5Y4        -0.0284
      4 N6         11.9780   -8.7570   28.6930 N.2       1 5Y4        -0.2012
      5 C7          9.9960   -0.8920   32.1740 C.ar      1 5Y4         0.0526
      6 C8          8.9920    1.2510   31.3370 C.3       1 5Y4         0.0110
      7 C9         10.1750    1.1880   33.5520 C.3       1 5Y4         0.0619
      8 C10        10.9040    2.5710   33.5020 C.3       1 5Y4        -0.0131
      9 C11        12.4400    4.0350   32.3570 C.3       1 5Y4        -0.0433
     10 C12        13.2620    2.0490   33.4000 C.3       1 5Y4        -0.0433
     11 C13        10.6140   -6.0350   31.3590 C.2       1 5Y4         0.1144
     12 C14        10.6640   -7.3510   31.8150 C.2       1 5Y4         0.0490
     13 C15        11.0180   -8.3910   30.9550 C.2       1 5Y4         0.2261
     14 C16        11.4560   -6.6370   29.3140 C.2       1 5Y4         0.1794
     15 C19        12.0960   -5.4250   27.1570 C.1       1 5Y4         0.0407
     16 C20        10.8140  -10.2600   32.6340 C.3       1 5Y4         0.0840
     17 C21         9.4120  -10.4770   33.0300 C.2       1 5Y4        -0.0554
     18 C22        10.2890  -11.6320   32.7480 C.2       1 5Y4        -0.0554
     19 N7         12.2670   -4.5600   26.4250 N.1       1 5Y4        -0.3835
     20 C17        11.9400   -6.5770   27.9980 C.2       1 5Y4         0.1072
     21 C18        12.2460   -7.9080   27.6840 C.2       1 5Y4         0.0144
     22 N4         11.4840   -7.9770   29.6880 N.pl3     1 5Y4        -0.1019
     23 N8         11.0970   -9.7400   31.2990 N.pl3     1 5Y4        -0.2595
     24 N5         11.0120   -5.6680   30.1290 N.2       1 5Y4        -0.2703
     25 N3         10.2510   -5.0810   32.2940 N.pl3     1 5Y4        -0.2656
     26 C4         10.1600   -3.6760   32.2260 C.ar      1 5Y4         0.0382
     27 C5          9.6770   -2.9820   33.3290 C.ar      1 5Y4        -0.0648
     28 C6          9.6260   -1.6010   33.3170 C.ar      1 5Y4        -0.0654
     29 N          10.9500   -0.8370   29.9410 N.am      1 5Y4        -0.2406
     30 O          11.5280   -0.3650   27.8000 O.2       1 5Y4        -0.3867
     31 C          10.0700   -2.2160   28.1550 C.3       1 5Y4         0.0310
     32 N1          9.9710    0.5770   32.1870 N.pl3     1 5Y4        -0.3176
     33 N2         12.1320    2.6470   32.6960 N.4       1 5Y4         0.2323
     34 H1         10.9186   -3.5199   30.2274 H         1 5Y4         0.0381
     35 H2          9.0938    2.3401   31.4531 H         1 5Y4         0.0468
     36 H3          7.9776    0.9441   31.6316 H         1 5Y4         0.0468
     37 H4          9.1677    0.9763   30.2865 H         1 5Y4         0.0468
     38 H5          9.1911    1.3276   34.0237 H         1 5Y4         0.0557
     39 H6         10.7777    0.4962   34.1587 H         1 5Y4         0.0557
     40 H7         11.1665    2.8459   34.5342 H         1 5Y4         0.0833
     41 H8         10.1940    3.3065   33.0959 H         1 5Y4         0.0833
     42 H9         13.3602    4.0699   31.7553 H         1 5Y4         0.0777
     43 H10        12.5837    4.6148   33.2806 H         1 5Y4         0.0777
     44 H11        11.6080    4.4648   31.7799 H         1 5Y4         0.0777
     45 H12        13.0255    1.0049   33.6529 H         1 5Y4         0.0777
     46 H13        13.4597    2.6140   34.3229 H         1 5Y4         0.0777
     47 H14        14.1525    2.0773   32.7549 H         1 5Y4         0.0777
     48 H15        10.4240   -7.5700   32.8544 H         1 5Y4         0.0416
     49 H16        11.5470   -9.8750   33.3582 H         1 5Y4         0.0660
     50 H17         8.4407  -10.0782   33.3189 H         1 5Y4         0.0597
     51 H18        10.4381  -12.7084   32.6767 H         1 5Y4         0.0597
     52 H19        12.6569   -8.2218   26.7256 H         1 5Y4         0.0721
     53 H20        11.3717  -10.4105   30.5670 H         1 5Y4         0.1957
     54 H21         9.9999   -5.4717   33.2133 H         1 5Y4         0.2134
     55 H22         9.3386   -3.5266   34.2030 H         1 5Y4         0.0379
     56 H23         9.2968   -1.0659   34.2004 H         1 5Y4         0.0442
     57 H24        11.3453    0.0483   30.1861 H         1 5Y4         0.2217
     58 H25        10.1514   -2.3350   27.0645 H         1 5Y4         0.0471
     59 H26         9.0273   -1.9894   28.4223 H         1 5Y4         0.0471
     60 H27        10.3811   -3.1479   28.6497 H         1 5Y4         0.0471
     61 H28        11.9813    2.1341   31.8414 H         1 5Y4         0.2028
@<TRIPOS>BOND
     1   29    1 am 
     2    1   30 2  
     3    1   31 1  
     4    3    2 ar 
     5    2    5 ar 
     6    2   29 1  
     7   26    3 ar 
     8    4   21 2  
     9   22    4 1  
    10    5   28 ar 
    11    5   32 1  
    12   32    6 1  
    13    7    8 1  
    14   32    7 1  
    15    8   33 1  
    16   33    9 1  
    17   33   10 1  
    18   11   12 1  
    19   11   24 2  
    20   25   11 1  
    21   12   13 2  
    22   13   22 1  
    23   13   23 1  
    24   14   20 2  
    25   14   22 1  
    26   24   14 1  
    27   15   19 3  
    28   20   15 1  
    29   16   17 1  
    30   16   18 1  
    31   23   16 1  
    32   18   17 2  
    33   20   21 1  
    34   25   26 1  
    35   26   27 ar 
    36   27   28 ar 
    37    3   34 1  
    38    6   35 1  
    39    6   36 1  
    40    6   37 1  
    41    7   38 1  
    42    7   39 1  
    43    8   40 1  
    44    8   41 1  
    45    9   42 1  
    46    9   43 1  
    47    9   44 1  
    48   10   45 1  
    49   10   46 1  
    50   10   47 1  
    51   12   48 1  
    52   16   49 1  
    53   17   50 1  
    54   18   51 1  
    55   21   52 1  
    56   23   53 1  
    57   25   54 1  
    58   27   55 1  
    59   28   56 1  
    60   29   57 1  
    61   31   58 1  
    62   31   59 1  
    63   31   60 1  
    64   33   61 1  
@<TRIPOS>SUBSTRUCTURE
     1 5Y4         1

