### 
### Created by X-TOOL on Mon Sep 10 21:13:28 2018
### 

@<TRIPOS>MOLECULE
5h8x_ligand
   39    41     1     0     0
SMALL
GAST_HUCK


@<TRIPOS>ATOM
      1 CAG       -10.6220   -7.3080   17.0410 C.ar      1 5XT        -0.0253
      2 CAW        -9.6280   -7.1300   16.0740 C.ar      1 5XT         0.1015
      3 OAD        -9.6890   -6.1250   15.0740 O.3       1 5XT        -0.3408
      4 CAR        -8.5260   -7.9630   16.0460 C.ar      1 5XT         0.0986
      5 OAA        -7.5250   -7.7440   15.0530 O.3       1 5XT        -0.3478
      6 CAE        -8.4210   -8.9810   17.0050 C.ar      1 5XT        -0.0566
      7 CAF        -9.4060   -9.1480   17.9810 C.ar      1 5XT        -0.0648
      8 CAS       -10.5050   -8.3210   18.0000 C.ar      1 5XT         0.0428
      9 NAQ       -11.5380   -8.4820   18.9960 N.am      1 5XT        -0.1962
     10 SAX       -11.1960   -8.2000   20.6070 S.o2      1 5XT         0.0873
     11 OAB       -10.1960   -7.0750   20.7500 O.2       1 5XT        -0.1451
     12 OAC       -12.4410   -7.7950   21.3450 O.2       1 5XT        -0.1451
     13 CAV       -10.5350   -9.7310   21.3180 C.ar      1 5XT         0.1136
     14 CAP       -11.2770  -10.9050   21.2300 C.ar      1 5XT        -0.0340
     15 CAN       -10.7870  -12.0960   21.7760 C.ar      1 5XT        -0.0522
     16 CAO        -9.2990   -9.7530   21.9540 C.ar      1 5XT        -0.0340
     17 CAM        -8.8070  -10.9510   22.5030 C.ar      1 5XT        -0.0522
     18 CAU        -9.5450  -12.1270   22.4020 C.ar      1 5XT        -0.0178
     19 CAT        -9.0360  -13.4480   23.0250 C.ar      1 5XT        -0.0179
     20 CAK        -9.9350  -14.4900   23.3080 C.ar      1 5XT        -0.0540
     21 CAI        -9.5230  -15.6870   23.9120 C.ar      1 5XT        -0.0612
     22 CAH        -8.1780  -15.8610   24.2130 C.ar      1 5XT        -0.0617
     23 CAJ        -7.2730  -14.8280   23.9310 C.ar      1 5XT        -0.0612
     24 CAL        -7.6960  -13.6280   23.3470 C.ar      1 5XT        -0.0540
     25 H1        -11.4889   -6.6573   17.0481 H         1 5XT         0.0376
     26 H2         -8.9164   -6.1799   14.5239 H         1 5XT         0.2440
     27 H3         -6.8334   -8.3873   15.1549 H         1 5XT         0.2389
     28 H4         -7.5652   -9.6461   16.9885 H         1 5XT         0.0470
     29 H5         -9.3043   -9.9303   18.7245 H         1 5XT         0.0364
     30 H6        -12.4579   -8.7622   18.7217 H         1 5XT         0.2118
     31 H7        -12.2413  -10.8965   20.7349 H         1 5XT         0.0637
     32 H8        -11.3794  -13.0015   21.7109 H         1 5XT         0.0624
     33 H9         -8.7126   -8.8442   22.0271 H         1 5XT         0.0637
     34 H10        -7.8476  -10.9585   23.0076 H         1 5XT         0.0624
     35 H11       -10.9807  -14.3648   23.0513 H         1 5XT         0.0624
     36 H12       -10.2431  -16.4644   24.1404 H         1 5XT         0.0618
     37 H13        -7.8320  -16.7854   24.6610 H         1 5XT         0.0618
     38 H14        -6.2241  -14.9612   24.1701 H         1 5XT         0.0618
     39 H15        -6.9791  -12.8401   23.1462 H         1 5XT         0.0624
@<TRIPOS>BOND
     1    1    2 ar 
     2    1    8 ar 
     3    2    3 1  
     4    2    4 ar 
     5    4    5 1  
     6    4    6 ar 
     7    6    7 ar 
     8    7    8 ar 
     9    8    9 1  
    10    9   10 am 
    11   10   11 2  
    12   10   12 2  
    13   10   13 1  
    14   13   14 ar 
    15   13   16 ar 
    16   14   15 ar 
    17   15   18 ar 
    18   16   17 ar 
    19   17   18 ar 
    20   18   19 1  
    21   19   20 ar 
    22   19   24 ar 
    23   20   21 ar 
    24   21   22 ar 
    25   22   23 ar 
    26   23   24 ar 
    27    1   25 1  
    28    3   26 1  
    29    5   27 1  
    30    6   28 1  
    31    7   29 1  
    32    9   30 1  
    33   14   31 1  
    34   15   32 1  
    35   16   33 1  
    36   17   34 1  
    37   20   35 1  
    38   21   36 1  
    39   22   37 1  
    40   23   38 1  
    41   24   39 1  
@<TRIPOS>SUBSTRUCTURE
     1 5XT         1

