### 
### Created by X-TOOL on Mon Sep 10 21:13:26 2018
### 

@<TRIPOS>MOLECULE
5h9p_ligand
   75    80     1     0     0
SMALL
GAST_HUCK


@<TRIPOS>ATOM
      1 C1        -20.2110    9.0800   -1.1850 C.3       1 TD2         0.1360
      2 C2        -18.7240    9.2830   -0.9690 C.3       1 TD2         0.1267
      3 C3        -17.9600    8.0440   -1.2040 C.3       1 TD2         0.1476
      4 C4        -18.4500    6.8610   -0.4770 C.3       1 TD2         0.1195
      5 C5        -19.9290    6.6460   -0.7200 C.3       1 TD2         0.1122
      6 C6        -20.4760    5.5710    0.1180 C.3       1 TD2         0.0730
      7 N9        -14.4200    8.3190   -1.7470 N.2       1 TD2        -0.2165
      8 C12       -28.3730    8.6840    3.6960 C.ar      1 TD2        -0.0216
      9 C13       -28.9340    9.3350    4.7610 C.ar      1 TD2        -0.0268
     10 C14       -29.7820    8.6300    5.6480 C.ar      1 TD2         0.1281
     11 C11       -22.8120    9.9560   -0.8300 C.3       1 TD2         0.1360
     12 S1        -21.1350   10.3990   -0.4910 S.3       1 TD2        -0.0931
     13 O5        -20.7530    7.8550   -0.5670 O.3       1 TD2        -0.3552
     14 O51       -23.2860   10.5740   -2.1010 O.3       1 TD2        -0.3552
     15 C51       -24.6600   10.1430   -2.4180 C.3       1 TD2         0.1122
     16 C61       -25.1400   10.8870   -3.6270 C.3       1 TD2         0.0730
     17 O6        -21.7560    5.3220   -0.3340 O.3       1 TD2        -0.3924
     18 O61       -24.3050   10.5260   -4.6890 O.3       1 TD2        -0.3924
     19 C41       -25.6110   10.3420   -1.2650 C.3       1 TD2         0.1195
     20 O4        -18.2360    7.0250    0.9160 O.3       1 TD2        -0.3857
     21 O41       -25.9140   11.7700   -1.0860 O.3       1 TD2        -0.3857
     22 C31       -25.0780    9.7510   -0.0160 C.3       1 TD2         0.1476
     23 C21       -23.7160   10.2500    0.3140 C.3       1 TD2         0.1267
     24 O2        -23.2110    9.5920    1.5230 O.3       1 TD2        -0.3849
     25 O21       -18.2180   10.3350   -1.7790 O.3       1 TD2        -0.3849
     26 N7        -26.0090    9.9000    1.1350 N.pl3     1 TD2        -0.1587
     27 C8        -26.7070    8.8570    1.7040 C.2       1 TD2         0.0882
     28 C9        -27.4480    9.4300    2.7480 C.2       1 TD2         0.0691
     29 N10       -27.1410   10.7640    2.7460 N.2       1 TD2        -0.2165
     30 N11       -26.2840   10.9930    1.7680 N.2       1 TD2        -0.0900
     31 N71       -16.5040    8.2260   -1.0960 N.pl3     1 TD2        -0.1587
     32 N8        -15.6460    8.1180   -2.1370 N.2       1 TD2        -0.0900
     33 C10       -14.4230    8.5710   -0.4110 C.2       1 TD2         0.0691
     34 C71       -15.8200    8.4990    0.0140 C.2       1 TD2         0.0882
     35 C15       -30.0440    7.2390    5.4350 C.ar      1 TD2        -0.0325
     36 C16       -29.4830    6.5940    4.3870 C.ar      1 TD2        -0.0678
     37 C17       -28.6260    7.3080    3.4880 C.ar      1 TD2        -0.0640
     38 C22       -13.2010    8.8500    0.4360 C.ar      1 TD2        -0.0216
     39 C23       -12.0150    9.2920   -0.1960 C.ar      1 TD2        -0.0640
     40 C24       -10.8620    9.5480    0.5670 C.ar      1 TD2        -0.0678
     41 C25       -10.8930    9.3640    1.9320 C.ar      1 TD2        -0.0325
     42 C26       -12.0570    8.9290    2.5540 C.ar      1 TD2         0.1281
     43 C27       -13.2300    8.6660    1.7790 C.ar      1 TD2        -0.0268
     44 F18       -30.3420    9.2670    6.6920 F         1 TD2        -0.1847
     45 F28       -12.0750    8.7500    3.8960 F         1 TD2        -0.1847
     46 H1        -20.3889    9.0385   -2.2697 H         1 TD2         0.0741
     47 H2        -18.5797    9.5703    0.0829 H         1 TD2         0.0663
     48 H3        -18.1368    7.8091   -2.2640 H         1 TD2         0.0746
     49 H4        -17.8972    5.9767   -0.8268 H         1 TD2         0.0655
     50 H5        -20.0264    6.3252   -1.7677 H         1 TD2         0.0646
     51 H6        -20.5018    5.8881    1.1710 H         1 TD2         0.0584
     52 H7        -19.8585    4.6657    0.0227 H         1 TD2         0.0584
     53 H8        -28.7296   10.3869    4.9246 H         1 TD2         0.0566
     54 H9        -22.8321    8.8660   -0.9768 H         1 TD2         0.0741
     55 H10       -24.6361    9.0689   -2.6542 H         1 TD2         0.0646
     56 H11       -25.0802   11.9712   -3.4515 H         1 TD2         0.0584
     57 H12       -26.1800   10.6090   -3.8532 H         1 TD2         0.0584
     58 H13       -22.2784    6.1113   -0.2530 H         1 TD2         0.2095
     59 H14       -23.4092   10.7649   -4.4814 H         1 TD2         0.2095
     60 H15       -26.5502    9.8236   -1.5082 H         1 TD2         0.0655
     61 H16       -17.3100    7.1607    1.0792 H         1 TD2         0.2100
     62 H17       -26.5134   11.8764   -0.3566 H         1 TD2         0.2100
     63 H18       -24.9803    8.6712   -0.2016 H         1 TD2         0.0746
     64 H19       -23.7554   11.3363    0.4826 H         1 TD2         0.0663
     65 H20       -23.1713    8.6539    1.3785 H         1 TD2         0.2101
     66 H21       -17.3051   10.4873   -1.5645 H         1 TD2         0.2101
     67 H22       -26.6874    7.8097    1.4062 H         1 TD2         0.1078
     68 H23       -16.2153    8.6382    1.0191 H         1 TD2         0.1078
     69 H24       -30.6939    6.7010    6.1156 H         1 TD2         0.0569
     70 H25       -29.6811    5.5402    4.2278 H         1 TD2         0.0596
     71 H26       -28.1716    6.7939    2.6487 H         1 TD2         0.0548
     72 H27       -11.9951    9.4336   -1.2705 H         1 TD2         0.0548
     73 H28        -9.9534    9.8884    0.0837 H         1 TD2         0.0596
     74 H29       -10.0057    9.5594    2.5233 H         1 TD2         0.0569
     75 H30       -14.1370    8.3216    2.2626 H         1 TD2         0.0566
@<TRIPOS>BOND
     1    2    1 1  
     2    1   12 1  
     3    1   13 1  
     4    3    2 1  
     5    2   25 1  
     6    3    4 1  
     7   31    3 1  
     8    4    5 1  
     9    4   20 1  
    10    5    6 1  
    11    5   13 1  
    12    6   17 1  
    13   32    7 2  
    14    7   33 1  
    15    8    9 ar 
    16   28    8 1  
    17    8   37 ar 
    18    9   10 ar 
    19   10   35 ar 
    20   10   44 1  
    21   12   11 1  
    22   11   14 1  
    23   11   23 1  
    24   14   15 1  
    25   15   16 1  
    26   15   19 1  
    27   16   18 1  
    28   19   21 1  
    29   22   19 1  
    30   23   22 1  
    31   22   26 1  
    32   23   24 1  
    33   26   27 1  
    34   26   30 1  
    35   27   28 2  
    36   29   28 1  
    37   30   29 2  
    38   31   32 1  
    39   31   34 1  
    40   33   34 2  
    41   33   38 1  
    42   35   36 ar 
    43   36   37 ar 
    44   38   39 ar 
    45   38   43 ar 
    46   39   40 ar 
    47   40   41 ar 
    48   41   42 ar 
    49   42   43 ar 
    50   42   45 1  
    51    1   46 1  
    52    2   47 1  
    53    3   48 1  
    54    4   49 1  
    55    5   50 1  
    56    6   51 1  
    57    6   52 1  
    58    9   53 1  
    59   11   54 1  
    60   15   55 1  
    61   16   56 1  
    62   16   57 1  
    63   17   58 1  
    64   18   59 1  
    65   19   60 1  
    66   20   61 1  
    67   21   62 1  
    68   22   63 1  
    69   23   64 1  
    70   24   65 1  
    71   25   66 1  
    72   27   67 1  
    73   34   68 1  
    74   35   69 1  
    75   36   70 1  
    76   37   71 1  
    77   39   72 1  
    78   40   73 1  
    79   41   74 1  
    80   43   75 1  
@<TRIPOS>SUBSTRUCTURE
     1 TD2         1

