### 
### Created by X-TOOL on Mon Sep 10 21:13:28 2018
### 

@<TRIPOS>MOLECULE
5h9q_ligand
   75    80     1     0     0
SMALL
GAST_HUCK


@<TRIPOS>ATOM
      1 C1         24.0940  -26.6750   36.0750 C.3       1 TD2         0.1360
      2 C2         24.8240  -27.5310   35.0620 C.3       1 TD2         0.1267
      3 C3         24.9510  -28.9400   35.4830 C.3       1 TD2         0.1476
      4 C4         25.4730  -29.1130   36.8510 C.3       1 TD2         0.1195
      5 C5         24.7100  -28.2930   37.8730 C.3       1 TD2         0.1122
      6 C6         25.3660  -28.3410   39.1900 C.3       1 TD2         0.0730
      7 N9         27.2570  -30.1090   32.9860 N.2       1 TD2        -0.2165
      8 C12        21.5110  -17.2460   35.5720 C.ar      1 TD2        -0.0216
      9 C13        22.6450  -16.9440   34.8660 C.ar      1 TD2        -0.0268
     10 C14        22.8680  -15.6090   34.4440 C.ar      1 TD2         0.1281
     11 C11        22.7290  -24.2700   36.1470 C.3       1 TD2         0.1360
     12 S1         24.2820  -24.9750   35.6910 S.3       1 TD2        -0.0931
     13 O5         24.4530  -26.8940   37.4880 O.3       1 TD2        -0.3552
     14 O51        21.6670  -24.9880   35.3820 O.3       1 TD2        -0.3552
     15 C51        20.3280  -24.4750   35.7040 C.3       1 TD2         0.1122
     16 C61        19.3450  -25.1820   34.8210 C.3       1 TD2         0.0730
     17 O6         24.9540  -29.4960   39.8270 O.3       1 TD2        -0.3924
     18 O61        19.4430  -26.5570   35.0930 O.3       1 TD2        -0.3924
     19 C41        20.2860  -22.9830   35.5050 C.3       1 TD2         0.1195
     20 O4         26.8300  -28.7050   36.8760 O.3       1 TD2        -0.3857
     21 O41        20.5600  -22.6760   34.0920 O.3       1 TD2        -0.3857
     22 C31        21.3240  -22.3300   36.3390 C.3       1 TD2         0.1476
     23 C21        22.6860  -22.7890   35.9640 C.3       1 TD2         0.1267
     24 O2         23.6620  -22.1850   36.8710 O.3       1 TD2        -0.3849
     25 O21        24.1880  -27.4550   33.7930 O.3       1 TD2        -0.3849
     26 N7         21.1510  -20.8500   36.3800 N.pl3     1 TD2        -0.1587
     27 C8         21.7510  -19.8890   35.5830 C.2       1 TD2         0.0882
     28 C9         21.2290  -18.6610   36.0480 C.2       1 TD2         0.0691
     29 N10        20.3760  -18.9690   37.0650 N.2       1 TD2        -0.2165
     30 N11        20.3620  -20.2720   37.2200 N.2       1 TD2        -0.0900
     31 N71        25.7350  -29.6970   34.4930 N.pl3     1 TD2        -0.1587
     32 N8         26.7700  -29.2000   33.7810 N.2       1 TD2        -0.0900
     33 C10        26.5470  -31.2560   33.1460 C.2       1 TD2         0.0691
     34 C71        25.5330  -30.9670   34.1520 C.2       1 TD2         0.0882
     35 C15        21.9230  -14.5830   34.7540 C.ar      1 TD2        -0.0325
     36 C16        20.8070  -14.8800   35.4550 C.ar      1 TD2        -0.0678
     37 C17        20.5790  -16.2280   35.8820 C.ar      1 TD2        -0.0640
     38 C22        26.7770  -32.5620   32.4170 C.ar      1 TD2        -0.0216
     39 C23        26.3640  -33.7850   32.9940 C.ar      1 TD2        -0.0640
     40 C24        26.5850  -34.9940   32.3090 C.ar      1 TD2        -0.0678
     41 C25        27.2050  -34.9830   31.0770 C.ar      1 TD2        -0.0325
     42 C26        27.6120  -33.7780   30.5120 C.ar      1 TD2         0.1281
     43 C27        27.3860  -32.5520   31.2070 C.ar      1 TD2        -0.0268
     44 F18        23.9750  -15.3030   33.7470 F         1 TD2        -0.1847
     45 F28        28.2210  -33.7610   29.3040 F         1 TD2        -0.1847
     46 H1         23.0269  -26.9241   35.9794 H         1 TD2         0.0741
     47 H2         25.8404  -27.1236   34.9577 H         1 TD2         0.0663
     48 H3         23.9355  -29.3628   35.4833 H         1 TD2         0.0746
     49 H4         25.4023  -30.1761   37.1245 H         1 TD2         0.0655
     50 H5         23.7260  -28.7729   37.9805 H         1 TD2         0.0646
     51 H6         25.0757  -27.4623   39.7846 H         1 TD2         0.0584
     52 H7         26.4586  -28.3534   39.0633 H         1 TD2         0.0584
     53 H8         23.3659  -17.7190   34.6319 H         1 TD2         0.0566
     54 H9         22.5675  -24.4653   37.2174 H         1 TD2         0.0741
     55 H10        20.0929  -24.6969   36.7554 H         1 TD2         0.0646
     56 H11        19.5842  -24.9906   33.7645 H         1 TD2         0.0584
     57 H12        18.3257  -24.8287   35.0360 H         1 TD2         0.0584
     58 H13        25.3656  -29.5490   40.6816 H         1 TD2         0.2095
     59 H14        20.3269  -26.8528   34.9092 H         1 TD2         0.2095
     60 H15        19.2926  -22.6021   35.7843 H         1 TD2         0.0655
     61 H16        27.1875  -28.8510   37.7440 H         1 TD2         0.2100
     62 H17        19.9020  -23.0899   33.5458 H         1 TD2         0.2100
     63 H18        21.1617  -22.6790   37.3694 H         1 TD2         0.0746
     64 H19        22.9118  -22.5186   34.9219 H         1 TD2         0.0663
     65 H20        23.6131  -21.2387   36.8024 H         1 TD2         0.2101
     66 H21        23.3227  -27.8429   33.8500 H         1 TD2         0.2101
     67 H22        22.4663  -20.0452   34.7769 H         1 TD2         0.1078
     68 H23        24.7739  -31.6443   34.5407 H         1 TD2         0.1078
     69 H24        22.1018  -13.5653   34.4263 H         1 TD2         0.0569
     70 H25        20.0890  -14.1034   35.6927 H         1 TD2         0.0596
     71 H26        19.6859  -16.4698   36.4467 H         1 TD2         0.0548
     72 H27        25.8778  -33.7912   33.9628 H         1 TD2         0.0548
     73 H28        26.2684  -35.9328   32.7489 H         1 TD2         0.0596
     74 H29        27.3754  -35.9138   30.5483 H         1 TD2         0.0569
     75 H30        27.7016  -31.6131   30.7667 H         1 TD2         0.0566
@<TRIPOS>BOND
     1    2    1 1  
     2    1   12 1  
     3    1   13 1  
     4    3    2 1  
     5    2   25 1  
     6    3    4 1  
     7   31    3 1  
     8    4    5 1  
     9    4   20 1  
    10    5    6 1  
    11    5   13 1  
    12    6   17 1  
    13   32    7 2  
    14    7   33 1  
    15    8    9 ar 
    16   28    8 1  
    17    8   37 ar 
    18    9   10 ar 
    19   10   35 ar 
    20   10   44 1  
    21   12   11 1  
    22   11   14 1  
    23   11   23 1  
    24   14   15 1  
    25   15   16 1  
    26   15   19 1  
    27   16   18 1  
    28   19   21 1  
    29   22   19 1  
    30   23   22 1  
    31   22   26 1  
    32   23   24 1  
    33   26   27 1  
    34   26   30 1  
    35   27   28 2  
    36   29   28 1  
    37   30   29 2  
    38   31   32 1  
    39   31   34 1  
    40   33   34 2  
    41   33   38 1  
    42   35   36 ar 
    43   36   37 ar 
    44   38   39 ar 
    45   38   43 ar 
    46   39   40 ar 
    47   40   41 ar 
    48   41   42 ar 
    49   42   43 ar 
    50   42   45 1  
    51    1   46 1  
    52    2   47 1  
    53    3   48 1  
    54    4   49 1  
    55    5   50 1  
    56    6   51 1  
    57    6   52 1  
    58    9   53 1  
    59   11   54 1  
    60   15   55 1  
    61   16   56 1  
    62   16   57 1  
    63   17   58 1  
    64   18   59 1  
    65   19   60 1  
    66   20   61 1  
    67   21   62 1  
    68   22   63 1  
    69   23   64 1  
    70   24   65 1  
    71   25   66 1  
    72   27   67 1  
    73   34   68 1  
    74   35   69 1  
    75   36   70 1  
    76   37   71 1  
    77   39   72 1  
    78   40   73 1  
    79   41   74 1  
    80   43   75 1  
@<TRIPOS>SUBSTRUCTURE
     1 TD2         1

