### 
### Created by X-TOOL on Mon Sep 10 21:13:27 2018
### 

@<TRIPOS>MOLECULE
5h9r_ligand
   60    63     1     0     0
SMALL
GAST_HUCK


@<TRIPOS>ATOM
      1 S1         -2.7030  -10.2710    0.7810 S.3       1 TGZ        -0.0931
      2 C2         -0.2340   -9.2150    1.3200 C.3       1 TGZ         0.1267
      3 C3          0.5560   -7.9500    1.6420 C.3       1 TGZ         0.1476
      4 C5         -1.4520   -6.6030    1.0560 C.3       1 TGZ         0.1122
      5 C6         -2.0090   -5.4260    0.2590 C.3       1 TGZ         0.0730
      6 C14         6.3150   -8.8110   -2.2990 C.ar      1 TGZ         0.1281
      7 C1         -1.7350   -8.9440    1.4280 C.3       1 TGZ         0.1360
      8 C1'        -4.3730   -9.7820    1.0480 C.3       1 TGZ         0.1353
      9 O5         -2.1170   -7.8040    0.6590 O.3       1 TGZ        -0.3552
     10 O5'        -4.8620  -10.4330    2.2260 O.3       1 TGZ        -0.3552
     11 C5'        -6.1510   -9.9320    2.5840 C.3       1 TGZ         0.1115
     12 C6'        -6.5630  -10.5130    3.9300 C.3       1 TGZ         0.0730
     13 O6         -3.4060   -5.2750    0.5270 O.3       1 TGZ        -0.3924
     14 O6'        -5.6900   -9.9960    4.9420 O.3       1 TGZ        -0.3924
     15 C4          0.0420   -6.7710    0.8280 C.3       1 TGZ         0.1195
     16 C4'        -7.1530  -10.2950    1.4940 C.3       1 TGZ         0.1118
     17 O4          0.3170   -6.9930   -0.5660 O.3       1 TGZ        -0.3857
     18 O4'        -7.2130  -11.7210    1.3780 O.3       1 TGZ        -0.3865
     19 C3'        -6.7010   -9.6750    0.1750 C.3       1 TGZ         0.1126
     20 O3'        -7.5640  -10.0250   -0.9160 O.3       1 TGZ        -0.3865
     21 C2'        -5.2770  -10.1030   -0.1410 C.3       1 TGZ         0.1189
     22 O2          0.1450  -10.2500    2.2400 O.3       1 TGZ        -0.3849
     23 O2'        -4.8690   -9.3510   -1.2870 O.3       1 TGZ        -0.3857
     24 N7          2.0080   -8.1210    1.3760 N.pl3     1 TGZ        -0.1587
     25 N8          2.8200   -7.9430    2.4950 N.2       1 TGZ        -0.0900
     26 N9          4.1300   -8.1400    2.0300 N.2       1 TGZ        -0.2165
     27 C10         4.0760   -8.4170    0.7070 C.2       1 TGZ         0.0691
     28 C11         2.7450   -8.4000    0.2900 C.2       1 TGZ         0.0882
     29 C12         5.2750   -8.6780   -0.1400 C.ar      1 TGZ        -0.0216
     30 C13         5.1890   -8.5720   -1.5190 C.ar      1 TGZ        -0.0268
     31 C15         7.5240   -9.1410   -1.7110 C.ar      1 TGZ        -0.0325
     32 C16         7.6190   -9.2350   -0.3240 C.ar      1 TGZ        -0.0678
     33 C17         6.4920   -9.0000    0.4580 C.ar      1 TGZ        -0.0640
     34 F18         6.2410   -8.7280   -3.6380 F         1 TGZ        -0.1847
     35 H1         -0.0003   -9.5370    0.2945 H         1 TGZ         0.0663
     36 H2          0.4216   -7.7260    2.7105 H         1 TGZ         0.0746
     37 H3         -1.6319   -6.4237    2.1263 H         1 TGZ         0.0646
     38 H4         -1.8615   -5.6104   -0.8153 H         1 TGZ         0.0584
     39 H5         -1.4803   -4.5060    0.5492 H         1 TGZ         0.0584
     40 H6         -1.9848   -8.7829    2.4871 H         1 TGZ         0.0741
     41 H7         -4.3935   -8.6940    1.2086 H         1 TGZ         0.0740
     42 H8         -6.1022   -8.8365    2.6706 H         1 TGZ         0.0646
     43 H9         -6.4846  -11.6098    3.8990 H         1 TGZ         0.0584
     44 H10        -7.6007  -10.2257    4.1548 H         1 TGZ         0.0584
     45 H11        -3.8632   -6.0690    0.2757 H         1 TGZ         0.2095
     46 H12        -4.7948  -10.2446    4.7436 H         1 TGZ         0.2095
     47 H13         0.5582   -5.8557    1.1532 H         1 TGZ         0.0655
     48 H14        -8.1473   -9.9064    1.7592 H         1 TGZ         0.0647
     49 H15         1.2532   -7.0957   -0.6905 H         1 TGZ         0.2100
     50 H16        -6.3535  -12.0555    1.1501 H         1 TGZ         0.2100
     51 H17        -6.7205   -8.5811    0.2887 H         1 TGZ         0.0647
     52 H18        -8.4443   -9.7184   -0.7329 H         1 TGZ         0.2100
     53 H19        -5.2383  -11.1808   -0.3575 H         1 TGZ         0.0655
     54 H20         1.0783  -10.4117    2.1661 H         1 TGZ         0.2101
     55 H21        -4.9076   -8.4233   -1.0858 H         1 TGZ         0.2100
     56 H22         2.3763   -8.5782   -0.7191 H         1 TGZ         0.1078
     57 H23         4.2487   -8.3041   -1.9872 H         1 TGZ         0.0566
     58 H24         8.3954   -9.3260   -2.3286 H         1 TGZ         0.0569
     59 H25         8.5639   -9.4893    0.1425 H         1 TGZ         0.0596
     60 H26         6.5611   -9.0678    1.5377 H         1 TGZ         0.0548
@<TRIPOS>BOND
     1    7    1 1  
     2    1    8 1  
     3    3    2 1  
     4    2    7 1  
     5    2   22 1  
     6    3   15 1  
     7   24    3 1  
     8    4    5 1  
     9    4    9 1  
    10   15    4 1  
    11    5   13 1  
    12   30    6 ar 
    13    6   31 ar 
    14    6   34 1  
    15    7    9 1  
    16    8   10 1  
    17    8   21 1  
    18   10   11 1  
    19   11   12 1  
    20   11   16 1  
    21   12   14 1  
    22   15   17 1  
    23   16   18 1  
    24   19   16 1  
    25   19   20 1  
    26   21   19 1  
    27   21   23 1  
    28   24   25 1  
    29   28   24 1  
    30   26   25 2  
    31   27   26 1  
    32   27   28 2  
    33   29   27 1  
    34   29   30 ar 
    35   29   33 ar 
    36   31   32 ar 
    37   32   33 ar 
    38    2   35 1  
    39    3   36 1  
    40    4   37 1  
    41    5   38 1  
    42    5   39 1  
    43    7   40 1  
    44    8   41 1  
    45   11   42 1  
    46   12   43 1  
    47   12   44 1  
    48   13   45 1  
    49   14   46 1  
    50   15   47 1  
    51   16   48 1  
    52   17   49 1  
    53   18   50 1  
    54   19   51 1  
    55   20   52 1  
    56   21   53 1  
    57   22   54 1  
    58   23   55 1  
    59   28   56 1  
    60   30   57 1  
    61   31   58 1  
    62   32   59 1  
    63   33   60 1  
@<TRIPOS>SUBSTRUCTURE
     1 TGZ         1

