### 
### Created by X-TOOL on Mon Sep 10 21:13:28 2018
### 

@<TRIPOS>MOLECULE
5h9s_ligand
   60    63     1     0     0
SMALL
GAST_HUCK


@<TRIPOS>ATOM
      1 S1        -24.1340  -25.0730  -36.8840 S.3       1 TGZ        -0.0931
      2 C2        -24.8070  -27.5990  -36.2480 C.3       1 TGZ         0.1267
      3 C3        -24.7570  -29.0760  -36.6390 C.3       1 TGZ         0.1476
      4 C5        -24.5720  -28.3900  -38.9930 C.3       1 TGZ         0.1122
      5 C6        -25.0820  -28.5570  -40.4180 C.3       1 TGZ         0.0730
      6 C14       -26.5090  -34.0540  -31.5690 C.ar      1 TGZ         0.1281
      7 C1        -24.0650  -26.7870  -37.3030 C.3       1 TGZ         0.1360
      8 C1'       -22.5710  -24.3760  -37.3030 C.3       1 TGZ         0.1353
      9 O5        -24.6490  -27.0150  -38.5920 O.3       1 TGZ        -0.3552
     10 O5'       -21.5500  -25.0140  -36.5210 O.3       1 TGZ        -0.3552
     11 C5'       -20.2450  -24.5170  -36.7880 C.3       1 TGZ         0.1115
     12 C6'       -19.2270  -25.3480  -36.0070 C.3       1 TGZ         0.0730
     13 O6        -24.5490  -29.7530  -41.0070 O.3       1 TGZ        -0.3924
     14 O6'       -19.1450  -26.6790  -36.5450 O.3       1 TGZ        -0.3924
     15 C4        -25.3600  -29.2600  -38.0190 C.3       1 TGZ         0.1195
     16 C4'       -20.2180  -23.0420  -36.3960 C.3       1 TGZ         0.1118
     17 O4        -26.7140  -28.8120  -37.9730 O.3       1 TGZ        -0.3857
     18 O4'       -20.5290  -22.9270  -35.0040 O.3       1 TGZ        -0.3865
     19 C3'       -21.2370  -22.2680  -37.2290 C.3       1 TGZ         0.1126
     20 O3'       -21.2740  -20.8820  -36.8660 O.3       1 TGZ        -0.3865
     21 C2'       -22.6190  -22.8790  -37.0350 C.3       1 TGZ         0.1189
     22 O2        -24.1950  -27.3940  -34.9640 O.3       1 TGZ        -0.3849
     23 O2'       -23.5450  -22.2720  -37.9440 O.3       1 TGZ        -0.3857
     24 N7        -25.4360  -29.9240  -35.6290 N.pl3     1 TGZ        -0.1587
     25 N8        -26.4230  -29.3170  -34.8450 N.2       1 TGZ        -0.0900
     26 N9        -26.8660  -30.3430  -33.9860 N.2       1 TGZ        -0.2165
     27 C10       -26.1650  -31.4670  -34.2750 C.2       1 TGZ         0.0691
     28 C11       -25.2650  -31.1980  -35.2940 C.2       1 TGZ         0.0882
     29 C12       -26.2700  -32.7880  -33.6020 C.ar      1 TGZ        -0.0216
     30 C13       -26.4270  -32.8290  -32.2220 C.ar      1 TGZ        -0.0268
     31 C15       -26.4200  -35.2370  -32.3010 C.ar      1 TGZ        -0.0325
     32 C16       -26.2490  -35.1940  -33.6830 C.ar      1 TGZ        -0.0678
     33 C17       -26.1670  -33.9670  -34.3340 C.ar      1 TGZ        -0.0640
     34 F18       -26.6740  -34.0900  -30.2320 F         1 TGZ        -0.1847
     35 H1        -25.8559  -27.2707  -36.2033 H         1 TGZ         0.0663
     36 H2        -23.7020  -29.3842  -36.6826 H         1 TGZ         0.0746
     37 H3        -23.5183  -28.7043  -38.9645 H         1 TGZ         0.0646
     38 H4        -24.7710  -27.6888  -41.0177 H         1 TGZ         0.0584
     39 H5        -26.1802  -28.6189  -40.4043 H         1 TGZ         0.0584
     40 H6        -23.0126  -27.1062  -37.3280 H         1 TGZ         0.0741
     41 H7        -22.3651  -24.5452  -38.3702 H         1 TGZ         0.0740
     42 H8        -20.0261  -24.6065  -37.8623 H         1 TGZ         0.0646
     43 H9        -19.5362  -25.4021  -34.9528 H         1 TGZ         0.0584
     44 H10       -18.2394  -24.8684  -36.0753 H         1 TGZ         0.0584
     45 H11       -23.6006  -29.7015  -41.0225 H         1 TGZ         0.2095
     46 H12       -19.9962  -27.0966  -36.4851 H         1 TGZ         0.2095
     47 H13       -25.3159  -30.3157  -38.3250 H         1 TGZ         0.0655
     48 H14       -19.2140  -22.6322  -36.5806 H         1 TGZ         0.0647
     49 H15       -26.7375  -27.9079  -37.6824 H         1 TGZ         0.2100
     50 H16       -19.8853  -23.4067  -34.4962 H         1 TGZ         0.2100
     51 H17       -20.9554  -22.3459  -38.2895 H         1 TGZ         0.0647
     52 H18       -21.9165  -20.4324  -37.4023 H         1 TGZ         0.2100
     53 H19       -22.9514  -22.7036  -36.0012 H         1 TGZ         0.0655
     54 H20       -23.2878  -27.6740  -34.9985 H         1 TGZ         0.2101
     55 H21       -23.5859  -21.3379  -37.7759 H         1 TGZ         0.2100
     56 H22       -24.5549  -31.8961  -35.7348 H         1 TGZ         0.1078
     57 H23       -26.4855  -31.9070  -31.6550 H         1 TGZ         0.0566
     58 H24       -26.4840  -36.1928  -31.7936 H         1 TGZ         0.0569
     59 H25       -26.1799  -36.1151  -34.2503 H         1 TGZ         0.0596
     60 H26       -26.0234  -33.9296  -35.4078 H         1 TGZ         0.0548
@<TRIPOS>BOND
     1    7    1 1  
     2    1    8 1  
     3    3    2 1  
     4    2    7 1  
     5    2   22 1  
     6    3   15 1  
     7   24    3 1  
     8    4    5 1  
     9    4    9 1  
    10   15    4 1  
    11    5   13 1  
    12   30    6 ar 
    13    6   31 ar 
    14    6   34 1  
    15    7    9 1  
    16    8   10 1  
    17    8   21 1  
    18   10   11 1  
    19   11   12 1  
    20   11   16 1  
    21   12   14 1  
    22   15   17 1  
    23   16   18 1  
    24   19   16 1  
    25   19   20 1  
    26   21   19 1  
    27   21   23 1  
    28   24   25 1  
    29   28   24 1  
    30   26   25 2  
    31   27   26 1  
    32   27   28 2  
    33   29   27 1  
    34   29   30 ar 
    35   29   33 ar 
    36   31   32 ar 
    37   32   33 ar 
    38    2   35 1  
    39    3   36 1  
    40    4   37 1  
    41    5   38 1  
    42    5   39 1  
    43    7   40 1  
    44    8   41 1  
    45   11   42 1  
    46   12   43 1  
    47   12   44 1  
    48   13   45 1  
    49   14   46 1  
    50   15   47 1  
    51   16   48 1  
    52   17   49 1  
    53   18   50 1  
    54   19   51 1  
    55   20   52 1  
    56   21   53 1  
    57   22   54 1  
    58   23   55 1  
    59   28   56 1  
    60   30   57 1  
    61   31   58 1  
    62   32   59 1  
    63   33   60 1  
@<TRIPOS>SUBSTRUCTURE
     1 TGZ         1

