### 
### Created by X-TOOL on Mon Sep 10 21:13:25 2018
### 

@<TRIPOS>MOLECULE
5ha1_ligand
   53    53     1     0     0
SMALL
GAST_HUCK


@<TRIPOS>ATOM
      1 NAA        -1.5940   -1.5710    4.2440 N.4       1 RNE         0.2319
      2 CAB        -1.8450   -0.3290    5.0500 C.3       1 RNE        -0.0104
      3 CAC        -1.3160   -0.6320    6.4630 C.2       1 RNE        -0.0345
      4 CAD        -0.4530    0.0690    7.2200 C.2       1 RNE        -0.0558
      5 CAG        -0.0770   -0.6490    8.5350 C.2       1 RNE        -0.0754
      6 CAF         1.1170   -0.4290    9.1560 C.2       1 RNE        -0.0806
      7 CAE         1.4340   -1.3080   10.3650 C.2       1 RNE        -0.0715
      8 CAH         2.5370   -1.1770   11.1360 C.2       1 RNE        -0.0512
      9 CAI         2.6450   -2.1980   12.2590 C.2       1 RNE        -0.0618
     10 CAJ         3.6720   -2.1920   13.1250 C.2       1 RNE        -0.0696
     11 CAK         3.7690   -3.1930   14.3210 C.2       1 RNE        -0.0560
     12 CAL         4.5160   -2.8110   15.3630 C.2       1 RNE         0.0234
     13 CAM         4.6360   -3.5930   16.6770 C.3       1 RNE         0.0374
     14 CAN         3.6390   -4.7410   16.7250 C.3       1 RNE        -0.0389
     15 CAO         3.5040   -5.4430   15.4190 C.3       1 RNE        -0.1037
     16 CAP         2.9760   -4.5260   14.3440 C.3       1 RNE        -0.0970
     17 CAQ         3.1080   -5.3060   13.0420 C.3       1 RNE        -0.1205
     18 CAR         1.4880   -4.2930   14.6100 C.3       1 RNE        -0.1205
     19 CAS         5.3300   -1.5290   15.3380 C.3       1 RNE         0.0278
     20 CAT         3.5410   -0.0450   10.9930 C.3       1 RNE        -0.0323
     21 CAU         0.2510    1.3660    6.8100 C.3       1 RNE        -0.0400
     22 H1         -1.9224   -1.4318    3.3012 H         1 RNE         0.2009
     23 H2         -2.0856   -2.3465    4.6599 H         1 RNE         0.2009
     24 H3         -0.6056   -1.7683    4.2298 H         1 RNE         0.2009
     25 H4         -2.9215   -0.1054    5.0839 H         1 RNE         0.0987
     26 H5         -1.3065    0.5256    4.6145 H         1 RNE         0.0987
     27 H6         -1.6955   -1.5468    6.9158 H         1 RNE         0.0630
     28 H7         -0.7839   -1.3492    8.9777 H         1 RNE         0.0522
     29 H8          1.8102    0.3352    8.8076 H         1 RNE         0.0518
     30 H9          0.7241   -2.0925   10.6229 H         1 RNE         0.0484
     31 H10         1.8685   -2.9543   12.3636 H         1 RNE         0.0560
     32 H11         4.4677   -1.4612   12.9882 H         1 RNE         0.0605
     33 H12         4.4409   -2.9126   17.5190 H         1 RNE         0.0732
     34 H13         5.6550   -3.9986   16.7618 H         1 RNE         0.0732
     35 H14         2.6555   -4.3406   17.0120 H         1 RNE         0.0308
     36 H15         3.9744   -5.4664   17.4808 H         1 RNE         0.0308
     37 H16         2.8103   -6.2882   15.5387 H         1 RNE         0.0062
     38 H17         4.4912   -5.8194   15.1130 H         1 RNE         0.0062
     39 H18         2.7381   -4.6920   12.2076 H         1 RNE         0.0022
     40 H19         2.5162   -6.2310   13.1070 H         1 RNE         0.0022
     41 H20         4.1650   -5.5582   12.8711 H         1 RNE         0.0022
     42 H21         1.3668   -3.7302   15.5473 H         1 RNE         0.0022
     43 H22         0.9746   -5.2621   14.6953 H         1 RNE         0.0022
     44 H23         1.0524   -3.7191   13.7788 H         1 RNE         0.0022
     45 H24         5.1934   -1.0268   14.3689 H         1 RNE         0.0698
     46 H25         6.3943   -1.7676   15.4806 H         1 RNE         0.0698
     47 H26         4.9918   -0.8641   16.1463 H         1 RNE         0.0698
     48 H27         3.2772    0.5710   10.1207 H         1 RNE         0.0396
     49 H28         4.5487   -0.4639   10.8548 H         1 RNE         0.0396
     50 H29         3.5237    0.5772   11.8999 H         1 RNE         0.0396
     51 H30        -0.1562    1.7166    5.8502 H         1 RNE         0.0350
     52 H31         1.3300    1.1800    6.7045 H         1 RNE         0.0350
     53 H32         0.0848    2.1329    7.5808 H         1 RNE         0.0350
@<TRIPOS>BOND
     1    1    2 1  
     2    2    3 1  
     3    3    4 2  
     4    4    5 1  
     5    4   21 1  
     6    5    6 2  
     7    6    7 1  
     8    7    8 2  
     9    8    9 1  
    10    8   20 1  
    11    9   10 2  
    12   10   11 1  
    13   11   12 2  
    14   11   16 1  
    15   12   13 1  
    16   12   19 1  
    17   13   14 1  
    18   14   15 1  
    19   15   16 1  
    20   16   17 1  
    21   16   18 1  
    22    1   22 1  
    23    1   23 1  
    24    1   24 1  
    25    2   25 1  
    26    2   26 1  
    27    3   27 1  
    28    5   28 1  
    29    6   29 1  
    30    7   30 1  
    31    9   31 1  
    32   10   32 1  
    33   13   33 1  
    34   13   34 1  
    35   14   35 1  
    36   14   36 1  
    37   15   37 1  
    38   15   38 1  
    39   17   39 1  
    40   17   40 1  
    41   17   41 1  
    42   18   42 1  
    43   18   43 1  
    44   18   44 1  
    45   19   45 1  
    46   19   46 1  
    47   19   47 1  
    48   20   48 1  
    49   20   49 1  
    50   20   50 1  
    51   21   51 1  
    52   21   52 1  
    53   21   53 1  
@<TRIPOS>SUBSTRUCTURE
     1 RNE         1

