### 
### Created by X-TOOL on Mon Sep 10 21:13:30 2018
### 

@<TRIPOS>MOLECULE
5ha9_ligand
   45    47     1     0     0
SMALL
GAST_HUCK


@<TRIPOS>ATOM
      1 N1        -16.7050    2.7960   -6.4410 N.4       1 TP0         0.2328
      2 C3        -12.0640    3.9310   -6.6320 C.2       1 TP0        -0.0258
      3 C4         -9.7470    3.6900   -7.2650 C.ar      1 TP0        -0.0376
      4 C5        -11.3590    6.1750   -7.4640 C.ar      1 TP0        -0.0376
      5 C6        -10.7930    3.4360   -6.3890 C.ar      1 TP0        -0.0279
      6 C7        -12.2160    5.3150   -6.7520 C.ar      1 TP0        -0.0279
      7 C8        -13.0280    2.9450   -6.9240 C.2       1 TP0        -0.0618
      8 C10        -8.4770    3.1700   -6.9990 C.ar      1 TP0        -0.0632
      9 C11       -11.6180    7.5470   -7.4730 C.ar      1 TP0        -0.0632
     10 C12       -10.5970    2.6760   -5.2360 C.ar      1 TP0        -0.0662
     11 C13       -13.2880    5.8560   -6.0410 C.ar      1 TP0        -0.0662
     12 C14       -15.4400    3.5290   -6.2890 C.3       1 TP0        -0.0208
     13 C15        -8.2720    2.4100   -5.8480 C.ar      1 TP0        -0.0722
     14 C16       -12.7050    8.0710   -6.7790 C.ar      1 TP0        -0.0722
     15 C17        -9.3270    2.1630   -4.9720 C.ar      1 TP0        -0.0723
     16 C18       -13.5430    7.2240   -6.0640 C.ar      1 TP0        -0.0723
     17 C19       -17.7350    3.5720   -5.7360 C.3       1 TP0        -0.0431
     18 C20       -17.1330    2.5810   -7.8260 C.3       1 TP0        -0.0431
     19 C21        -9.8620    4.4370   -8.4560 C.3       1 TP0        -0.0101
     20 C22       -10.1970    5.9230   -8.2310 C.3       1 TP0        -0.0101
     21 C29       -14.4860    3.1670   -7.4180 C.3       1 TP0         0.0200
     22 H1        -16.6037    1.8935   -6.0036 H         1 TP0         0.2030
     23 H2        -12.7166    1.9103   -6.7883 H         1 TP0         0.0724
     24 H3         -7.6569    3.3563   -7.6830 H         1 TP0         0.0545
     25 H4        -10.9650    8.2118   -8.0268 H         1 TP0         0.0545
     26 H5        -11.4192    2.4869   -4.5553 H         1 TP0         0.0566
     27 H6        -13.9308    5.2019   -5.4630 H         1 TP0         0.0566
     28 H7        -14.9800    3.2647   -5.3254 H         1 TP0         0.0846
     29 H8        -15.6407    4.6102   -6.3152 H         1 TP0         0.0846
     30 H9         -7.2877    2.0096   -5.6338 H         1 TP0         0.0568
     31 H10       -12.8973    9.1377   -6.7963 H         1 TP0         0.0568
     32 H11        -9.1600    1.5691   -4.0807 H         1 TP0         0.0551
     33 H12       -14.3929    7.6276   -5.5257 H         1 TP0         0.0551
     34 H13       -18.7042    3.0591   -5.8231 H         1 TP0         0.0777
     35 H14       -17.8092    4.5743   -6.1831 H         1 TP0         0.0777
     36 H15       -17.4626    3.6634   -4.6742 H         1 TP0         0.0777
     37 H16       -16.3667    2.0005   -8.3606 H         1 TP0         0.0777
     38 H17       -17.2695    3.5529   -8.3227 H         1 TP0         0.0777
     39 H18       -18.0839    2.0282   -7.8343 H         1 TP0         0.0777
     40 H19       -10.6594    3.9912   -9.0687 H         1 TP0         0.0448
     41 H20        -8.9062    4.3756   -8.9969 H         1 TP0         0.0448
     42 H21        -9.3435    6.3889   -7.7167 H         1 TP0         0.0448
     43 H22       -10.3325    6.3930   -9.2163 H         1 TP0         0.0448
     44 H23       -14.8406    2.2415   -7.8952 H         1 TP0         0.0522
     45 H24       -14.4873    3.9834   -8.1552 H         1 TP0         0.0522
@<TRIPOS>BOND
     1   12    1 1  
     2    1   17 1  
     3    1   18 1  
     4    2    5 1  
     5    2    6 1  
     6    7    2 2  
     7    5    3 ar 
     8    3    8 ar 
     9    3   19 1  
    10    6    4 ar 
    11    4    9 ar 
    12    4   20 1  
    13    5   10 ar 
    14    6   11 ar 
    15   21    7 1  
    16    8   13 ar 
    17    9   14 ar 
    18   10   15 ar 
    19   11   16 ar 
    20   12   21 1  
    21   13   15 ar 
    22   14   16 ar 
    23   19   20 1  
    24    1   22 1  
    25    7   23 1  
    26    8   24 1  
    27    9   25 1  
    28   10   26 1  
    29   11   27 1  
    30   12   28 1  
    31   12   29 1  
    32   13   30 1  
    33   14   31 1  
    34   15   32 1  
    35   16   33 1  
    36   17   34 1  
    37   17   35 1  
    38   17   36 1  
    39   18   37 1  
    40   18   38 1  
    41   18   39 1  
    42   19   40 1  
    43   19   41 1  
    44   20   42 1  
    45   20   43 1  
    46   21   44 1  
    47   21   45 1  
@<TRIPOS>SUBSTRUCTURE
     1 TP0         1

