### 
### Created by X-TOOL on Mon Sep 10 21:13:29 2018
### 

@<TRIPOS>MOLECULE
5hbe_ligand
   51    55     1     0     0
SMALL
GAST_HUCK


@<TRIPOS>ATOM
      1 C2         -3.8920   16.5010  -14.2660 C.2       1 5Y6         0.3202
      2 C4         -3.3470   15.2320  -12.4320 C.3       1 5Y6         0.0663
      3 C5         -4.6920   14.7850  -13.0380 C.3       1 5Y6         0.1223
      4 C6         -4.5880   13.3970  -13.6650 C.3       1 5Y6         0.0029
      5 C7         -4.5050   12.2850  -12.6130 C.3       1 5Y6         0.0329
      6 C11        -6.3080   11.3150  -11.1690 C.ar      1 5Y6         0.0809
      7 C12        -7.1740   10.6270  -12.0370 C.ar      1 5Y6         0.0826
      8 C16        -6.9510    9.7200   -9.4450 C.ar      1 5Y6         0.0005
      9 C17        -6.2050   10.8280   -9.8330 C.ar      1 5Y6         0.0168
     10 C18        -5.3190   11.4770   -8.8440 C.ar      1 5Y6        -0.0391
     11 C19        -3.9510   11.5100   -9.0810 C.ar      1 5Y6        -0.0666
     12 C21        -1.5890   12.2180   -8.3410 C.3       1 5Y6         0.1190
     13 C27        -3.5670   12.7230   -7.0350 C.ar      1 5Y6         0.0711
     14 O1         -3.8190   17.3000  -15.1750 O.2       1 5Y6        -0.3775
     15 N3         -2.9070   16.2640  -13.3820 N.am      1 5Y6        -0.2594
     16 N8         -5.5600   12.4230  -11.5930 N.pl3     1 5Y6        -0.2992
     17 C9         -5.7410   13.7450  -10.9710 C.3       1 5Y6         0.0329
     18 C10        -5.8250   14.8550  -12.0210 C.3       1 5Y6         0.0029
     19 CL         -7.4190   11.0890  -13.6940 Cl        1 5Y6        -0.0729
     20 C14        -7.8740    9.5340  -11.5540 C.ar      1 5Y6         0.0077
     21 N15        -7.7510    9.1140  -10.3030 N.ar      1 5Y6        -0.3181
     22 C20        -3.0920   12.1220   -8.1890 C.ar      1 5Y6        -0.0006
     23 S22        -1.2090   13.4490   -7.0670 S.o2      1 5Y6         0.0692
     24 O23        -0.1660   13.0030   -6.2200 O.2       1 5Y6        -0.1479
     25 O24        -1.2350   14.7520   -7.6240 O.2       1 5Y6        -0.1479
     26 N25        -2.6210   13.3320   -6.2010 N.am      1 5Y6        -0.1812
     27 C26        -2.8360   13.8210   -4.8400 C.3       1 5Y6         0.0439
     28 C28        -4.9640   12.6950   -6.8020 C.ar      1 5Y6        -0.0497
     29 C29        -5.8240   12.0860   -7.6900 C.ar      1 5Y6        -0.0766
     30 O30        -4.9790   15.7660  -14.0640 O.3       1 5Y6        -0.2552
     31 H1         -2.6315   14.3976  -12.3897 H         1 5Y6         0.0551
     32 H2         -3.4830   15.6500  -11.4236 H         1 5Y6         0.0551
     33 H3         -3.6844   13.3590  -14.2911 H         1 5Y6         0.0317
     34 H4         -5.4757   13.2250  -14.2915 H         1 5Y6         0.0317
     35 H5         -3.5231   12.3330  -12.1196 H         1 5Y6         0.0522
     36 H6         -4.6170   11.3116  -13.1129 H         1 5Y6         0.0522
     37 H7         -6.8749    9.3506   -8.4287 H         1 5Y6         0.0759
     38 H8         -3.5521   11.0495   -9.9776 H         1 5Y6         0.0507
     39 H9         -1.3034   12.5692   -9.3435 H         1 5Y6         0.0654
     40 H10        -1.0974   11.2556   -8.1358 H         1 5Y6         0.0654
     41 H11        -2.0160   16.7179  -13.3723 H         1 5Y6         0.1868
     42 H12        -4.8882   13.9465  -10.3061 H         1 5Y6         0.0522
     43 H13        -6.6707   13.7387  -10.3832 H         1 5Y6         0.0522
     44 H14        -6.7831   14.7644  -12.5538 H         1 5Y6         0.0317
     45 H15        -5.7802   15.8279  -11.5098 H         1 5Y6         0.0317
     46 H16        -8.5446    9.0046  -12.2211 H         1 5Y6         0.0762
     47 H17        -3.8686   13.6019   -4.5305 H         1 5Y6         0.0517
     48 H18        -2.6669   14.9075   -4.8097 H         1 5Y6         0.0517
     49 H19        -2.1344   13.3215   -4.1558 H         1 5Y6         0.0517
     50 H20        -5.3639   13.1612   -5.9088 H         1 5Y6         0.0466
     51 H21        -6.8902   12.0788   -7.4947 H         1 5Y6         0.0521
@<TRIPOS>BOND
     1    1   14 2  
     2    1   15 am 
     3   30    1 1  
     4    3    2 1  
     5    2   15 1  
     6    4    3 1  
     7    3   18 1  
     8    3   30 1  
     9    5    4 1  
    10   16    5 1  
    11    6    7 ar 
    12    6    9 ar 
    13    6   16 1  
    14    7   19 1  
    15    7   20 ar 
    16    9    8 ar 
    17    8   21 ar 
    18    9   10 1  
    19   10   11 ar 
    20   10   29 ar 
    21   11   22 ar 
    22   22   12 1  
    23   12   23 1  
    24   22   13 ar 
    25   13   26 1  
    26   13   28 ar 
    27   16   17 1  
    28   17   18 1  
    29   20   21 ar 
    30   23   24 2  
    31   23   25 2  
    32   23   26 am 
    33   26   27 1  
    34   28   29 ar 
    35    2   31 1  
    36    2   32 1  
    37    4   33 1  
    38    4   34 1  
    39    5   35 1  
    40    5   36 1  
    41    8   37 1  
    42   11   38 1  
    43   12   39 1  
    44   12   40 1  
    45   15   41 1  
    46   17   42 1  
    47   17   43 1  
    48   18   44 1  
    49   18   45 1  
    50   20   46 1  
    51   27   47 1  
    52   27   48 1  
    53   27   49 1  
    54   28   50 1  
    55   29   51 1  
@<TRIPOS>SUBSTRUCTURE
     1 5Y6         1

