### 
### Created by X-TOOL on Mon Sep 10 21:13:30 2018
### 

@<TRIPOS>MOLECULE
5hbh_ligand
   65    69     1     0     0
SMALL
GAST_HUCK


@<TRIPOS>ATOM
      1 C1          3.6550   18.3150   15.8440 C.3       1 5Y7         0.0367
      2 C3          4.3030   17.4620   13.7590 C.3       1 5Y7         0.0872
      3 C4          4.8240   16.2780   12.9370 C.3       1 5Y7        -0.0074
      4 C6          2.7200   15.8870   11.6490 C.3       1 5Y7        -0.0311
      5 C7          1.9910   14.6430   11.0790 C.3       1 5Y7        -0.0071
      6 C8          3.2190   13.8080   10.6250 C.3       1 5Y7        -0.0019
      7 C11         6.1830   13.2630   10.1180 C.3       1 5Y7         0.0353
      8 C15         6.9190   10.8780   10.3640 C.ar      1 5Y7         0.0809
      9 C16         7.8750   10.2500   11.2080 C.ar      1 5Y7         0.0826
     10 C18         8.6030    9.1700   10.7140 C.ar      1 5Y7         0.0077
     11 C21         6.7450   10.3230    9.0510 C.ar      1 5Y7         0.0168
     12 C23         4.3810   10.7150    8.1370 C.ar      1 5Y7        -0.0666
     13 C24         3.5430   11.3530    7.2200 C.ar      1 5Y7        -0.0006
     14 O28         0.6690   13.0730    5.4960 O.2       1 5Y7        -0.1479
     15 C30         3.3600   13.3520    4.0580 C.3       1 5Y7         0.0439
     16 C31         4.0730   12.2090    6.2710 C.ar      1 5Y7         0.0711
     17 C32         5.4620   12.4360    6.2590 C.ar      1 5Y7        -0.0497
     18 C33         6.2940   11.8070    7.1490 C.ar      1 5Y7        -0.0766
     19 O2          3.8890   17.1300   15.0770 O.3       1 5Y7        -0.3777
     20 N5          3.8270   15.3030   12.4350 N.4       1 5Y7         0.2413
     21 C9          4.3360   14.1470   11.6490 C.3       1 5Y7        -0.0060
     22 C10         5.6720   14.4320   10.9560 C.3       1 5Y7         0.0135
     23 N12         6.1190   11.9640   10.7930 N.pl3     1 5Y7        -0.2990
     24 C13         5.1340   11.7230   11.8710 C.3       1 5Y7         0.0353
     25 C14         4.6040   12.9740   12.5850 C.3       1 5Y7         0.0135
     26 CL          8.2130   10.7690   12.8440 Cl        1 5Y7        -0.0729
     27 N19         8.4190    8.7050    9.4850 N.ar      1 5Y7        -0.3181
     28 C20         7.5380    9.2450    8.6520 C.ar      1 5Y7         0.0005
     29 C22         5.7710   10.9260    8.1000 C.ar      1 5Y7        -0.0391
     30 C25         2.0290   11.2730    7.0380 C.3       1 5Y7         0.1190
     31 S26         1.7990   12.9420    6.3490 S.o2      1 5Y7         0.0692
     32 O27         2.1430   13.9290    7.3140 O.2       1 5Y7        -0.1479
     33 N29         3.1580   12.8390    5.4170 N.am      1 5Y7        -0.1812
     34 H1          3.3359   18.0374   16.8595 H         1 5Y7         0.0524
     35 H2          2.8674   18.9136   15.3630 H         1 5Y7         0.0524
     36 H3          4.5817   18.9050   15.8993 H         1 5Y7         0.0524
     37 H4          3.4429   17.8962   13.2283 H         1 5Y7         0.0613
     38 H5          5.1060   18.2104   13.8299 H         1 5Y7         0.0613
     39 H6          5.5358   15.7261   13.5685 H         1 5Y7         0.0837
     40 H7          5.3512   16.6896   12.0637 H         1 5Y7         0.0837
     41 H8          2.0493   16.4767   12.2912 H         1 5Y7         0.0815
     42 H9          3.1052   16.5234   10.8388 H         1 5Y7         0.0815
     43 H10         1.3369   14.9028   10.2336 H         1 5Y7         0.0319
     44 H11         1.4042   14.1227   11.8503 H         1 5Y7         0.0319
     45 H12         3.5267   14.0941    9.6084 H         1 5Y7         0.0325
     46 H13         2.9860   12.7332   10.6488 H         1 5Y7         0.0325
     47 H14         7.2318   13.4619    9.8524 H         1 5Y7         0.0523
     48 H15         5.5773   13.2052    9.2016 H         1 5Y7         0.0523
     49 H16         9.3406    8.6961   11.3516 H         1 5Y7         0.0762
     50 H17         3.9570   10.0523    8.8828 H         1 5Y7         0.0507
     51 H18         4.3813   13.1156    3.7249 H         1 5Y7         0.0517
     52 H19         3.2158   14.4425    4.0525 H         1 5Y7         0.0517
     53 H20         2.6345   12.8827    3.3773 H         1 5Y7         0.0517
     54 H21         5.8822   13.1215    5.5319 H         1 5Y7         0.0466
     55 H22         7.3613   11.9936    7.1150 H         1 5Y7         0.0521
     56 H23         3.4139   14.9142   13.2682 H         1 5Y7         0.2040
     57 H24         5.5438   15.3034   10.2970 H         1 5Y7         0.0343
     58 H25         6.4222   14.6624   11.7268 H         1 5Y7         0.0343
     59 H26         5.6106   11.0803   12.6259 H         1 5Y7         0.0523
     60 H27         4.2744   11.1963   11.4309 H         1 5Y7         0.0523
     61 H28         3.6634   12.7122   13.0917 H         1 5Y7         0.0343
     62 H29         5.3477   13.2887   13.3319 H         1 5Y7         0.0343
     63 H30         7.4328    8.8445    7.6502 H         1 5Y7         0.0759
     64 H31         1.4974   11.1344    7.9910 H         1 5Y7         0.0654
     65 H32         1.7311   10.4824    6.3336 H         1 5Y7         0.0654
@<TRIPOS>BOND
     1   19    1 1  
     2    3    2 1  
     3    2   19 1  
     4   20    3 1  
     5    4    5 1  
     6   20    4 1  
     7    6    5 1  
     8   21    6 1  
     9    7   22 1  
    10   23    7 1  
    11    8    9 ar 
    12   11    8 ar 
    13    8   23 1  
    14    9   10 ar 
    15    9   26 1  
    16   27   10 ar 
    17   11   28 ar 
    18   29   11 1  
    19   13   12 ar 
    20   12   29 ar 
    21   13   16 ar 
    22   30   13 1  
    23   31   14 2  
    24   33   15 1  
    25   16   17 ar 
    26   16   33 1  
    27   17   18 ar 
    28   29   18 ar 
    29   21   20 1  
    30   22   21 1  
    31   25   21 1  
    32   23   24 1  
    33   24   25 1  
    34   28   27 ar 
    35   30   31 1  
    36   31   32 2  
    37   31   33 am 
    38    1   34 1  
    39    1   35 1  
    40    1   36 1  
    41    2   37 1  
    42    2   38 1  
    43    3   39 1  
    44    3   40 1  
    45    4   41 1  
    46    4   42 1  
    47    5   43 1  
    48    5   44 1  
    49    6   45 1  
    50    6   46 1  
    51    7   47 1  
    52    7   48 1  
    53   10   49 1  
    54   12   50 1  
    55   15   51 1  
    56   15   52 1  
    57   15   53 1  
    58   17   54 1  
    59   18   55 1  
    60   20   56 1  
    61   22   57 1  
    62   22   58 1  
    63   24   59 1  
    64   24   60 1  
    65   25   61 1  
    66   25   62 1  
    67   28   63 1  
    68   30   64 1  
    69   30   65 1  
@<TRIPOS>SUBSTRUCTURE
     1 5Y7         1

