### 
### Created by X-TOOL on Mon Sep 10 21:13:30 2018
### 

@<TRIPOS>MOLECULE
5hbj_ligand
   52    56     1     0     0
SMALL
GAST_HUCK


@<TRIPOS>ATOM
      1 C1         -3.3280   13.9660   -5.2920 C.3       1 5Y8         0.0555
      2 C4         -1.9130   12.3520   -8.2050 C.2       1 5Y8         0.0212
      3 C5         -3.3310   12.1110   -8.4430 C.ar      1 5Y8         0.0077
      4 C6         -4.0560   11.4610   -9.4570 C.ar      1 5Y8        -0.0604
      5 C7         -5.4460   11.4110   -9.3900 C.ar      1 5Y8        -0.0335
      6 C8         -6.1190   11.9990   -8.3080 C.ar      1 5Y8        -0.0655
      7 C11        -6.2270   10.7270  -10.4510 C.ar      1 5Y8         0.0105
      8 C12        -7.0050    9.6300  -10.0870 C.ar      1 5Y8        -0.0097
      9 N13        -7.7240    8.9660  -10.9740 N.ar      1 5Y8        -0.3024
     10 C16        -7.0000   10.4010  -12.7140 C.ar      1 5Y8         0.0989
     11 C18        -6.2200   11.1370  -11.8090 C.ar      1 5Y8         0.0711
     12 C21        -4.2370   13.0970  -14.2170 C.3       1 5Y8        -0.0202
     13 C23        -3.2380   14.9780  -12.8300 C.3       1 5Y8        -0.0202
     14 C24        -2.3590   15.6640  -13.8980 C.3       1 5Y8         0.0306
     15 N2         -3.0670   13.2490   -6.5420 N.pl3     1 5Y8        -0.2029
     16 N3         -1.8060   13.0180   -7.0930 N.2       1 5Y8        -0.2036
     17 C9         -5.4190   12.6290   -7.3140 C.ar      1 5Y8        -0.0358
     18 C10        -4.0180   12.7000   -7.3590 C.ar      1 5Y8         0.0892
     19 C14        -7.7410    9.3150  -12.2560 C.ar      1 5Y8         0.1076
     20 N15        -8.5160    8.5850  -13.1480 N.pl3     1 5Y8        -0.3248
     21 CL         -7.0770   10.8070  -14.3980 Cl        1 5Y8        -0.0845
     22 N19        -5.4590   12.2300  -12.2190 N.pl3     1 5Y8        -0.3018
     23 C20        -4.2930   12.0370  -13.1010 C.3       1 5Y8         0.0294
     24 C22        -4.4440   14.5090  -13.6770 C.3       1 5Y8         0.0568
     25 N25        -3.3020   16.1330  -14.9170 N.am      1 5Y8        -0.2859
     26 C26        -4.4860   15.4960  -14.8170 C.2       1 5Y8         0.2020
     27 O27        -5.4420   15.6940  -15.5400 O.2       1 5Y8        -0.3443
     28 C28        -5.7520   14.5920  -12.8920 C.3       1 5Y8        -0.0202
     29 C29        -5.7850   13.5820  -11.7330 C.3       1 5Y8         0.0294
     30 H1         -4.4117   13.9954   -5.1056 H         1 5Y8         0.0579
     31 H2         -2.9416   14.9929   -5.3707 H         1 5Y8         0.0579
     32 H3         -2.8269   13.4483   -4.4608 H         1 5Y8         0.0579
     33 H4         -1.0910   12.0319   -8.8436 H         1 5Y8         0.0715
     34 H5         -3.5347   11.0002  -10.2883 H         1 5Y8         0.0569
     35 H6         -7.2010   11.9541   -8.2588 H         1 5Y8         0.0569
     36 H7         -7.0206    9.3136   -9.0503 H         1 5Y8         0.0740
     37 H8         -5.0251   12.8795  -14.9529 H         1 5Y8         0.0277
     38 H9         -3.2534   13.0451  -14.7068 H         1 5Y8         0.0277
     39 H10        -3.5477   15.6874  -12.0485 H         1 5Y8         0.0277
     40 H11        -2.7170   14.1269  -12.3671 H         1 5Y8         0.0277
     41 H12        -1.6459   14.9472  -14.3312 H         1 5Y8         0.0520
     42 H13        -1.8086   16.5103  -13.4611 H         1 5Y8         0.0520
     43 H14        -5.9524   13.0776   -6.4837 H         1 5Y8         0.0559
     44 H15        -8.5376    8.8455  -14.1443 H         1 5Y8         0.1767
     45 H16        -9.0691    7.7832  -12.8132 H         1 5Y8         0.1767
     46 H17        -3.3755   12.1061  -12.4981 H         1 5Y8         0.0520
     47 H18        -4.3556   11.0395  -13.5604 H         1 5Y8         0.0520
     48 H19        -3.0941   16.8348  -15.5984 H         1 5Y8         0.1857
     49 H20        -6.5901   14.3811  -13.5725 H         1 5Y8         0.0277
     50 H21        -5.8584   15.6075  -12.4829 H         1 5Y8         0.0277
     51 H22        -5.0494   13.8804  -10.9715 H         1 5Y8         0.0520
     52 H23        -6.7909   13.5742  -11.2879 H         1 5Y8         0.0520
@<TRIPOS>BOND
     1   15    1 1  
     2    3    2 1  
     3    2   16 2  
     4    4    3 ar 
     5    3   18 ar 
     6    5    4 ar 
     7    5    6 ar 
     8    7    5 1  
     9    6   17 ar 
    10    7    8 ar 
    11   11    7 ar 
    12    8    9 ar 
    13   19    9 ar 
    14   11   10 ar 
    15   10   19 ar 
    16   10   21 1  
    17   22   11 1  
    18   23   12 1  
    19   12   24 1  
    20   13   14 1  
    21   24   13 1  
    22   14   25 1  
    23   15   16 1  
    24   18   15 1  
    25   17   18 ar 
    26   19   20 1  
    27   22   23 1  
    28   22   29 1  
    29   24   26 1  
    30   24   28 1  
    31   25   26 am 
    32   26   27 2  
    33   28   29 1  
    34    1   30 1  
    35    1   31 1  
    36    1   32 1  
    37    2   33 1  
    38    4   34 1  
    39    6   35 1  
    40    8   36 1  
    41   12   37 1  
    42   12   38 1  
    43   13   39 1  
    44   13   40 1  
    45   14   41 1  
    46   14   42 1  
    47   17   43 1  
    48   20   44 1  
    49   20   45 1  
    50   23   46 1  
    51   23   47 1  
    52   25   48 1  
    53   28   49 1  
    54   28   50 1  
    55   29   51 1  
    56   29   52 1  
@<TRIPOS>SUBSTRUCTURE
     1 5Y8         1

