### 
### Created by X-TOOL on Mon Sep 10 21:13:25 2018
### 

@<TRIPOS>MOLECULE
5hbs_ligand
   51    51     1     0     0
SMALL
GAST_HUCK


@<TRIPOS>ATOM
      1 C1         15.7890   -4.5300  -14.1320 C.3       1 RTL        -0.0970
      2 C2         15.2300   -5.5020  -15.1540 C.3       1 RTL        -0.1037
      3 C3         14.9420   -4.8030  -16.4560 C.3       1 RTL        -0.0389
      4 C4         14.0590   -3.5560  -16.5310 C.3       1 RTL         0.0374
      5 C5         14.2540   -2.8110  -15.2010 C.2       1 RTL         0.0234
      6 C6         15.0060   -3.1900  -14.1620 C.2       1 RTL        -0.0560
      7 C7         15.1860   -2.1720  -13.0110 C.2       1 RTL        -0.0696
      8 C8         16.2620   -2.1320  -12.1980 C.2       1 RTL        -0.0618
      9 C9         16.3810   -1.0970  -11.0900 C.2       1 RTL        -0.0512
     10 C10        17.4980   -1.1850  -10.3570 C.2       1 RTL        -0.0715
     11 C11        17.8050   -0.3120   -9.1570 C.2       1 RTL        -0.0806
     12 C12        18.9530   -0.5250   -8.4990 C.2       1 RTL        -0.0755
     13 C13        19.2750    0.1700   -7.1990 C.2       1 RTL        -0.0586
     14 C14        20.2370   -0.4270   -6.5000 C.2       1 RTL        -0.0536
     15 C15        20.6290   -0.1130   -5.0860 C.3       1 RTL         0.0699
     16 O1         20.2540   -1.3390   -4.4630 O.3       1 RTL        -0.3824
     17 C16        17.2540   -4.3040  -14.5280 C.3       1 RTL        -0.1205
     18 C17        15.6760   -5.2330  -12.7920 C.3       1 RTL        -0.1205
     19 C18        13.4540   -1.5080  -15.1800 C.3       1 RTL         0.0278
     20 C19        15.3320   -0.0090  -10.8950 C.3       1 RTL        -0.0323
     21 C20        18.4530    1.3360   -6.7270 C.3       1 RTL        -0.0401
     22 H1         14.2979   -5.9377  -14.7650 H         1 RTL         0.0062
     23 H2         15.9638   -6.3025  -15.3293 H         1 RTL         0.0062
     24 H3         14.4719   -5.5523  -17.1099 H         1 RTL         0.0308
     25 H4         15.9183   -4.5139  -16.8723 H         1 RTL         0.0308
     26 H5         13.0044   -3.8426  -16.6563 H         1 RTL         0.0732
     27 H6         14.3686   -2.9198  -17.3732 H         1 RTL         0.0732
     28 H7         14.3947   -1.4421  -12.8467 H         1 RTL         0.0605
     29 H8         17.0627   -2.8566  -12.3382 H         1 RTL         0.0560
     30 H9         18.2352   -1.9341  -10.6423 H         1 RTL         0.0484
     31 H10        17.1128    0.4660   -8.8385 H         1 RTL         0.0518
     32 H11        19.6774   -1.2228   -8.9164 H         1 RTL         0.0522
     33 H12        20.7923   -1.2182   -7.0015 H         1 RTL         0.0600
     34 H13        20.0653    0.7415   -4.6835 H         1 RTL         0.0731
     35 H14        21.7075    0.0823   -4.9924 H         1 RTL         0.0731
     36 H15        20.4472   -1.2929   -3.5340 H         1 RTL         0.2132
     37 H16        17.7210   -3.6027  -13.8208 H         1 RTL         0.0022
     38 H17        17.2987   -3.8845  -15.5439 H         1 RTL         0.0022
     39 H18        17.7927   -5.2627  -14.5032 H         1 RTL         0.0022
     40 H19        14.6145   -5.3774  -12.5421 H         1 RTL         0.0022
     41 H20        16.1556   -4.6200  -12.0147 H         1 RTL         0.0022
     42 H21        16.1759   -6.2113  -12.8478 H         1 RTL         0.0022
     43 H22        13.6116   -0.9965  -14.2190 H         1 RTL         0.0698
     44 H23        12.3844   -1.7324  -15.3049 H         1 RTL         0.0698
     45 H24        13.7906   -0.8578  -16.0009 H         1 RTL         0.0698
     46 H25        14.5143   -0.1546  -11.6162 H         1 RTL         0.0396
     47 H26        15.7920    0.9771  -11.0565 H         1 RTL         0.0396
     48 H27        14.9324   -0.0641   -9.8716 H         1 RTL         0.0396
     49 H28        17.7356    1.6201   -7.5110 H         1 RTL         0.0350
     50 H29        19.1149    2.1873   -6.5098 H         1 RTL         0.0350
     51 H30        17.9067    1.0542   -5.8148 H         1 RTL         0.0350
@<TRIPOS>BOND
     1    1    2 1  
     2    1    6 1  
     3    1   17 1  
     4    1   18 1  
     5    2    3 1  
     6    3    4 1  
     7    4    5 1  
     8    5    6 2  
     9    5   19 1  
    10    6    7 1  
    11    7    8 2  
    12    8    9 1  
    13    9   10 2  
    14    9   20 1  
    15   10   11 1  
    16   11   12 2  
    17   12   13 1  
    18   13   14 2  
    19   13   21 1  
    20   14   15 1  
    21   15   16 1  
    22    2   22 1  
    23    2   23 1  
    24    3   24 1  
    25    3   25 1  
    26    4   26 1  
    27    4   27 1  
    28    7   28 1  
    29    8   29 1  
    30   10   30 1  
    31   11   31 1  
    32   12   32 1  
    33   14   33 1  
    34   15   34 1  
    35   15   35 1  
    36   16   36 1  
    37   17   37 1  
    38   17   38 1  
    39   17   39 1  
    40   18   40 1  
    41   18   41 1  
    42   18   42 1  
    43   19   43 1  
    44   19   44 1  
    45   19   45 1  
    46   20   46 1  
    47   20   47 1  
    48   20   48 1  
    49   21   49 1  
    50   21   50 1  
    51   21   51 1  
@<TRIPOS>SUBSTRUCTURE
     1 RTL         1

