### 
### Created by X-TOOL on Mon Sep 10 21:13:30 2018
### 

@<TRIPOS>MOLECULE
5hcl_ligand
   15    14     1     0     0
SMALL
GAST_HUCK


@<TRIPOS>ATOM
      1 C01        11.8040    5.6330   -1.3040 C.3       1 5Y9         0.0222
      2 N02        12.8650    4.6400   -1.1690 N.am      1 5Y9        -0.2796
      3 C03        12.7150    3.3050   -1.7310 C.3       1 5Y9         0.0222
      4 C04        14.0790    4.9580   -0.4860 C.2       1 5Y9         0.1749
      5 C05        14.2440    6.3500    0.1060 C.3       1 5Y9         0.0258
      6 O06        14.9220    4.1230   -0.3910 O.2       1 5Y9        -0.3972
      7 H1         10.9603    5.1951   -1.8575 H         1 5Y9         0.0486
      8 H2         12.1872    6.5070   -1.8510 H         1 5Y9         0.0486
      9 H3         11.4648    5.9452   -0.3053 H         1 5Y9         0.0486
     10 H4         13.6196    2.7152   -1.5214 H         1 5Y9         0.0486
     11 H5         12.5696    3.3793   -2.8188 H         1 5Y9         0.0486
     12 H6         11.8426    2.8120   -1.2773 H         1 5Y9         0.0486
     13 H7         15.2275    6.4273    0.5926 H         1 5Y9         0.0467
     14 H8         13.4525    6.5288    0.8486 H         1 5Y9         0.0467
     15 H9         14.1714    7.1002   -0.6952 H         1 5Y9         0.0467
@<TRIPOS>BOND
     1    1    2 1  
     2    2    3 1  
     3    2    4 am 
     4    4    5 1  
     5    4    6 2  
     6    1    7 1  
     7    1    8 1  
     8    1    9 1  
     9    3   10 1  
    10    3   11 1  
    11    3   12 1  
    12    5   13 1  
    13    5   14 1  
    14    5   15 1  
@<TRIPOS>SUBSTRUCTURE
     1 5Y9         1

