### 
### Created by X-TOOL on Mon Sep 10 21:13:25 2018
### 

@<TRIPOS>MOLECULE
5hct_ligand
   45    47     1     0     0
SMALL
GAST_HUCK


@<TRIPOS>ATOM
      1 C11        24.4970   12.6640   57.6270 C.3       1 61P        -0.0319
      2 C12        24.4290   11.4510   56.8070 C.ar      1 61P        -0.0492
      3 C13        23.6390   11.4190   55.6610 C.ar      1 61P        -0.0635
      4 C14        23.5970   10.2880   54.8650 C.ar      1 61P        -0.0711
      5 C15        24.3340    9.1690   55.2080 C.ar      1 61P        -0.0648
      6 N4         26.5970    7.8910   57.7630 N.2       1 61P        -0.1817
      7 O1         28.0180    7.2260   60.0080 O.2       1 61P        -0.3733
      8 C18        27.9400    6.4400   59.0640 C.2       1 61P         0.2730
      9 C19        28.6370    5.0820   59.1200 C.3       1 61P         0.0778
     10 C20        28.1700    4.2750   60.3390 C.3       1 61P         0.0251
     11 C21        26.6830    4.0600   60.4180 C.2       1 61P        -0.0386
     12 C28        25.9700    2.8230   60.2340 C.ar      1 61P        -0.0213
     13 C27        26.3470    1.5200   59.9240 C.ar      1 61P        -0.0747
     14 C26        25.3830    0.5260   59.8280 C.ar      1 61P        -0.0792
     15 C25        24.0400    0.8150   60.0340 C.ar      1 61P        -0.0768
     16 C24        23.6350    2.1040   60.3420 C.ar      1 61P        -0.0443
     17 C23        24.6060    3.0970   60.4430 C.ar      1 61P         0.0603
     18 N7         24.4930    4.4340   60.7360 N.pl3     1 61P        -0.2890
     19 C22        25.7400    5.0010   60.7180 C.2       1 61P         0.0168
     20 N6         30.1140    5.3140   59.1390 N.4       1 61P         0.2393
     21 N5         27.2470    6.6860   57.9310 N.am      1 61P        -0.1601
     22 C17        25.8780    7.9610   56.7090 C.2       1 61P         0.0312
     23 C16        25.1220    9.1610   56.3570 C.ar      1 61P        -0.0255
     24 C29        25.1680   10.3130   57.1480 C.ar      1 61P        -0.0574
     25 H1         23.8475   13.4377   57.1917 H         1 61P         0.0389
     26 H2         25.5341   13.0296   57.6557 H         1 61P         0.0389
     27 H3         24.1604   12.4351   58.6489 H         1 61P         0.0389
     28 H4         23.0512   12.2885   55.3898 H         1 61P         0.0533
     29 H5         22.9850   10.2789   53.9704 H         1 61P         0.0592
     30 H6         24.2982    8.2889   54.5762 H         1 61P         0.0540
     31 H7         28.3812    4.5132   58.2139 H         1 61P         0.1120
     32 H8         28.4876    4.8098   61.2462 H         1 61P         0.0430
     33 H9         28.6574    3.2895   60.3048 H         1 61P         0.0430
     34 H10        27.3913    1.2817   59.7578 H         1 61P         0.0540
     35 H11        25.6818   -0.4883   59.5893 H         1 61P         0.0510
     36 H12        23.3021    0.0251   59.9531 H         1 61P         0.0530
     37 H13        22.5875    2.3338   60.5005 H         1 61P         0.0541
     38 H14        23.6130    4.9302   60.9368 H         1 61P         0.2216
     39 H15        25.9492    6.0515   60.9147 H         1 61P         0.0795
     40 H16        30.3811    5.8454   58.3252 H         1 61P         0.2016
     41 H17        30.5935    4.4274   59.1336 H         1 61P         0.2016
     42 H18        30.3631    5.8257   59.9710 H         1 61P         0.2016
     43 H19        27.2050    5.9925   57.2118 H         1 61P         0.2553
     44 H20        25.8268    7.0958   56.0497 H         1 61P         0.0710
     45 H21        25.7855   10.3246   58.0388 H         1 61P         0.0530
@<TRIPOS>BOND
     1    2    1 1  
     2    3    2 ar 
     3    2   24 ar 
     4    4    3 ar 
     5    5    4 ar 
     6   23    5 ar 
     7    6   21 1  
     8   22    6 2  
     9    8    7 2  
    10    8    9 1  
    11   21    8 am 
    12    9   10 1  
    13    9   20 1  
    14   10   11 1  
    15   11   12 1  
    16   11   19 2  
    17   12   13 ar 
    18   12   17 ar 
    19   13   14 ar 
    20   14   15 ar 
    21   16   15 ar 
    22   17   16 ar 
    23   18   17 1  
    24   19   18 1  
    25   22   23 1  
    26   23   24 ar 
    27    1   25 1  
    28    1   26 1  
    29    1   27 1  
    30    3   28 1  
    31    4   29 1  
    32    5   30 1  
    33    9   31 1  
    34   10   32 1  
    35   10   33 1  
    36   13   34 1  
    37   14   35 1  
    38   15   36 1  
    39   16   37 1  
    40   18   38 1  
    41   19   39 1  
    42   20   40 1  
    43   20   41 1  
    44   20   42 1  
    45   21   43 1  
    46   22   44 1  
    47   24   45 1  
@<TRIPOS>SUBSTRUCTURE
     1 61P         1

