### 
### Created by X-TOOL on Mon Sep 10 21:13:27 2018
### 

@<TRIPOS>MOLECULE
5hcv_ligand
   44    48     1     0     0
SMALL
GAST_HUCK


@<TRIPOS>ATOM
      1 C10        -4.0670  -20.5520   -8.5950 C.ar      1 60R        -0.0633
      2 C13        -1.7460  -18.9830   -7.9330 C.ar      1 60R         0.0026
      3 C14        -1.6010  -20.3100   -8.2560 C.ar      1 60R         0.1037
      4 C15         0.0350  -21.9490   -8.9760 C.3       1 60R         0.1070
      5 C16        -0.3490  -23.0840   -8.1060 C.ar      1 60R        -0.0038
      6 C17        -1.7890  -23.4190   -8.0700 C.ar      1 60R        -0.0163
      7 C18        -2.1730  -24.4750   -7.2660 C.ar      1 60R        -0.0611
      8 C19        -1.1840  -25.1370   -6.5260 C.ar      1 60R        -0.0686
      9 C22        -2.5030  -25.3120  -10.5340 C.ar      1 60R        -0.0785
     10 C23        -2.7460  -26.6160  -11.0150 C.ar      1 60R        -0.0431
     11 F          -3.1890  -17.1770   -7.6680 F         1 60R        -0.1854
     12 C12        -3.0400  -18.4620   -7.9360 C.ar      1 60R         0.1251
     13 C11        -4.1810  -19.2050   -8.2580 C.ar      1 60R        -0.0380
     14 C9         -2.8040  -21.1460   -8.5850 C.ar      1 60R         0.0075
     15 O3         -0.3400  -20.7850   -8.2440 O.3       1 60R        -0.3024
     16 C21         0.5840  -23.7500   -7.3620 C.ar      1 60R        -0.0569
     17 C20         0.1490  -24.8000   -6.5570 C.ar      1 60R        -0.0688
     18 C8         -2.7210  -22.5880   -8.9210 C.2       1 60R        -0.0247
     19 C7         -3.4290  -22.9950   -9.9950 C.2       1 60R        -0.0667
     20 C6         -3.5520  -24.3760  -10.5140 C.ar      1 60R        -0.0550
     21 C5         -4.8520  -24.7040  -10.9570 C.ar      1 60R        -0.0442
     22 C4         -5.1430  -25.9770  -11.4340 C.ar      1 60R         0.0972
     23 N          -6.3710  -26.3260  -11.9060 N.am      1 60R        -0.2343
     24 C1         -6.7480  -27.6140  -12.0420 C.2       1 60R         0.2314
     25 O1         -7.9030  -27.9490  -12.3520 O.2       1 60R        -0.3833
     26 C3         -4.0380  -26.9790  -11.4570 C.ar      1 60R         0.1184
     27 O2         -4.3760  -28.2210  -11.9530 O.3       1 60R        -0.3012
     28 C2         -5.7160  -28.7010  -11.7800 C.3       1 60R         0.1620
     29 H1         -4.9451  -21.1294   -8.8607 H         1 60R         0.0581
     30 H2         -0.8899  -18.3657   -7.6858 H         1 60R         0.0527
     31 H3         -0.5046  -21.9950   -9.9334 H         1 60R         0.0790
     32 H4          1.1186  -21.9552   -9.1651 H         1 60R         0.0790
     33 H5         -3.2108  -24.7830   -7.2092 H         1 60R         0.0597
     34 H6         -1.4873  -25.9626   -5.8924 H         1 60R         0.0560
     35 H7         -1.5158  -25.0341  -10.1828 H         1 60R         0.0470
     36 H8         -1.9402  -27.3405  -11.0455 H         1 60R         0.0508
     37 H9         -5.1560  -18.7315   -8.2452 H         1 60R         0.0518
     38 H10         1.6305  -23.4696   -7.3973 H         1 60R         0.0555
     39 H11         0.8615  -25.3519   -5.9546 H         1 60R         0.0596
     40 H12        -3.9695  -22.2226  -10.5401 H         1 60R         0.0523
     41 H13        -5.6334  -23.9533  -10.9247 H         1 60R         0.0448
     42 H14        -7.0146  -25.6041  -12.1602 H         1 60R         0.2223
     43 H15        -5.8891  -29.5315  -12.4802 H         1 60R         0.0861
     44 H16        -5.8338  -29.0613  -10.7474 H         1 60R         0.0861
@<TRIPOS>BOND
     1    1   13 ar 
     2   14    1 ar 
     3    3    2 ar 
     4    2   12 ar 
     5   14    3 ar 
     6    3   15 1  
     7    5    4 1  
     8   15    4 1  
     9    6    5 ar 
    10    5   16 ar 
    11    6    7 ar 
    12   18    6 1  
    13    7    8 ar 
    14    8   17 ar 
    15    9   10 ar 
    16   20    9 ar 
    17   10   26 ar 
    18   12   11 1  
    19   13   12 ar 
    20   18   14 1  
    21   16   17 ar 
    22   19   18 2  
    23   19   20 1  
    24   20   21 ar 
    25   21   22 ar 
    26   22   23 1  
    27   22   26 ar 
    28   23   24 am 
    29   24   25 2  
    30   24   28 1  
    31   26   27 1  
    32   27   28 1  
    33    1   29 1  
    34    2   30 1  
    35    4   31 1  
    36    4   32 1  
    37    7   33 1  
    38    8   34 1  
    39    9   35 1  
    40   10   36 1  
    41   13   37 1  
    42   16   38 1  
    43   17   39 1  
    44   19   40 1  
    45   21   41 1  
    46   23   42 1  
    47   28   43 1  
    48   28   44 1  
@<TRIPOS>SUBSTRUCTURE
     1 60R         1

