### 
### Created by X-TOOL on Mon Sep 10 21:13:28 2018
### 

@<TRIPOS>MOLECULE
5hcx_ligand
   53    57     1     0     0
SMALL
GAST_HUCK


@<TRIPOS>ATOM
      1 C4        -53.3340    1.0580  -19.5370 C.ar      1 60B         0.0381
      2 C5        -54.3070    2.0600  -19.6960 C.ar      1 60B        -0.0031
      3 C11       -51.4750   -1.6240  -21.1820 C.3       1 60B         0.0637
      4 C7        -54.6520    1.4550  -21.9500 C.ar      1 60B         0.1201
      5 C8        -53.6680    0.4790  -21.8780 C.ar      1 60B         0.0063
      6 C9        -53.0150    0.2490  -20.6610 C.ar      1 60B         0.0901
      7 C12       -49.9810   -1.4350  -21.4550 C.3       1 60B        -0.0355
      8 C13       -51.9120   -3.0530  -20.8770 C.3       1 60B        -0.0355
      9 N3        -52.5440    0.6250  -18.5120 N.2       1 60B        -0.3161
     10 C1        -50.8180   -1.0520  -17.9800 C.3       1 60B         0.0185
     11 C2        -51.8010   -0.3760  -18.9090 C.2       1 60B         0.1213
     12 N6        -54.9210    2.2060  -20.8680 N.ar      1 60B        -0.2977
     13 N10       -52.0460   -0.6410  -20.2460 N.pl3     1 60B        -0.2259
     14 N14       -55.3420    1.7340  -23.1430 N.pl3     1 60B        -0.2472
     15 C15       -55.4550    0.9650  -24.2940 C.ar      1 60B         0.1393
     16 C16       -56.6500    1.0610  -25.0270 C.ar      1 60B         0.0043
     17 C17       -56.7820    0.2950  -26.1820 C.ar      1 60B         0.0052
     18 N18       -55.7790   -0.4930  -26.5650 N.ar      1 60B        -0.2922
     19 C19       -54.6320   -0.5480  -25.8790 C.ar      1 60B         0.0855
     20 N20       -54.4740    0.1640  -24.7510 N.ar      1 60B        -0.2591
     21 C21       -53.5790   -1.4900  -26.3440 C.2       1 60B         0.0297
     22 C22       -53.3940   -1.9880  -27.6510 C.2       1 60B         0.0064
     23 N23       -52.4220   -2.8550  -27.6350 N.2       1 60B        -0.1796
     24 N24       -51.9550   -2.9700  -26.3200 N.am      1 60B        -0.0501
     25 C25       -52.6850   -2.1390  -25.5470 C.2       1 60B         0.1096
     26 S26       -50.7280   -3.9740  -25.7780 S.o2      1 60B         0.1126
     27 O27       -50.0300   -4.3390  -26.9680 O.2       1 60B        -0.1365
     28 O28       -50.1040   -3.2150  -24.7420 O.2       1 60B        -0.1365
     29 C29       -51.5470   -5.4380  -25.0640 C.3       1 60B         0.1139
     30 C30       -50.6920   -6.6970  -24.8930 C.3       1 60B        -0.0254
     31 C31       -51.1270   -5.8960  -23.6670 C.3       1 60B        -0.0254
     32 H1        -54.5566    2.7119  -18.8666 H         1 60B         0.0724
     33 H2        -51.9521   -1.3953  -22.1464 H         1 60B         0.0634
     34 H3        -53.4072   -0.1003  -22.7564 H         1 60B         0.0533
     35 H4        -49.6367   -2.2061  -22.1599 H         1 60B         0.0258
     36 H5        -49.4217   -1.5244  -20.5120 H         1 60B         0.0258
     37 H6        -49.8107   -0.4388  -21.8893 H         1 60B         0.0258
     38 H7        -52.9971   -3.0742  -20.6977 H         1 60B         0.0258
     39 H8        -51.3853   -3.4143  -19.9814 H         1 60B         0.0258
     40 H9        -51.6689   -3.7012  -21.7318 H         1 60B         0.0258
     41 H10       -50.8816   -0.5934  -16.9822 H         1 60B         0.0497
     42 H11       -49.7983   -0.9315  -18.3745 H         1 60B         0.0497
     43 H12       -51.0590   -2.1228  -17.9074 H         1 60B         0.0497
     44 H13       -55.8343    2.6384  -23.1667 H         1 60B         0.2173
     45 H14       -57.4500    1.7158  -24.7009 H         1 60B         0.0631
     46 H15       -57.6946    0.3396  -26.7654 H         1 60B         0.0865
     47 H16       -53.9690   -1.6958  -28.5285 H         1 60B         0.0619
     48 H17       -52.5778   -2.0095  -24.4710 H         1 60B         0.1080
     49 H18       -52.5968   -5.4973  -25.3872 H         1 60B         0.0572
     50 H19       -49.6378   -6.6929  -25.2071 H         1 60B         0.0285
     51 H20       -51.1281   -7.6884  -25.0854 H         1 60B         0.0285
     52 H21       -51.8758   -6.3113  -22.9765 H         1 60B         0.0285
     53 H22       -50.3855   -5.3158  -23.0982 H         1 60B         0.0285
@<TRIPOS>BOND
     1    1    2 ar 
     2    6    1 ar 
     3    1    9 1  
     4    2   12 ar 
     5    3    7 1  
     6    3    8 1  
     7   13    3 1  
     8    5    4 ar 
     9    4   12 ar 
    10    4   14 1  
    11    6    5 ar 
    12    6   13 1  
    13    9   11 2  
    14   11   10 1  
    15   11   13 1  
    16   14   15 1  
    17   15   16 ar 
    18   15   20 ar 
    19   16   17 ar 
    20   17   18 ar 
    21   18   19 ar 
    22   19   20 ar 
    23   19   21 1  
    24   21   22 1  
    25   21   25 2  
    26   22   23 2  
    27   23   24 1  
    28   24   25 1  
    29   24   26 am 
    30   26   27 2  
    31   26   28 2  
    32   26   29 1  
    33   29   30 1  
    34   29   31 1  
    35   30   31 1  
    36    2   32 1  
    37    3   33 1  
    38    5   34 1  
    39    7   35 1  
    40    7   36 1  
    41    7   37 1  
    42    8   38 1  
    43    8   39 1  
    44    8   40 1  
    45   10   41 1  
    46   10   42 1  
    47   10   43 1  
    48   14   44 1  
    49   16   45 1  
    50   17   46 1  
    51   22   47 1  
    52   25   48 1  
    53   29   49 1  
    54   30   50 1  
    55   30   51 1  
    56   31   52 1  
    57   31   53 1  
@<TRIPOS>SUBSTRUCTURE
     1 60B         1

