### 
### Created by X-TOOL on Mon Sep 10 21:13:27 2018
### 

@<TRIPOS>MOLECULE
5hcy_ligand
   69    74     1     0     0
SMALL
GAST_HUCK


@<TRIPOS>ATOM
      1 C14       -55.4040    1.0340  -24.4270 C.ar      1 60D         0.1393
      2 C5        -51.4200   -0.3610  -19.2420 C.2       1 60D         0.0531
      3 C6        -52.2210    0.6080  -18.7020 C.2       1 60D         0.0526
      4 C7        -53.1070    1.0580  -19.7980 C.ar      1 60D         0.0096
      5 C8        -52.7220    0.3230  -20.9520 C.ar      1 60D         0.0798
      6 C9        -53.4010    0.5760  -22.1550 C.ar      1 60D         0.0058
      7 C10       -54.4510    1.5030  -22.1580 C.ar      1 60D         0.1211
      8 C12       -54.1310    2.0030  -19.9050 C.ar      1 60D        -0.0091
      9 C3        -51.7140   -2.8220  -21.4320 C.3       1 60D        -0.0352
     10 C1        -49.5200   -1.5660  -21.3380 C.3       1 60D        -0.0352
     11 C2        -51.0370   -1.4500  -21.5160 C.3       1 60D         0.0610
     12 N4        -51.6890   -0.5140  -20.5780 N.pl3     1 60D        -0.2501
     13 N11       -54.7530    2.1950  -21.0590 N.ar      1 60D        -0.2960
     14 N13       -55.1990    1.8180  -23.3040 N.pl3     1 60D        -0.2470
     15 C15       -56.6300    1.1430  -25.1010 C.ar      1 60D         0.0044
     16 C16       -56.8150    0.3760  -26.2470 C.ar      1 60D         0.0051
     17 N17       -55.8400   -0.4380  -26.6540 N.ar      1 60D        -0.2922
     18 C18       -54.6730   -0.5160  -26.0100 C.ar      1 60D         0.0855
     19 N19       -54.4530    0.2190  -24.9160 N.ar      1 60D        -0.2591
     20 C20       -53.6350   -1.4670  -26.4730 C.2       1 60D         0.0297
     21 C21       -53.4880   -2.0310  -27.7580 C.2       1 60D         0.0064
     22 N22       -52.4710   -2.8490  -27.7270 N.2       1 60D        -0.1796
     23 N23       -51.9290   -2.8520  -26.4320 N.am      1 60D        -0.0501
     24 C24       -52.6670   -2.0110  -25.6830 C.2       1 60D         0.1096
     25 S25       -50.6590   -3.7890  -25.8720 S.o2      1 60D         0.1126
     26 O26       -49.8760   -4.0330  -27.0380 O.2       1 60D        -0.1365
     27 O27       -50.1330   -3.0770  -24.7500 O.2       1 60D        -0.1365
     28 C28       -51.4560   -5.3360  -25.3260 C.3       1 60D         0.1139
     29 C29       -50.5490   -6.5070  -24.9380 C.3       1 60D        -0.0254
     30 C30       -51.3340   -5.7570  -23.8620 C.3       1 60D        -0.0254
     31 C31       -52.2560    1.0830  -17.3040 C.2       1 60D         0.1793
     32 O32       -52.8540    2.1130  -17.0150 O.2       1 60D        -0.4023
     33 N33       -51.6070    0.3820  -16.3460 N.am      1 60D        -0.2885
     34 C34       -51.6430    0.7840  -14.9400 C.3       1 60D         0.0449
     35 C35       -52.7490   -0.0720  -14.2860 C.3       1 60D        -0.0064
     36 C36       -52.7930    0.1860  -12.7750 C.3       1 60D         0.0497
     37 O37       -51.4930   -0.1200  -12.2500 O.3       1 60D        -0.3796
     38 C38       -50.4070    0.6810  -12.7640 C.3       1 60D         0.0497
     39 C39       -50.2800    0.5120  -14.2890 C.3       1 60D        -0.0064
     40 H1        -50.6743   -0.9303  -18.6890 H         1 60D         0.1059
     41 H2        -53.1171    0.0623  -23.0663 H         1 60D         0.0536
     42 H3        -54.4189    2.5840  -19.0363 H         1 60D         0.0736
     43 H4        -51.2252   -3.5155  -22.1321 H         1 60D         0.0259
     44 H5        -52.7772   -2.7231  -21.6962 H         1 60D         0.0259
     45 H6        -51.6256   -3.2124  -20.4074 H         1 60D         0.0259
     46 H7        -49.0657   -0.5663  -21.4034 H         1 60D         0.0259
     47 H8        -49.1062   -2.2093  -22.1285 H         1 60D         0.0259
     48 H9        -49.2988   -2.0056  -20.3542 H         1 60D         0.0259
     49 H10       -51.2063   -1.0581  -22.5297 H         1 60D         0.0640
     50 H11       -55.6497    2.7442  -23.3100 H         1 60D         0.2174
     51 H12       -57.4091    1.8045  -24.7398 H         1 60D         0.0631
     52 H13       -57.7429    0.4394  -26.8039 H         1 60D         0.0865
     53 H14       -54.1136   -1.8207  -28.6242 H         1 60D         0.0619
     54 H15       -52.5159   -1.8011  -24.6251 H         1 60D         0.1080
     55 H16       -52.3912   -5.5030  -25.8805 H         1 60D         0.0572
     56 H17       -49.4559   -6.3993  -24.9971 H         1 60D         0.0285
     57 H18       -50.8314   -7.5350  -25.2091 H         1 60D         0.0285
     58 H19       -52.1809   -6.2459  -23.3582 H         1 60D         0.0285
     59 H20       -50.8053   -5.1103  -23.1463 H         1 60D         0.0285
     60 H21       -51.0888   -0.4328  -16.6060 H         1 60D         0.1836
     61 H22       -51.8857    1.8531  -14.8505 H         1 60D         0.0555
     62 H23       -52.5396   -1.1366  -14.4670 H         1 60D         0.0309
     63 H24       -53.7213    0.1908  -14.7281 H         1 60D         0.0309
     64 H25       -53.5498   -0.4594  -12.3051 H         1 60D         0.0560
     65 H26       -53.0384    1.2405  -12.5805 H         1 60D         0.0560
     66 H27       -49.4678    0.3651  -12.2864 H         1 60D         0.0560
     67 H28       -50.5981    1.7393  -12.5328 H         1 60D         0.0560
     68 H29       -49.5374    1.2243  -14.6778 H         1 60D         0.0309
     69 H30       -49.9597   -0.5146  -14.5203 H         1 60D         0.0309
@<TRIPOS>BOND
     1   14    1 1  
     2    1   15 ar 
     3    1   19 ar 
     4    2    3 2  
     5   12    2 1  
     6    4    3 1  
     7    3   31 1  
     8    5    4 ar 
     9    4    8 ar 
    10    5    6 ar 
    11   12    5 1  
    12    6    7 ar 
    13    7   13 ar 
    14    7   14 1  
    15    8   13 ar 
    16   11    9 1  
    17   11   10 1  
    18   11   12 1  
    19   15   16 ar 
    20   16   17 ar 
    21   17   18 ar 
    22   18   19 ar 
    23   18   20 1  
    24   20   21 1  
    25   20   24 2  
    26   21   22 2  
    27   22   23 1  
    28   23   24 1  
    29   23   25 am 
    30   25   26 2  
    31   25   27 2  
    32   25   28 1  
    33   28   29 1  
    34   28   30 1  
    35   29   30 1  
    36   31   32 2  
    37   31   33 am 
    38   33   34 1  
    39   34   35 1  
    40   34   39 1  
    41   35   36 1  
    42   36   37 1  
    43   37   38 1  
    44   38   39 1  
    45    2   40 1  
    46    6   41 1  
    47    8   42 1  
    48    9   43 1  
    49    9   44 1  
    50    9   45 1  
    51   10   46 1  
    52   10   47 1  
    53   10   48 1  
    54   11   49 1  
    55   14   50 1  
    56   15   51 1  
    57   16   52 1  
    58   21   53 1  
    59   24   54 1  
    60   28   55 1  
    61   29   56 1  
    62   29   57 1  
    63   30   58 1  
    64   30   59 1  
    65   33   60 1  
    66   34   61 1  
    67   35   62 1  
    68   35   63 1  
    69   36   64 1  
    70   36   65 1  
    71   38   66 1  
    72   38   67 1  
    73   39   68 1  
    74   39   69 1  
@<TRIPOS>SUBSTRUCTURE
     1 60D         1

