### 
### Created by X-TOOL on Mon Sep 10 21:13:29 2018
### 

@<TRIPOS>MOLECULE
5hd0_ligand
   51    55     1     0     0
SMALL
GAST_HUCK


@<TRIPOS>ATOM
      1 C20        27.2710   11.3350   18.7210 C.ar      1 60Y        -0.0477
      2 C13        15.3730    9.8180   21.3650 C.ar      1 60Y         0.1703
      3 C11        17.9000   10.4960   21.4350 C.ar      1 60Y         0.1907
      4 C17        28.4320   10.5300   21.1130 C.ar      1 60Y         0.0942
      5 C10        20.2670   10.1570   20.7220 C.3       1 60Y         0.0385
      6 C12        16.2660    9.1910   20.5360 C.ar      1 60Y         0.0483
      7 C18        29.2370   10.9800   20.0640 C.ar      1 60Y        -0.0290
      8 C15        26.4580   10.8930   19.7720 C.ar      1 60Y        -0.0001
      9 C14        15.7750   10.8050   22.2050 C.ar      1 60Y         0.0483
     10 C16        27.0490   10.4800   20.9620 C.ar      1 60Y        -0.0211
     11 C19        28.6510   11.3720   18.8690 C.ar      1 60Y        -0.0525
     12 N6         29.4620    9.7600   23.3450 N.1       1 60Y        -0.3282
     13 C21        29.0240   10.1090   22.3540 C.1       1 60Y         0.1002
     14 C1         24.9730   10.9480   19.6810 C.2       1 60Y         0.0478
     15 C          24.2660   11.3140   18.5590 C.2       1 60Y         0.0684
     16 C2         24.0800   10.6650   20.7990 C.2       1 60Y        -0.0109
     17 C3         22.7760   10.8370   20.4620 C.2       1 60Y         0.0488
     18 S          22.5760   11.3240   18.8250 S.3       1 60Y         0.0101
     19 C4         21.5650   10.6890   21.3500 C.3       1 60Y         0.1211
     20 N3         19.2210   10.8080   21.5200 N.pl3     1 60Y        -0.2853
     21 N5         17.0650   11.1600   22.2670 N.ar      1 60Y        -0.2549
     22 F          14.0820    9.3970   21.4050 F         1 60Y        -0.1786
     23 N4         17.5620    9.5340   20.5560 N.ar      1 60Y        -0.2549
     24 C9         19.7160   11.8940   22.3630 C.3       1 60Y         0.0425
     25 C8         21.1410   12.1050   21.8620 C.3       1 60Y         0.0732
     26 C7         22.0090   12.6160   22.9950 C.2       1 60Y         0.1745
     27 O          22.2690   13.8020   23.0940 O.2       1 60Y        -0.3981
     28 N2         22.5320   11.6750   23.8640 N.am      1 60Y        -0.2148
     29 C6         23.2240   12.1670   25.0680 C.3       1 60Y         0.0243
     30 C5         22.4100   10.3170   23.6390 C.cat     1 60Y         0.3167
     31 N1         22.7840    9.5080   24.5500 N.pl3     1 60Y        -0.2551
     32 N          21.8380    9.8370   22.5230 N.pl3     1 60Y        -0.2926
     33 H1         26.8204   11.6500   17.7867 H         1 60Y         0.0674
     34 H2         20.2060    9.0621   20.8087 H         1 60Y         0.0402
     35 H3         20.1932   10.4457   19.6631 H         1 60Y         0.0402
     36 H4         15.9233    8.4147   19.8615 H         1 60Y         0.0887
     37 H5         30.3136   11.0227   20.1829 H         1 60Y         0.0700
     38 H6         15.0472   11.3096   22.8301 H         1 60Y         0.0887
     39 H7         26.4300   10.1178   21.7749 H         1 60Y         0.0708
     40 H8         29.2732   11.7085   18.0476 H         1 60Y         0.0635
     41 H9         24.7304   11.5689   17.6075 H         1 60Y         0.1381
     42 H10        24.4186   10.3531   21.7859 H         1 60Y         0.0977
     43 H11        19.7103   11.6034   23.4239 H         1 60Y         0.0540
     44 H12        19.1123   12.8037   22.2287 H         1 60Y         0.0540
     45 H13        21.1646   12.8310   21.0359 H         1 60Y         0.0436
     46 H14        23.2189   13.2670   25.0701 H         1 60Y         0.0483
     47 H15        24.2628   11.8052   25.0675 H         1 60Y         0.0483
     48 H16        22.7070   11.7962   25.9654 H         1 60Y         0.0483
     49 H17        22.7015    8.4920   24.4021 H         1 60Y         0.3198
     50 H18        23.1688    9.8702   25.4341 H         1 60Y         0.3198
     51 H19        21.5812    8.8403   22.4846 H         1 60Y         0.3048
@<TRIPOS>BOND
     1    8    1 ar 
     2    1   11 ar 
     3    6    2 ar 
     4    9    2 ar 
     5    2   22 1  
     6   20    3 1  
     7    3   21 ar 
     8    3   23 ar 
     9    4    7 ar 
    10   10    4 ar 
    11    4   13 1  
    12   19    5 1  
    13    5   20 1  
    14   23    6 ar 
    15   11    7 ar 
    16    8   10 ar 
    17   14    8 1  
    18   21    9 ar 
    19   13   12 3  
    20   15   14 2  
    21   16   14 1  
    22   18   15 1  
    23   17   16 2  
    24   17   18 1  
    25   17   19 1  
    26   19   25 1  
    27   19   32 1  
    28   20   24 1  
    29   24   25 1  
    30   25   26 1  
    31   26   27 2  
    32   26   28 am 
    33   28   29 1  
    34   28   30 ar 
    35   30   31 ar 
    36   30   32 ar 
    37    1   33 1  
    38    5   34 1  
    39    5   35 1  
    40    6   36 1  
    41    7   37 1  
    42    9   38 1  
    43   10   39 1  
    44   11   40 1  
    45   15   41 1  
    46   16   42 1  
    47   24   43 1  
    48   24   44 1  
    49   25   45 1  
    50   29   46 1  
    51   29   47 1  
    52   29   48 1  
    53   31   49 1  
    54   31   50 1  
    55   32   51 1  
@<TRIPOS>SUBSTRUCTURE
     1 60Y         1

