### 
### Created by X-TOOL on Mon Sep 10 21:13:28 2018
### 

@<TRIPOS>MOLECULE
5hdu_ligand
   55    59     1     0     0
SMALL
GAST_HUCK


@<TRIPOS>ATOM
      1 C1         25.3180   10.9940   19.9840 C.2       1 60W         0.0478
      2 C2         24.3830   10.5210   21.0050 C.2       1 60W        -0.0109
      3 C3         23.0900   10.7310   20.6410 C.2       1 60W         0.0488
      4 C4         21.8610   10.3830   21.4480 C.3       1 60W         0.1211
      5 C5         22.5180   10.0450   23.8010 C.cat     1 60W         0.3167
      6 C6         23.0270   11.9810   25.2520 C.3       1 60W         0.0243
      7 C8         21.1020   11.6450   21.9660 C.3       1 60W         0.0732
      8 C11        18.3670    9.5800   20.8250 C.ar      1 60W         0.1752
      9 C12        17.2890    8.3340   19.2600 C.ar      1 60W         0.2022
     10 C13        18.5470    7.4290   17.4640 C.3       1 60W         0.0651
     11 C14        16.0730    8.6070   19.8660 C.ar      1 60W         0.1969
     12 C15        16.1110    9.4260   20.9940 C.ar      1 60W         0.0362
     13 C16        26.7970   11.0140   20.1660 C.ar      1 60W        -0.0001
     14 C17        27.3620   10.4030   21.2830 C.ar      1 60W        -0.0211
     15 C20        28.9820   11.8480   19.5400 C.ar      1 60W        -0.0525
     16 C21        27.6220   11.7310   19.2890 C.ar      1 60W        -0.0477
     17 C22        29.2810    9.9540   22.7330 C.1       1 60W         0.1002
     18 N6         29.6930    9.4720   23.6800 N.1       1 60W        -0.3282
     19 C18        28.7250   10.5350   21.5400 C.ar      1 60W         0.0942
     20 C19        29.5390   11.2590   20.6640 C.ar      1 60W        -0.0290
     21 C          24.6440   11.5190   18.8990 C.2       1 60W         0.0684
     22 S          22.9510   11.4890   19.0950 S.3       1 60W         0.0101
     23 C10        20.7630    9.7730   20.5600 C.3       1 60W         0.0383
     24 N3         19.5510    9.9960   21.3460 N.pl3     1 60W        -0.2883
     25 C9         19.6900   11.1180   22.2770 C.3       1 60W         0.0423
     26 C7         21.7460   12.2530   23.1970 C.2       1 60W         0.1745
     27 O          21.5780   13.4280   23.4730 O.2       1 60W        -0.3981
     28 N2         22.4680   11.4080   24.0180 N.am      1 60W        -0.2148
     29 N1         22.8990    9.2960   24.7780 N.pl3     1 60W        -0.2551
     30 N          22.1490    9.5290   22.6210 N.pl3     1 60W        -0.2926
     31 N5         17.2560    9.9210   21.4880 N.ar      1 60W        -0.2727
     32 F          14.9320    8.1050   19.3510 F         1 60W        -0.1851
     33 N4         18.4300    8.8080   19.7260 N.ar      1 60W        -0.2314
     34 O1         17.2970    7.5760   18.1500 O.3       1 60W        -0.2964
     35 H1         24.6859   10.0571   21.9426 H         1 60W         0.0977
     36 H2         23.5727   11.2014   25.8038 H         1 60W         0.0483
     37 H3         22.2107   12.3701   25.8782 H         1 60W         0.0483
     38 H4         23.7157   12.7998   24.9969 H         1 60W         0.0483
     39 H5         21.0603   12.4108   21.1775 H         1 60W         0.0436
     40 H6         18.4074    6.7882   16.5809 H         1 60W         0.0587
     41 H7         19.2835    6.9681   18.1386 H         1 60W         0.0587
     42 H8         18.9093    8.4177   17.1460 H         1 60W         0.0587
     43 H9         15.1796    9.6722   21.4909 H         1 60W         0.0837
     44 H10        26.7393    9.8230   21.9545 H         1 60W         0.0708
     45 H11        29.6115   12.4027   18.8536 H         1 60W         0.0635
     46 H12        27.1950   12.1974   18.4085 H         1 60W         0.0674
     47 H13        30.5999   11.3591   20.8628 H         1 60W         0.0700
     48 H14        25.1411   11.9104   18.0127 H         1 60W         0.1381
     49 H15        20.9369    8.6993   20.3958 H         1 60W         0.0402
     50 H16        20.7064   10.2879   19.5896 H         1 60W         0.0402
     51 H17        18.9284   11.8883   22.0858 H         1 60W         0.0540
     52 H18        19.6145   10.7787   23.3206 H         1 60W         0.0540
     53 H19        22.9492    8.2746   24.6547 H         1 60W         0.3198
     54 H20        23.1534    9.7187   25.6822 H         1 60W         0.3198
     55 H21        22.0633    8.5068   22.5277 H         1 60W         0.3048
@<TRIPOS>BOND
     1    2    1 1  
     2    1   13 1  
     3   21    1 2  
     4    3    2 2  
     5    4    3 1  
     6    3   22 1  
     7    4    7 1  
     8   23    4 1  
     9    4   30 1  
    10    5   28 ar 
    11    5   29 ar 
    12   30    5 ar 
    13   28    6 1  
    14    7   25 1  
    15    7   26 1  
    16   24    8 1  
    17    8   31 ar 
    18    8   33 ar 
    19    9   11 ar 
    20   33    9 ar 
    21    9   34 1  
    22   34   10 1  
    23   12   11 ar 
    24   11   32 1  
    25   31   12 ar 
    26   13   14 ar 
    27   13   16 ar 
    28   14   19 ar 
    29   16   15 ar 
    30   15   20 ar 
    31   17   18 3  
    32   19   17 1  
    33   19   20 ar 
    34   22   21 1  
    35   23   24 1  
    36   24   25 1  
    37   26   27 2  
    38   26   28 am 
    39    2   35 1  
    40    6   36 1  
    41    6   37 1  
    42    6   38 1  
    43    7   39 1  
    44   10   40 1  
    45   10   41 1  
    46   10   42 1  
    47   12   43 1  
    48   14   44 1  
    49   15   45 1  
    50   16   46 1  
    51   20   47 1  
    52   21   48 1  
    53   23   49 1  
    54   23   50 1  
    55   25   51 1  
    56   25   52 1  
    57   29   53 1  
    58   29   54 1  
    59   30   55 1  
@<TRIPOS>SUBSTRUCTURE
     1 60W         1

