### 
### Created by X-TOOL on Mon Sep 10 21:13:27 2018
### 

@<TRIPOS>MOLECULE
5hdv_ligand
   48    51     1     0     0
SMALL
GAST_HUCK


@<TRIPOS>ATOM
      1 N1         22.1650    9.5040   22.6750 N.pl3     1 60V        -0.2847
      2 C2         24.8690   11.2350   19.1650 C.2       1 60V         0.0297
      3 C3         25.6860   10.5290   20.0590 C.2       1 60V         0.1985
      4 C6         22.5280   10.0020   23.8740 C.cat     1 60V         0.3183
      5 C8         21.9800   12.2540   23.1720 C.2       1 60V         0.1762
      6 C9         21.3640   11.6760   21.9070 C.3       1 60V         0.0798
      7 C10        19.8840   11.3230   22.0950 C.3       1 60V         0.0439
      8 C11        20.9300    9.7760   20.5180 C.3       1 60V         0.0448
      9 C12        18.5210    9.6090   20.8800 C.ar      1 60V         0.1660
     10 C13        16.2570    9.4430   21.2010 C.ar      1 60V         0.0500
     11 C16        17.3810    8.1850   19.5130 C.ar      1 60V         0.1930
     12 C17        18.5450    6.4030   18.4650 C.3       1 60V         0.0645
     13 F          15.0330    7.9920   19.6920 F         1 60V        -0.1919
     14 C15        16.1870    8.5170   20.1360 C.ar      1 60V         0.1950
     15 C14        15.0320    9.8650   21.9570 C.3       1 60V        -0.0152
     16 N5         17.4270    9.9860   21.5830 N.ar      1 60V        -0.2736
     17 O1         17.3510    7.1710   18.6280 O.3       1 60V        -0.2992
     18 N6         18.5350    8.7340   19.8530 N.ar      1 60V        -0.2415
     19 N4         19.7200   10.1160   21.2670 N.pl3     1 60V        -0.2881
     20 O          21.9140   13.4460   23.4090 O.2       1 60V        -0.3980
     21 N3         22.5950   11.3730   24.0410 N.am      1 60V        -0.2146
     22 C7         23.2620   11.9460   25.2210 C.3       1 60V         0.0243
     23 N2         22.8970    9.2340   24.8420 N.pl3     1 60V        -0.2550
     24 C5         21.9900   10.3400   21.4690 C.3       1 60V         0.1335
     25 C          23.2770   10.5390   20.7530 C.2       1 60V         0.0611
     26 C1         23.5260   11.2540   19.5520 C.2       1 60V        -0.0059
     27 S          24.7530    9.8660   21.3540 S.3       1 60V         0.0293
     28 C4         27.0960   10.4130   20.0440 C.1       1 60V         0.1493
     29 N          28.2340   10.3280   20.0830 N.1       1 60V        -0.3038
     30 H1         22.0015    8.4902   22.5955 H         1 60V         0.3066
     31 H2         25.2418   11.7182   18.2631 H         1 60V         0.0809
     32 H3         21.4757   12.4195   21.1040 H         1 60V         0.0455
     33 H4         19.2356   12.1371   21.7388 H         1 60V         0.0541
     34 H5         19.6598   11.1109   23.1508 H         1 60V         0.0541
     35 H6         20.9562   10.2709   19.5360 H         1 60V         0.0421
     36 H7         21.0368    8.6894   20.3840 H         1 60V         0.0421
     37 H8         18.3749    5.6153   17.7163 H         1 60V         0.0587
     38 H9         18.8189    5.9427   19.4257 H         1 60V         0.0587
     39 H10        19.3602    7.0598   18.1274 H         1 60V         0.0587
     40 H11        15.3136   10.5866   22.7380 H         1 60V         0.0429
     41 H12        14.5667    8.9837   22.4226 H         1 60V         0.0429
     42 H13        14.3174   10.3342   21.2648 H         1 60V         0.0429
     43 H14        23.7053   11.1372   25.8204 H         1 60V         0.0483
     44 H15        22.5259   12.4919   25.8293 H         1 60V         0.0483
     45 H16        24.0534   12.6371   24.8954 H         1 60V         0.0483
     46 H17        22.8530    8.2107   24.7330 H         1 60V         0.3198
     47 H18        23.2357    9.6439   25.7241 H         1 60V         0.3198
     48 H19        22.7479   11.7664   18.9882 H         1 60V         0.1000
@<TRIPOS>BOND
     1    1    4 ar 
     2   24    1 1  
     3    2    3 2  
     4   26    2 1  
     5    3   27 1  
     6    3   28 1  
     7    4   21 ar 
     8    4   23 ar 
     9    6    5 1  
    10    5   20 2  
    11    5   21 am 
    12    6    7 1  
    13   24    6 1  
    14   19    7 1  
    15    8   19 1  
    16   24    8 1  
    17    9   16 ar 
    18    9   18 ar 
    19   19    9 1  
    20   10   14 ar 
    21   10   15 1  
    22   16   10 ar 
    23   11   14 ar 
    24   11   17 1  
    25   18   11 ar 
    26   17   12 1  
    27   14   13 1  
    28   21   22 1  
    29   25   24 1  
    30   25   26 2  
    31   25   27 1  
    32   28   29 3  
    33    1   30 1  
    34    2   31 1  
    35    6   32 1  
    36    7   33 1  
    37    7   34 1  
    38    8   35 1  
    39    8   36 1  
    40   12   37 1  
    41   12   38 1  
    42   12   39 1  
    43   15   40 1  
    44   15   41 1  
    45   15   42 1  
    46   22   43 1  
    47   22   44 1  
    48   22   45 1  
    49   23   46 1  
    50   23   47 1  
    51   26   48 1  
@<TRIPOS>SUBSTRUCTURE
     1 60V         1

