### 
### Created by X-TOOL on Mon Sep 10 21:13:27 2018
### 

@<TRIPOS>MOLECULE
5hdx_ligand
   51    54     1     0     0
SMALL
GAST_HUCK


@<TRIPOS>ATOM
      1 C10        22.8250   10.5970   20.6490 C.2       1 60U         0.0611
      2 C11        15.7950   10.6030   22.5010 C.ar      1 60U         0.1933
      3 C13        20.3390    9.8680   20.7990 C.3       1 60U         0.0448
      4 C14        19.6630   11.6700   22.2870 C.3       1 60U         0.0439
      5 C15        15.1970    9.7510   21.6180 C.ar      1 60U         0.1950
      6 C17        16.0160    9.1480   20.6890 C.ar      1 60U         0.0500
      7 C18        23.0020   11.2320   19.4250 C.2       1 60U        -0.0059
      8 N3         22.4300   11.4290   23.9860 N.am      1 60U        -0.2146
      9 C19        25.2010   10.5760   19.8510 C.2       1 60U         0.1985
     10 C22        26.5970   10.4160   19.7510 C.1       1 60U         0.1493
     11 C7         17.8670   10.1950   21.5660 C.ar      1 60U         0.1660
     12 C1         21.6030   10.4250   21.4830 C.3       1 60U         0.1335
     13 C2         21.1190   11.7860   21.9440 C.3       1 60U         0.0798
     14 C4         22.3590   10.0640   23.8270 C.cat     1 60U         0.3183
     15 C5         21.8220   12.3450   23.1500 C.2       1 60U         0.1762
     16 N6         21.8390    9.5870   22.6550 N.pl3     1 60U        -0.2847
     17 N8         17.1170   10.8130   22.5010 N.ar      1 60U        -0.2414
     18 N9         19.2860   10.4580   21.6140 N.pl3     1 60U        -0.2881
     19 N12        17.3460    9.3660   20.6560 N.ar      1 60U        -0.2736
     20 S16        24.3380    9.9890   21.2100 S.3       1 60U         0.0293
     21 N20        27.7530   10.3360   19.7580 N.1       1 60U        -0.3038
     22 N21        22.7750    9.2610   24.7540 N.pl3     1 60U        -0.2550
     23 C23        24.3490   11.2140   18.9700 C.2       1 60U         0.0297
     24 O24        21.7760   13.5490   23.3620 O.2       1 60U        -0.3980
     25 F25        13.8780    9.5380   21.7050 F         1 60U        -0.1919
     26 C26        23.2190   11.9850   25.0680 C.3       1 60U         0.0243
     27 O27        14.9800   11.1690   23.4650 O.3       1 60U        -0.2962
     28 C28        15.4070    8.2320   19.6650 C.3       1 60U        -0.0152
     29 C29        15.2130   12.5780   23.4610 C.3       1 60U         0.0727
     30 C30        14.7620   13.1220   24.7950 C.3       1 60U        -0.0364
     31 H1         20.3109    8.7691   20.8397 H         1 60U         0.0421
     32 H2         20.2697   10.1981   19.7520 H         1 60U         0.0421
     33 H3         19.0940   12.5308   21.9059 H         1 60U         0.0541
     34 H4         19.5152   11.5848   23.3737 H         1 60U         0.0541
     35 H5         22.1891   11.6973   18.8694 H         1 60U         0.1000
     36 H6         21.2484   12.4940   21.1121 H         1 60U         0.0455
     37 H7         21.6021    8.5863   22.5965 H         1 60U         0.3066
     38 H8         23.1631    9.6415   25.6289 H         1 60U         0.3198
     39 H9         22.7178    8.2418   24.6163 H         1 60U         0.3198
     40 H10        24.6740   11.6553   18.0290 H         1 60U         0.0809
     41 H11        23.6519   11.1678   25.6636 H         1 60U         0.0483
     42 H12        22.5759   12.6053   25.7096 H         1 60U         0.0483
     43 H13        24.0277   12.6036   24.6518 H         1 60U         0.0483
     44 H14        16.1971    7.8402   19.0075 H         1 60U         0.0429
     45 H15        14.6733    8.7896   19.0644 H         1 60U         0.0429
     46 H16        14.9050    7.3957   20.1735 H         1 60U         0.0429
     47 H17        14.6387   13.0503   22.6504 H         1 60U         0.0620
     48 H18        16.2847   12.7800   23.3171 H         1 60U         0.0620
     49 H19        14.9291   14.2089   24.8232 H         1 60U         0.0256
     50 H20        15.3371   12.6417   25.6003 H         1 60U         0.0256
     51 H21        13.6912   12.9120   24.9336 H         1 60U         0.0256
@<TRIPOS>BOND
     1    1    7 2  
     2   12    1 1  
     3    1   20 1  
     4    2    5 ar 
     5   17    2 ar 
     6    2   27 1  
     7   12    3 1  
     8    3   18 1  
     9   13    4 1  
    10    4   18 1  
    11    6    5 ar 
    12    5   25 1  
    13   19    6 ar 
    14    6   28 1  
    15    7   23 1  
    16    8   14 ar 
    17   15    8 am 
    18    8   26 1  
    19    9   10 1  
    20   20    9 1  
    21    9   23 2  
    22   10   21 3  
    23   11   17 ar 
    24   18   11 1  
    25   11   19 ar 
    26   13   12 1  
    27   12   16 1  
    28   13   15 1  
    29   14   16 ar 
    30   14   22 ar 
    31   15   24 2  
    32   27   29 1  
    33   29   30 1  
    34    3   31 1  
    35    3   32 1  
    36    4   33 1  
    37    4   34 1  
    38    7   35 1  
    39   13   36 1  
    40   16   37 1  
    41   22   38 1  
    42   22   39 1  
    43   23   40 1  
    44   26   41 1  
    45   26   42 1  
    46   26   43 1  
    47   28   44 1  
    48   28   45 1  
    49   28   46 1  
    50   29   47 1  
    51   29   48 1  
    52   30   49 1  
    53   30   50 1  
    54   30   51 1  
@<TRIPOS>SUBSTRUCTURE
     1 60U         1

