### 
### Created by X-TOOL on Mon Sep 10 21:13:28 2018
### 

@<TRIPOS>MOLECULE
5hdz_ligand
   48    51     1     0     0
SMALL
GAST_HUCK


@<TRIPOS>ATOM
      1 F          13.8940    9.5080   21.9390 F         1 954        -0.1898
      2 C15        15.1810    9.8610   21.7660 C.ar      1 954         0.1792
      3 C13        16.0380    9.2200   20.8190 C.ar      1 954         0.0539
      4 C14        15.4780    8.3040   19.7720 C.3       1 954        -0.0138
      5 N5         17.3660    9.4360   20.7820 N.ar      1 954        -0.2673
      6 C16        15.7670   10.7830   22.6060 C.ar      1 954         0.1151
      7 S1         14.6830   11.6670   23.6690 S.3       1 954        -0.0817
      8 C17        15.7420   12.9700   24.3140 C.3       1 954        -0.0011
      9 N6         17.0850   11.0010   22.5850 N.ar      1 954        -0.2556
     10 C12        17.8410   10.3150   21.6860 C.ar      1 954         0.1709
     11 N4         19.1980   10.5610   21.6870 N.pl3     1 954        -0.2871
     12 C10        19.6910   11.6260   22.5580 C.3       1 954         0.0440
     13 C9         21.1180   11.8690   22.0680 C.3       1 954         0.0798
     14 O          21.8830   13.6220   23.4880 O.2       1 954        -0.3980
     15 N3         22.5050   11.5190   24.0870 N.am      1 954        -0.2146
     16 N2         22.8200    9.3500   24.8880 N.pl3     1 954        -0.2550
     17 N1         21.8990    9.6500   22.7870 N.pl3     1 954        -0.2847
     18 C11        20.2700    9.9680   20.8830 C.3       1 954         0.0449
     19 C5         21.5820   10.4680   21.6060 C.3       1 954         0.1335
     20 C          22.8140   10.6260   20.7730 C.2       1 954         0.0611
     21 C1         22.9740   11.2780   19.5340 C.2       1 954        -0.0059
     22 C2         24.3010   11.2790   19.0680 C.2       1 954         0.0297
     23 C3         25.1880   10.6370   19.9440 C.2       1 954         0.1985
     24 S          24.3530   10.0280   21.3270 S.3       1 954         0.0293
     25 C4         26.5930   10.5280   19.8420 C.1       1 954         0.1493
     26 N          27.7310   10.4250   19.8240 N.1       1 954        -0.3038
     27 C8         21.8800   12.4260   23.2560 C.2       1 954         0.1762
     28 C7         23.2930   12.0690   25.1960 C.3       1 954         0.0243
     29 C6         22.3790   10.1330   23.9350 C.cat     1 954         0.3183
     30 H1         16.2968    7.9165   19.1479 H         1 954         0.0432
     31 H2         14.7674    8.8587   19.1416 H         1 954         0.0432
     32 H3         14.9591    7.4649   20.2584 H         1 954         0.0432
     33 H4         15.1656   13.6023   25.0053 H         1 954         0.0371
     34 H5         16.1166   13.5838   23.4816 H         1 954         0.0371
     35 H6         16.5913   12.5208   24.8496 H         1 954         0.0371
     36 H7         19.6877   11.3045   23.6100 H         1 954         0.0541
     37 H8         19.0800   12.5343   22.4502 H         1 954         0.0541
     38 H9         21.1551   12.5816   21.2309 H         1 954         0.0455
     39 H10        22.7363    8.3277   24.7946 H         1 954         0.3198
     40 H11        23.2505    9.7566   25.7308 H         1 954         0.3198
     41 H12        21.7395    8.6344   22.7236 H         1 954         0.3066
     42 H13        20.2300   10.3287   19.8446 H         1 954         0.0421
     43 H14        20.2087    8.8698   20.8923 H         1 954         0.0421
     44 H15        22.1497   11.7368   18.9899 H         1 954         0.1000
     45 H16        24.6075   11.7309   18.1258 H         1 954         0.0809
     46 H17        23.2750   13.1678   25.1490 H         1 954         0.0483
     47 H18        24.3318   11.7157   25.1183 H         1 954         0.0483
     48 H19        22.8629   11.7359   26.1520 H         1 954         0.0483
@<TRIPOS>BOND
     1    1    2 1  
     2    2    3 ar 
     3    2    6 ar 
     4    3    4 1  
     5    3    5 ar 
     6    5   10 ar 
     7    6    7 1  
     8    6    9 ar 
     9    7    8 1  
    10    9   10 ar 
    11   10   11 1  
    12   11   12 1  
    13   11   18 1  
    14   12   13 1  
    15   13   19 1  
    16   13   27 1  
    17   27   14 2  
    18   27   15 am 
    19   15   28 1  
    20   15   29 ar 
    21   29   16 ar 
    22   19   17 1  
    23   17   29 ar 
    24   18   19 1  
    25   19   20 1  
    26   20   21 2  
    27   20   24 1  
    28   21   22 1  
    29   22   23 2  
    30   23   24 1  
    31   23   25 1  
    32   25   26 3  
    33    4   30 1  
    34    4   31 1  
    35    4   32 1  
    36    8   33 1  
    37    8   34 1  
    38    8   35 1  
    39   12   36 1  
    40   12   37 1  
    41   13   38 1  
    42   16   39 1  
    43   16   40 1  
    44   17   41 1  
    45   18   42 1  
    46   18   43 1  
    47   21   44 1  
    48   22   45 1  
    49   28   46 1  
    50   28   47 1  
    51   28   48 1  
@<TRIPOS>SUBSTRUCTURE
     1 954         1

