### 
### Created by X-TOOL on Mon Sep 10 21:13:29 2018
### 

@<TRIPOS>MOLECULE
5he0_ligand
   59    63     1     0     0
SMALL
GAST_HUCK


@<TRIPOS>ATOM
      1 OBC       -12.7570   25.4680   15.7490 O.2       1 453        -0.3868
      2 CBB       -13.5100   26.1170   16.4520 C.2       1 453         0.2047
      3 NBD       -13.0670   26.5870   17.6130 N.am      1 453        -0.2732
      4 CBE       -11.7260   26.3180   18.0960 C.3       1 453         0.0792
      5 CBF       -11.8660   25.1600   19.0490 C.ar      1 453         0.0502
      6 CBK       -12.7410   24.0960   18.7750 C.ar      1 453        -0.0304
      7 CBJ       -12.8610   23.0560   19.6890 C.ar      1 453        -0.0488
      8 CBI       -12.0940   23.0990   20.8550 C.ar      1 453        -0.0410
      9 CBH       -11.2300   24.1780   21.0930 C.ar      1 453         0.0028
     10 NBG       -11.1350   25.1780   20.1970 N.ar      1 453        -0.2960
     11 CAY       -14.9060   26.4030   15.9450 C.ar      1 453         0.0769
     12 CAZ       -15.6050   27.5520   16.3250 C.ar      1 453        -0.0396
     13 CAX       -15.4860   25.5270   15.0530 C.ar      1 453         0.1459
     14 FBA       -14.8560   24.4000   14.6440 F         1 453        -0.1831
     15 CAW       -16.7570   25.8080   14.5680 C.ar      1 453        -0.0287
     16 CAV       -17.4500   26.9510   14.9460 C.ar      1 453        -0.0550
     17 CAU       -16.8820   27.8410   15.8370 C.ar      1 453        -0.0105
     18 CAN       -17.6430   29.0860   16.2100 C.3       1 453         0.1138
     19 NAO       -16.7610   30.0270   16.8920 N.am      1 453        -0.2640
     20 CAP       -16.9460   30.3830   18.1480 C.2       1 453         0.2302
     21 OAT       -16.1430   31.1540   18.6770 O.2       1 453        -0.3918
     22 NAQ       -17.9570   29.9800   18.8950 N.2       1 453        -0.2568
     23 CAR       -18.9220   29.2250   18.4050 C.2       1 453         0.0598
     24 CAS       -20.0780   28.9310   19.3130 C.3       1 453         0.0090
     25 CAM       -18.8180   28.7450   17.0260 C.3       1 453         0.1548
     26 CAK       -19.9040   27.9150   16.4580 C.2       1 453         0.2345
     27 OAL       -20.4710   28.3880   15.4830 O.2       1 453        -0.3786
     28 NAJ       -20.2470   26.7920   17.1060 N.am      1 453        -0.2304
     29 CAG       -21.5020   26.2330   17.0580 C.ar      1 453         0.0675
     30 CAF       -22.5430   26.7380   16.2650 C.ar      1 453        -0.0263
     31 CAH       -21.7740   25.0770   17.8240 C.ar      1 453        -0.0412
     32 CAI       -23.0210   24.4480   17.7690 C.ar      1 453        -0.0729
     33 CAE       -24.0050   24.9980   16.9530 C.ar      1 453        -0.0308
     34 CAD       -23.7740   26.1170   16.2250 C.ar      1 453         0.0189
     35 NAA       -25.2750   24.7160   16.6710 N.2       1 453        -0.3432
     36 NAB       -25.8830   25.5730   15.7570 N.pl3     1 453        -0.2464
     37 CAC       -24.9240   26.4840   15.4870 C.2       1 453         0.1055
     38 H1        -13.6790   27.1453   18.1731 H         1 453         0.1873
     39 H2        -11.3214   27.1981   18.6173 H         1 453         0.0713
     40 H3        -11.0629   26.0500   17.2602 H         1 453         0.0713
     41 H4        -13.3183   24.0861   17.8576 H         1 453         0.0652
     42 H5        -13.5358   22.2288   19.5007 H         1 453         0.0719
     43 H6        -12.1666   22.2955   21.5790 H         1 453         0.0652
     44 H7        -10.6376   24.2066   22.0003 H         1 453         0.0803
     45 H8        -15.1413   28.2416   17.0211 H         1 453         0.0598
     46 H9        -17.2212   25.1157   13.8749 H         1 453         0.0599
     47 H10       -18.4369   27.1447   14.5417 H         1 453         0.0584
     48 H11       -17.9996   29.5631   15.2852 H         1 453         0.0778
     49 H12       -15.9889   30.4157   16.3892 H         1 453         0.1876
     50 H13       -20.8062   28.2970   18.7859 H         1 453         0.0539
     51 H14       -20.5601   29.8741   19.6099 H         1 453         0.0539
     52 H15       -19.7160   28.4061   20.2093 H         1 453         0.0539
     53 H16       -18.3073   27.8371   17.3793 H         1 453         0.0892
     54 H17       -19.5487   26.3344   17.6565 H         1 453         0.2260
     55 H18       -22.3773   27.6313   15.6737 H         1 453         0.0513
     56 H19       -21.0011   24.6705   18.4662 H         1 453         0.0502
     57 H20       -23.2170   23.5529   18.3483 H         1 453         0.0577
     58 H21       -26.8389   25.5235   15.3767 H         1 453         0.2933
     59 H22       -25.0181   27.3426   14.8238 H         1 453         0.1367
@<TRIPOS>BOND
     1    1    2 2  
     2    2    3 am 
     3    2   11 1  
     4    3    4 1  
     5    4    5 1  
     6    5    6 ar 
     7    5   10 ar 
     8    6    7 ar 
     9    7    8 ar 
    10    8    9 ar 
    11    9   10 ar 
    12   11   12 ar 
    13   11   13 ar 
    14   12   17 ar 
    15   13   14 1  
    16   13   15 ar 
    17   15   16 ar 
    18   16   17 ar 
    19   17   18 1  
    20   18   19 1  
    21   18   25 1  
    22   19   20 am 
    23   20   21 2  
    24   20   22 1  
    25   22   23 2  
    26   23   24 1  
    27   23   25 1  
    28   25   26 1  
    29   26   27 2  
    30   26   28 am 
    31   28   29 1  
    32   29   30 ar 
    33   29   31 ar 
    34   30   34 ar 
    35   31   32 ar 
    36   32   33 ar 
    37   33   34 ar 
    38   33   35 2  
    39   34   37 2  
    40   35   36 1  
    41   36   37 1  
    42    3   38 1  
    43    4   39 1  
    44    4   40 1  
    45    6   41 1  
    46    7   42 1  
    47    8   43 1  
    48    9   44 1  
    49   12   45 1  
    50   15   46 1  
    51   16   47 1  
    52   18   48 1  
    53   19   49 1  
    54   24   50 1  
    55   24   51 1  
    56   24   52 1  
    57   25   53 1  
    58   28   54 1  
    59   30   55 1  
    60   31   56 1  
    61   32   57 1  
    62   36   58 1  
    63   37   59 1  
@<TRIPOS>SUBSTRUCTURE
     1 453         1

