### 
### Created by X-TOOL on Mon Sep 10 21:13:27 2018
### 

@<TRIPOS>MOLECULE
5he1_ligand
   65    70     1     0     0
SMALL
GAST_HUCK


@<TRIPOS>ATOM
      1 O2        -21.0300   29.1170   16.4300 O.2       1 ZS2        -0.4112
      2 C22       -20.3790   28.5010   17.2510 C.2       1 ZS2         0.1832
      3 N4        -20.7000   27.3280   17.7880 N.am      1 ZS2        -0.2446
      4 C23       -21.9500   26.7620   17.7460 C.ar      1 ZS2         0.0648
      5 C29       -23.0270   27.2140   16.9790 C.ar      1 ZS2        -0.0267
      6 C28       -24.2390   26.5450   17.0310 C.ar      1 ZS2         0.0187
      7 C27       -25.4450   26.8190   16.3250 C.2       1 ZS2         0.1055
      8 N6        -26.3590   25.9120   16.7050 N.pl3     1 ZS2        -0.2464
      9 N5        -25.6760   25.1100   17.6370 N.2       1 ZS2        -0.3433
     10 C26       -24.4120   25.4680   17.8300 C.ar      1 ZS2        -0.0310
     11 C25       -23.3880   25.0020   18.6010 C.ar      1 ZS2        -0.0731
     12 C24       -22.1650   25.6470   18.5640 C.ar      1 ZS2        -0.0416
     13 C2        -19.2140   29.2410   17.7800 C.2       1 ZS2         0.0524
     14 C3        -18.1090   29.5630   16.8860 C.3       1 ZS2         0.0894
     15 N         -17.2990   30.6390   17.4860 N.am      1 ZS2        -0.2516
     16 C4        -17.3850   31.0310   18.7820 C.2       1 ZS2         0.2976
     17 O         -16.7290   32.0100   19.2220 O.2       1 ZS2        -0.3871
     18 N1        -18.2290   30.4720   19.6330 N.am      1 ZS2        -0.2115
     19 C1        -19.2280   29.7310   19.1840 C.2       1 ZS2         0.0640
     20 C         -20.3730   29.4830   20.1450 C.3       1 ZS2        -0.0024
     21 C5        -17.3340   28.3440   16.5070 C.ar      1 ZS2        -0.0160
     22 C10       -16.0940   28.0400   17.0520 C.ar      1 ZS2        -0.0399
     23 C9        -15.3950   26.8890   16.6450 C.ar      1 ZS2         0.0765
     24 C8        -15.9020   26.0470   15.6710 C.ar      1 ZS2         0.1455
     25 F         -15.2100   24.9590   15.2790 F         1 ZS2        -0.1834
     26 C7        -17.1380   26.3440   15.1150 C.ar      1 ZS2        -0.0291
     27 C6        -17.8410   27.4840   15.5280 C.ar      1 ZS2        -0.0553
     28 C11       -14.0520   26.5730   17.2160 C.2       1 ZS2         0.2049
     29 O1        -13.3190   25.8050   16.5980 O.2       1 ZS2        -0.3868
     30 N2        -13.6710   27.1950   18.3270 N.am      1 ZS2        -0.2715
     31 C12       -12.3200   27.0820   18.7810 C.3       1 ZS2         0.0830
     32 C13       -12.1010   25.6730   19.2630 C.ar      1 ZS2         0.0606
     33 C21       -10.8440   25.3270   19.7570 C.ar      1 ZS2         0.0161
     34 C16       -10.6570   24.0240   20.2080 C.ar      1 ZS2        -0.0090
     35 C15       -11.7210   23.1170   20.1520 C.ar      1 ZS2        -0.0409
     36 C14       -12.9600   23.5140   19.6500 C.ar      1 ZS2        -0.0044
     37 N3        -13.1240   24.7670   19.2180 N.ar      1 ZS2        -0.2993
     38 C20        -9.7850   26.2500   19.8140 C.ar      1 ZS2        -0.0461
     39 C19        -8.5460   25.8650   20.3140 C.ar      1 ZS2        -0.0568
     40 C18        -8.3620   24.5620   20.7630 C.ar      1 ZS2        -0.0574
     41 C17        -9.4130   23.6450   20.7110 C.ar      1 ZS2        -0.0494
     42 H1        -19.9774   26.8204   18.2573 H         1 ZS2         0.2226
     43 H2        -22.9144   28.0859   16.3449 H         1 ZS2         0.0512
     44 H3        -25.5985   27.6215   15.6050 H         1 ZS2         0.1367
     45 H4        -27.3348   25.8238   16.3874 H         1 ZS2         0.2933
     46 H5        -23.5311   24.1353   19.2361 H         1 ZS2         0.0577
     47 H6        -21.3542   25.2803   19.1830 H         1 ZS2         0.0501
     48 H7        -18.5389   29.9632   15.9560 H         1 ZS2         0.0740
     49 H8        -16.6422   31.1115   16.8983 H         1 ZS2         0.1894
     50 H9        -18.1117   30.6097   20.6165 H         1 ZS2         0.2357
     51 H10       -21.1342   28.8581   19.6549 H         1 ZS2         0.0451
     52 H11       -20.8207   30.4441   20.4378 H         1 ZS2         0.0451
     53 H12       -19.9954   28.9666   21.0398 H         1 ZS2         0.0451
     54 H13       -15.6602   28.6957   17.7983 H         1 ZS2         0.0596
     55 H14       -17.5612   25.6925   14.3590 H         1 ZS2         0.0598
     56 H15       -18.8018   27.7045   15.0772 H         1 ZS2         0.0582
     57 H16       -14.3288   27.7417   18.8451 H         1 ZS2         0.1877
     58 H17       -12.1440   27.7888   19.6052 H         1 ZS2         0.0736
     59 H18       -11.6296   27.3039   17.9539 H         1 ZS2         0.0736
     60 H19       -11.5814   22.1002   20.5007 H         1 ZS2         0.0633
     61 H20       -13.7839   22.8107   19.6107 H         1 ZS2         0.0746
     62 H21        -9.9350   27.2659   19.4668 H         1 ZS2         0.0662
     63 H22        -7.7288   26.5761   20.3535 H         1 ZS2         0.0628
     64 H23        -7.3984   24.2571   21.1550 H         1 ZS2         0.0651
     65 H24        -9.2611   22.6314   21.0640 H         1 ZS2         0.0631
@<TRIPOS>BOND
     1    1    2 2  
     2    2    3 am 
     3    2   13 1  
     4    3    4 1  
     5    4    5 ar 
     6    4   12 ar 
     7    5    6 ar 
     8    6    7 2  
     9    6   10 ar 
    10    7    8 1  
    11    8    9 1  
    12    9   10 2  
    13   10   11 ar 
    14   11   12 ar 
    15   13   14 1  
    16   13   19 2  
    17   14   15 1  
    18   14   21 1  
    19   15   16 am 
    20   16   17 2  
    21   16   18 am 
    22   18   19 1  
    23   19   20 1  
    24   21   22 ar 
    25   21   27 ar 
    26   22   23 ar 
    27   23   24 ar 
    28   23   28 1  
    29   24   25 1  
    30   24   26 ar 
    31   26   27 ar 
    32   28   29 2  
    33   28   30 am 
    34   30   31 1  
    35   31   32 1  
    36   32   33 ar 
    37   32   37 ar 
    38   33   34 ar 
    39   33   38 ar 
    40   34   35 ar 
    41   34   41 ar 
    42   35   36 ar 
    43   36   37 ar 
    44   38   39 ar 
    45   39   40 ar 
    46   40   41 ar 
    47    3   42 1  
    48    5   43 1  
    49    7   44 1  
    50    8   45 1  
    51   11   46 1  
    52   12   47 1  
    53   14   48 1  
    54   15   49 1  
    55   18   50 1  
    56   20   51 1  
    57   20   52 1  
    58   20   53 1  
    59   22   54 1  
    60   26   55 1  
    61   27   56 1  
    62   30   57 1  
    63   31   58 1  
    64   31   59 1  
    65   35   60 1  
    66   36   61 1  
    67   38   62 1  
    68   39   63 1  
    69   40   64 1  
    70   41   65 1  
@<TRIPOS>SUBSTRUCTURE
     1 ZS2         1

