### 
### Created by X-TOOL on Mon Sep 10 21:13:29 2018
### 

@<TRIPOS>MOLECULE
5he2_ligand
   68    72     1     0     0
SMALL
GAST_HUCK


@<TRIPOS>ATOM
      1 O4        -20.0660   28.7510   16.3640 O.2       1 F0S        -0.4112
      2 C21       -19.5560   28.0590   17.2040 C.2       1 F0S         0.1832
      3 N3        -19.9920   26.8740   17.6820 N.am      1 F0S        -0.2446
      4 C22       -21.2310   26.2960   17.5610 C.ar      1 F0S         0.0648
      5 C28       -22.2470   26.7380   16.7240 C.ar      1 F0S        -0.0267
      6 C27       -23.4860   26.1040   16.6820 C.ar      1 F0S         0.0187
      7 C26       -24.6470   26.4170   15.9100 C.2       1 F0S         0.1055
      8 N5        -25.6250   25.5570   16.1940 N.pl3     1 F0S        -0.2464
      9 N4        -25.0260   24.7280   17.1600 N.2       1 F0S        -0.3433
     10 C25       -23.7460   25.0300   17.4620 C.ar      1 F0S        -0.0310
     11 C24       -22.7670   24.5520   18.3240 C.ar      1 F0S        -0.0731
     12 C23       -21.5210   25.1920   18.3690 C.ar      1 F0S        -0.0416
     13 C20       -18.3530   28.6840   17.7980 C.2       1 F0S         0.0524
     14 C18       -18.4470   29.1320   19.1930 C.2       1 F0S         0.0640
     15 C19       -19.7130   28.9560   19.9900 C.3       1 F0S        -0.0024
     16 N2        -17.3990   29.7520   19.7600 N.am      1 F0S        -0.2115
     17 C17       -16.3240   30.1440   19.0600 C.2       1 F0S         0.2976
     18 O3        -15.4670   30.8470   19.6490 O.2       1 F0S        -0.3871
     19 N1        -16.1600   29.8170   17.7650 N.am      1 F0S        -0.2516
     20 C16       -17.0980   28.9270   17.0350 C.3       1 F0S         0.0894
     21 C12       -16.3710   27.6760   16.6350 C.ar      1 F0S        -0.0160
     22 C11       -15.1530   27.2970   17.2220 C.ar      1 F0S        -0.0399
     23 C13       -16.8930   26.8980   15.6110 C.ar      1 F0S        -0.0553
     24 C14       -16.2210   25.7560   15.2070 C.ar      1 F0S        -0.0291
     25 C15       -15.0150   25.3830   15.8050 C.ar      1 F0S         0.1455
     26 F         -14.3730   24.2600   15.4020 F         1 F0S        -0.1834
     27 C10       -14.4850   26.1450   16.8200 C.ar      1 F0S         0.0765
     28 C9        -13.1580   25.7510   17.3980 C.2       1 F0S         0.2039
     29 O2        -12.2760   25.5000   16.5940 O.2       1 F0S        -0.3868
     30 N         -12.8590   25.7480   18.6830 N.am      1 F0S        -0.2793
     31 C8        -11.4780   25.5590   19.0540 C.3       1 F0S         0.0600
     32 C7        -11.2800   25.2770   20.5180 C.ar      1 F0S         0.0362
     33 C1        -11.3780   23.9680   20.9740 C.ar      1 F0S         0.0859
     34 O         -11.6740   22.9220   20.1290 O.3       1 F0S        -0.3279
     35 C         -12.9540   22.8310   19.5020 C.3       1 F0S         0.0574
     36 C5        -10.9780   26.3080   21.4060 C.ar      1 F0S         0.0859
     37 O1        -10.8620   27.6220   20.9870 O.3       1 F0S        -0.3279
     38 C6         -9.6460   28.1020   20.3660 C.3       1 F0S         0.0574
     39 C4        -10.7880   26.0320   22.7600 C.ar      1 F0S        -0.0504
     40 C3        -10.8940   24.7210   23.2260 C.ar      1 F0S        -0.0858
     41 C2        -11.1760   23.6920   22.3240 C.ar      1 F0S        -0.0504
     42 H1        -19.3181   26.3433   18.1960 H         1 F0S         0.2226
     43 H2        -22.0713   27.5978   16.0876 H         1 F0S         0.0512
     44 H3        -24.7217   27.2360   15.1961 H         1 F0S         0.1367
     45 H4        -26.5776   25.5111   15.8049 H         1 F0S         0.2933
     46 H5        -22.9647   23.6931   18.9551 H         1 F0S         0.0577
     47 H6        -20.7618   24.8214   19.0482 H         1 F0S         0.0501
     48 H7        -19.5670   29.3578   21.0035 H         1 F0S         0.0451
     49 H8        -19.9615   27.8863   20.0520 H         1 F0S         0.0451
     50 H9        -20.5349   29.4954   19.4966 H         1 F0S         0.0451
     51 H10       -17.4211   29.9285   20.7441 H         1 F0S         0.2357
     52 H11       -15.3728   30.1893   17.2733 H         1 F0S         0.1894
     53 H12       -17.3904   29.4425   16.1083 H         1 F0S         0.0740
     54 H13       -14.7250   27.9142   18.0036 H         1 F0S         0.0596
     55 H14       -17.8218   27.1825   15.1299 H         1 F0S         0.0582
     56 H15       -16.6370   25.1431   14.4155 H         1 F0S         0.0598
     57 H16       -13.5673   25.8728   19.3777 H         1 F0S         0.1863
     58 H17       -10.9211   26.4723   18.7976 H         1 F0S         0.0634
     59 H18       -11.0766   24.7112   18.4794 H         1 F0S         0.0634
     60 H19       -12.9901   21.9306   18.8711 H         1 F0S         0.0574
     61 H20       -13.1214   23.7220   18.8791 H         1 F0S         0.0574
     62 H21       -13.7364   22.7702   20.2728 H         1 F0S         0.0574
     63 H22        -9.7603   29.1656   20.1098 H         1 F0S         0.0574
     64 H23        -9.4484   27.5238   19.4513 H         1 F0S         0.0574
     65 H24        -8.8051   27.9815   21.0648 H         1 F0S         0.0574
     66 H25       -10.5581   26.8357   23.4501 H         1 F0S         0.0433
     67 H26       -10.7587   24.5027   24.2791 H         1 F0S         0.0506
     68 H27       -11.2381   22.6694   22.6782 H         1 F0S         0.0433
@<TRIPOS>BOND
     1    1    2 2  
     2    2    3 am 
     3    2   13 1  
     4    3    4 1  
     5    4    5 ar 
     6    4   12 ar 
     7    5    6 ar 
     8    6    7 2  
     9    6   10 ar 
    10    7    8 1  
    11    8    9 1  
    12    9   10 2  
    13   10   11 ar 
    14   11   12 ar 
    15   13   14 2  
    16   13   20 1  
    17   14   15 1  
    18   14   16 1  
    19   16   17 am 
    20   17   18 2  
    21   17   19 am 
    22   19   20 1  
    23   20   21 1  
    24   21   22 ar 
    25   21   23 ar 
    26   22   27 ar 
    27   23   24 ar 
    28   24   25 ar 
    29   25   26 1  
    30   25   27 ar 
    31   27   28 1  
    32   28   29 2  
    33   28   30 am 
    34   30   31 1  
    35   31   32 1  
    36   32   33 ar 
    37   32   36 ar 
    38   33   34 1  
    39   33   41 ar 
    40   34   35 1  
    41   36   37 1  
    42   36   39 ar 
    43   37   38 1  
    44   39   40 ar 
    45   40   41 ar 
    46    3   42 1  
    47    5   43 1  
    48    7   44 1  
    49    8   45 1  
    50   11   46 1  
    51   12   47 1  
    52   15   48 1  
    53   15   49 1  
    54   15   50 1  
    55   16   51 1  
    56   19   52 1  
    57   20   53 1  
    58   22   54 1  
    59   23   55 1  
    60   24   56 1  
    61   30   57 1  
    62   31   58 1  
    63   31   59 1  
    64   35   60 1  
    65   35   61 1  
    66   35   62 1  
    67   38   63 1  
    68   38   64 1  
    69   38   65 1  
    70   39   66 1  
    71   40   67 1  
    72   41   68 1  
@<TRIPOS>SUBSTRUCTURE
     1 F0S         1

