### 
### Created by X-TOOL on Mon Sep 10 21:13:28 2018
### 

@<TRIPOS>MOLECULE
5he3_ligand
   69    73     1     0     0
SMALL
GAST_HUCK


@<TRIPOS>ATOM
      1 O2        -19.9900   28.3870   15.5650 O.2       1 FF1        -0.3786
      2 C22       -19.3730   27.8190   16.4640 C.2       1 FF1         0.2345
      3 N3        -19.7240   26.6890   17.0980 N.am      1 FF1        -0.2304
      4 C23       -20.9630   26.1140   17.0850 C.ar      1 FF1         0.0675
      5 C29       -22.0420   26.5180   16.2790 C.ar      1 FF1        -0.0263
      6 C28       -23.2700   25.8490   16.3470 C.ar      1 FF1         0.0189
      7 C27       -24.4730   26.0860   15.6160 C.2       1 FF1         0.1055
      8 N5        -25.3880   25.1870   16.0240 N.pl3     1 FF1        -0.2464
      9 N4        -24.7140   24.4150   17.0040 N.2       1 FF1        -0.3432
     10 C26       -23.4450   24.8010   17.2120 C.ar      1 FF1        -0.0308
     11 C25       -22.3990   24.4000   18.0320 C.ar      1 FF1        -0.0729
     12 C24       -21.1680   25.0580   17.9770 C.ar      1 FF1        -0.0412
     13 C21       -18.1970   28.5710   16.9930 C.3       1 FF1         0.1548
     14 C19       -18.1710   28.9930   18.4370 C.2       1 FF1         0.0598
     15 C20       -19.2690   28.7030   19.4440 C.3       1 FF1         0.0090
     16 N2        -17.1490   29.7560   18.8350 N.2       1 FF1        -0.2568
     17 C18       -16.4260   30.4480   17.9240 C.2       1 FF1         0.2302
     18 O1        -15.7770   31.4430   18.3200 O.2       1 FF1        -0.3918
     19 N1        -16.4150   30.1480   16.6040 N.am      1 FF1        -0.2640
     20 C17       -17.0700   28.9310   16.0930 C.3       1 FF1         0.1138
     21 C13       -16.0520   27.8150   15.9810 C.ar      1 FF1        -0.0105
     22 C12       -14.8740   27.7570   16.7680 C.ar      1 FF1        -0.0396
     23 C14       -16.2480   26.8000   15.0430 C.ar      1 FF1        -0.0550
     24 C15       -15.3120   25.7680   14.8980 C.ar      1 FF1        -0.0287
     25 C16       -14.1600   25.7220   15.6870 C.ar      1 FF1         0.1459
     26 F         -13.2590   24.7340   15.5400 F         1 FF1        -0.1831
     27 C11       -13.9320   26.7150   16.6310 C.ar      1 FF1         0.0767
     28 C10       -12.6590   26.6580   17.4570 C.2       1 FF1         0.2028
     29 O         -12.3550   25.5820   17.9600 O.2       1 FF1        -0.3870
     30 N         -11.8840   27.7680   17.5530 N.am      1 FF1        -0.2852
     31 C9        -10.5600   27.8360   18.1970 C.3       1 FF1         0.0378
     32 C8         -9.8960   29.2350   18.2030 C.3       1 FF1        -0.0041
     33 C7         -8.4620   29.2750   17.6350 C.ar      1 FF1        -0.0380
     34 C1         -8.1830   29.7410   16.3240 C.ar      1 FF1        -0.0506
     35 C          -9.2650   30.2240   15.3790 C.3       1 FF1        -0.0353
     36 C5         -7.3800   28.8570   18.4370 C.ar      1 FF1        -0.0506
     37 C6         -7.5990   28.3530   19.8510 C.3       1 FF1        -0.0353
     38 C4         -6.0670   28.8940   17.9310 C.ar      1 FF1        -0.0739
     39 C3         -5.8070   29.3490   16.6370 C.ar      1 FF1        -0.0820
     40 C2         -6.8650   29.7730   15.8380 C.ar      1 FF1        -0.0739
     41 H1        -19.0137   26.2260   17.6281 H         1 FF1         0.2260
     42 H2        -21.9221   27.3541   15.5996 H         1 FF1         0.0513
     43 H3        -24.6237   26.8572   14.8621 H         1 FF1         0.1367
     44 H4        -26.3594   25.0832   15.6977 H         1 FF1         0.2933
     45 H5        -22.5382   23.5724   18.7182 H         1 FF1         0.0577
     46 H6        -20.3634   24.7462   18.6331 H         1 FF1         0.0502
     47 H7        -17.6979   27.6252   17.2508 H         1 FF1         0.0892
     48 H8        -18.9911   29.1248   20.4211 H         1 FF1         0.0539
     49 H9        -19.4018   27.6152   19.5387 H         1 FF1         0.0539
     50 H10       -20.2099   29.1589   19.1021 H         1 FF1         0.0539
     51 H11       -15.9542   30.7632   15.9643 H         1 FF1         0.1876
     52 H12       -17.4743   29.1350   15.0906 H         1 FF1         0.0778
     53 H13       -14.6912   28.5374   17.4978 H         1 FF1         0.0598
     54 H14       -17.1348   26.8105   14.4196 H         1 FF1         0.0584
     55 H15       -15.4844   24.9919   14.1611 H         1 FF1         0.0599
     56 H16       -12.2418   28.6117   17.1527 H         1 FF1         0.1845
     57 H17        -9.8888   27.1440   17.6672 H         1 FF1         0.0538
     58 H18       -10.6733   27.5096   19.2413 H         1 FF1         0.0538
     59 H19        -9.8620   29.5928   19.2426 H         1 FF1         0.0415
     60 H20       -10.5206   29.9125   17.6023 H         1 FF1         0.0415
     61 H21        -8.8090   30.5333   14.4270 H         1 FF1         0.0374
     62 H22        -9.7899   31.0795   15.8291 H         1 FF1         0.0374
     63 H23        -9.9813   29.4098   15.1949 H         1 FF1         0.0374
     64 H24        -6.6312   28.0804   20.2971 H         1 FF1         0.0374
     65 H25        -8.2540   27.4695   19.8281 H         1 FF1         0.0374
     66 H26        -8.0706   29.1436   20.4532 H         1 FF1         0.0374
     67 H27        -5.2449   28.5641   18.5558 H         1 FF1         0.0482
     68 H28        -4.7915   29.3719   16.2584 H         1 FF1         0.0525
     69 H29        -6.6707   30.1306   14.8333 H         1 FF1         0.0482
@<TRIPOS>BOND
     1    1    2 2  
     2    2    3 am 
     3    2   13 1  
     4    3    4 1  
     5    4    5 ar 
     6    4   12 ar 
     7    5    6 ar 
     8    6    7 2  
     9    6   10 ar 
    10    7    8 1  
    11    8    9 1  
    12    9   10 2  
    13   10   11 ar 
    14   11   12 ar 
    15   13   14 1  
    16   13   20 1  
    17   14   15 1  
    18   14   16 2  
    19   16   17 1  
    20   17   18 2  
    21   17   19 am 
    22   19   20 1  
    23   20   21 1  
    24   21   22 ar 
    25   21   23 ar 
    26   22   27 ar 
    27   23   24 ar 
    28   24   25 ar 
    29   25   26 1  
    30   25   27 ar 
    31   27   28 1  
    32   28   29 2  
    33   28   30 am 
    34   30   31 1  
    35   31   32 1  
    36   32   33 1  
    37   33   34 ar 
    38   33   36 ar 
    39   34   35 1  
    40   34   40 ar 
    41   36   37 1  
    42   36   38 ar 
    43   38   39 ar 
    44   39   40 ar 
    45    3   41 1  
    46    5   42 1  
    47    7   43 1  
    48    8   44 1  
    49   11   45 1  
    50   12   46 1  
    51   13   47 1  
    52   15   48 1  
    53   15   49 1  
    54   15   50 1  
    55   19   51 1  
    56   20   52 1  
    57   22   53 1  
    58   23   54 1  
    59   24   55 1  
    60   30   56 1  
    61   31   57 1  
    62   31   58 1  
    63   32   59 1  
    64   32   60 1  
    65   35   61 1  
    66   35   62 1  
    67   35   63 1  
    68   37   64 1  
    69   37   65 1  
    70   37   66 1  
    71   38   67 1  
    72   39   68 1  
    73   40   69 1  
@<TRIPOS>SUBSTRUCTURE
     1 FF1         1

