### 
### Created by X-TOOL on Mon Sep 10 21:13:29 2018
### 

@<TRIPOS>MOLECULE
5he4_ligand
   50    53     1     0     0
SMALL
GAST_HUCK


@<TRIPOS>ATOM
      1 C1         16.1430    9.4560   21.1910 C.ar      1 60T         0.0500
      2 C2         18.4030    9.6340   20.8760 C.ar      1 60T         0.1663
      3 F2         24.3940    8.9430   21.9840 F         1 60T        -0.1572
      4 C3         17.2890    8.1230   19.5930 C.ar      1 60T         0.1930
      5 C4         18.5370    6.4990   18.3800 C.3       1 60T         0.0645
      6 C5         20.8000    9.7740   20.5290 C.3       1 60T         0.0561
      7 C6         21.9040   10.3710   21.4130 C.3       1 60T         0.1425
      8 C7         22.4240   10.0860   23.8240 C.cat     1 60T         0.3220
      9 N1         18.4350    8.7030   19.9020 N.ar      1 60T        -0.2414
     10 N2         19.5960   10.1790   21.2500 N.pl3     1 60T        -0.2840
     11 N3         21.9870    9.5840   22.6580 N.pl3     1 60T        -0.2690
     12 N4         22.7820    9.3250   24.8070 N.pl3     1 60T        -0.2548
     13 C8         23.1300   12.0270   25.1900 C.3       1 60T         0.0243
     14 C10        21.2810   11.7360   21.8480 C.3       1 60T         0.0911
     15 C17        24.4250    9.7890   20.9420 C.ar      1 60T         0.1642
     16 C16        25.5980    9.8980   20.2310 C.ar      1 60T        -0.0017
     17 C15        25.6290   10.7400   19.1300 C.ar      1 60T        -0.0381
     18 C14        24.4990   11.4430   18.7340 C.ar      1 60T        -0.0017
     19 C13        23.3440   11.3000   19.4670 C.ar      1 60T         0.1642
     20 F1         22.2300   11.9190   19.0320 F         1 60T        -0.1572
     21 C12        23.2240   10.4860   20.6230 C.ar      1 60T         0.0704
     22 C9         21.9100   12.3300   23.0990 C.2       1 60T         0.1799
     23 O1         21.8800   13.5310   23.3090 O.2       1 60T        -0.3976
     24 N5         22.5260   11.4560   23.9730 N.am      1 60T        -0.2140
     25 C11        19.7910   11.3990   22.0540 C.3       1 60T         0.0477
     26 N          17.3060   10.0290   21.5490 N.ar      1 60T        -0.2736
     27 C18        14.9120    9.9040   21.9240 C.3       1 60T        -0.0152
     28 C          16.0940    8.4820   20.1870 C.ar      1 60T         0.1950
     29 F          14.9390    7.9490   19.7550 F         1 60T        -0.1919
     30 O          17.2720    7.0580   18.7650 O.3       1 60T        -0.2992
     31 H1         18.3708    5.6434   17.7089 H         1 60T         0.0587
     32 H2         19.0771    6.1618   19.2770 H         1 60T         0.0587
     33 H3         19.1324    7.2633   17.8591 H         1 60T         0.0587
     34 H4         20.8824    8.6788   20.4685 H         1 60T         0.0465
     35 H5         20.8232   10.2000   19.5151 H         1 60T         0.0465
     36 H6         21.6941    8.5969   22.6313 H         1 60T         0.3112
     37 H7         22.7140    8.3012   24.7169 H         1 60T         0.3198
     38 H8         23.1350    9.7429   25.6797 H         1 60T         0.3198
     39 H9         23.5810   11.2215   25.7881 H         1 60T         0.0483
     40 H10        22.3532   12.5326   25.7824 H         1 60T         0.0483
     41 H11        23.9067   12.7531   24.9079 H         1 60T         0.0483
     42 H12        21.3915   12.4676   21.0340 H         1 60T         0.0499
     43 H13        26.4783    9.3380   20.5252 H         1 60T         0.0649
     44 H14        26.5501   10.8513   18.5694 H         1 60T         0.0829
     45 H15        24.5265   12.0909   17.8654 H         1 60T         0.0649
     46 H16        19.5749   11.2083   23.1155 H         1 60T         0.0545
     47 H17        19.1500   12.2155   21.6902 H         1 60T         0.0545
     48 H18        14.0370    9.3613   21.5370 H         1 60T         0.0429
     49 H19        14.7690   10.9844   21.7745 H         1 60T         0.0429
     50 H20        15.0279    9.6946   22.9976 H         1 60T         0.0429
@<TRIPOS>BOND
     1   26    1 ar 
     2    1   27 1  
     3    1   28 ar 
     4    2    9 ar 
     5   10    2 1  
     6    2   26 ar 
     7   15    3 1  
     8    9    4 ar 
     9    4   28 ar 
    10    4   30 1  
    11   30    5 1  
    12    7    6 1  
    13    6   10 1  
    14    7   11 1  
    15    7   14 1  
    16   21    7 1  
    17   11    8 ar 
    18    8   12 ar 
    19    8   24 ar 
    20   25   10 1  
    21   24   13 1  
    22   14   22 1  
    23   14   25 1  
    24   15   16 ar 
    25   15   21 ar 
    26   16   17 ar 
    27   17   18 ar 
    28   18   19 ar 
    29   19   20 1  
    30   19   21 ar 
    31   22   23 2  
    32   22   24 am 
    33   28   29 1  
    34    5   31 1  
    35    5   32 1  
    36    5   33 1  
    37    6   34 1  
    38    6   35 1  
    39   11   36 1  
    40   12   37 1  
    41   12   38 1  
    42   13   39 1  
    43   13   40 1  
    44   13   41 1  
    45   14   42 1  
    46   16   43 1  
    47   17   44 1  
    48   18   45 1  
    49   25   46 1  
    50   25   47 1  
    51   27   48 1  
    52   27   49 1  
    53   27   50 1  
@<TRIPOS>SUBSTRUCTURE
     1 60T         1

