### 
### Created by X-TOOL on Mon Sep 10 21:13:28 2018
### 

@<TRIPOS>MOLECULE
5he5_ligand
   49    52     1     0     0
SMALL
GAST_HUCK


@<TRIPOS>ATOM
      1 C1         21.4330   10.6440   21.6660 C.3       1 60S         0.1335
      2 C2         20.9810   12.0110   22.1860 C.3       1 60S         0.0798
      3 C4         22.3380   10.2470   23.9380 C.cat     1 60S         0.3183
      4 C5         21.8230   12.5410   23.3110 C.2       1 60S         0.1762
      5 C7         17.7670   10.3640   21.8390 C.ar      1 60S         0.1619
      6 C10        15.6640   10.6020   22.7400 C.ar      1 60S         0.1388
      7 C11        22.5560   10.7630   20.7050 C.2       1 60S         0.0611
      8 N12        17.3660    9.5080   20.8860 N.ar      1 60S        -0.2770
      9 C14        15.1820    9.7340   21.7870 C.ar      1 60S         0.1827
     10 C15        19.5760   11.8160   22.7000 C.3       1 60S         0.0439
     11 C18        22.6310   11.3320   19.4420 C.2       1 60S        -0.0059
     12 C19        24.8580   10.7230   19.7400 C.2       1 60S         0.1985
     13 C24        23.9400   11.3000   18.8860 C.2       1 60S         0.0297
     14 N3         22.4850   11.6060   24.0710 N.am      1 60S        -0.2146
     15 N6         21.7300    9.7890   22.8070 N.pl3     1 60S        -0.2847
     16 N8         16.9650   10.9010   22.7710 N.ar      1 60S        -0.2534
     17 N9         19.1380   10.6950   21.8860 N.pl3     1 60S        -0.2887
     18 C13        20.1530   10.1430   21.0250 C.3       1 60S         0.0448
     19 S16        24.1060   10.1820   21.1800 S.3       1 60S         0.0293
     20 C17        16.0660    9.1880   20.8870 C.ar      1 60S         0.0461
     21 N20        14.7530   11.1280   23.6640 N.pl3     1 60S        -0.3086
     22 N21        27.4000   10.4700   19.4910 N.1       1 60S        -0.3038
     23 N22        22.7730    9.4530   24.8590 N.pl3     1 60S        -0.2550
     24 C23        26.2470   10.5630   19.5530 C.1       1 60S         0.1493
     25 O25        21.8480   13.7390   23.5580 O.2       1 60S        -0.3980
     26 F26        13.8830    9.4030   21.7980 F         1 60S        -0.1947
     27 C27        23.3440   12.1100   25.1280 C.3       1 60S         0.0243
     28 C28        15.6180    8.2240   19.8230 C.3       1 60S        -0.0161
     29 C29        15.2090   12.3780   24.2750 C.3       1 60S         0.0167
     30 H1         20.9917   12.7371   21.3598 H         1 60S         0.0455
     31 H2         18.9551   12.7075   22.5278 H         1 60S         0.0541
     32 H3         19.5685   11.5652   23.7710 H         1 60S         0.0541
     33 H4         21.7726   11.7608   18.9271 H         1 60S         0.1000
     34 H5         24.1894   11.6867   17.8990 H         1 60S         0.0809
     35 H6         21.4690    8.7938   22.7572 H         1 60S         0.3066
     36 H7         20.1148    9.0437   21.0192 H         1 60S         0.0421
     37 H8         20.0496   10.5190   19.9964 H         1 60S         0.0421
     38 H9         13.8533   10.6809   23.8909 H         1 60S         0.1823
     39 H10        23.2270    9.8387   25.6992 H         1 60S         0.3198
     40 H11        22.6659    8.4340   24.7533 H         1 60S         0.3198
     41 H12        23.8103   11.2650   25.6557 H         1 60S         0.0483
     42 H13        22.7450   12.6997   25.8375 H         1 60S         0.0483
     43 H14        24.1274   12.7470   24.6915 H         1 60S         0.0483
     44 H15        14.5384    8.0401   19.9259 H         1 60S         0.0428
     45 H16        16.1637    7.2754   19.9343 H         1 60S         0.0428
     46 H17        15.8242    8.6514   18.8306 H         1 60S         0.0428
     47 H18        14.4509   12.7358   24.9872 H         1 60S         0.0485
     48 H19        15.3620   13.1347   23.4914 H         1 60S         0.0485
     49 H20        16.1565   12.2026   24.8054 H         1 60S         0.0485
@<TRIPOS>BOND
     1    2    1 1  
     2    1    7 1  
     3    1   15 1  
     4    1   18 1  
     5    2    4 1  
     6   10    2 1  
     7   14    3 ar 
     8   15    3 ar 
     9    3   23 ar 
    10    4   14 am 
    11    4   25 2  
    12    5    8 ar 
    13    5   16 ar 
    14   17    5 1  
    15    6    9 ar 
    16   16    6 ar 
    17    6   21 1  
    18    7   11 2  
    19    7   19 1  
    20    8   20 ar 
    21   20    9 ar 
    22    9   26 1  
    23   10   17 1  
    24   11   13 1  
    25   13   12 2  
    26   12   19 1  
    27   12   24 1  
    28   14   27 1  
    29   17   18 1  
    30   20   28 1  
    31   21   29 1  
    32   24   22 3  
    33    2   30 1  
    34   10   31 1  
    35   10   32 1  
    36   11   33 1  
    37   13   34 1  
    38   15   35 1  
    39   18   36 1  
    40   18   37 1  
    41   21   38 1  
    42   23   39 1  
    43   23   40 1  
    44   27   41 1  
    45   27   42 1  
    46   27   43 1  
    47   28   44 1  
    48   28   45 1  
    49   28   46 1  
    50   29   47 1  
    51   29   48 1  
    52   29   49 1  
@<TRIPOS>SUBSTRUCTURE
     1 60S         1

