### 
### Created by X-TOOL on Mon Sep 10 21:13:28 2018
### 

@<TRIPOS>MOLECULE
5he7_ligand
   50    53     1     0     0
SMALL
GAST_HUCK


@<TRIPOS>ATOM
      1 C18        15.0420    9.8850   22.0730 C.3       1 60X        -0.0152
      2 C17        23.4270   11.2370   19.5680 C.ar      1 60X         0.1646
      3 C16        24.5770   11.4080   18.8440 C.ar      1 60X         0.0380
      4 N2         19.7210   10.1090   21.3470 N.pl3     1 60X        -0.2842
      5 C15        25.7090   10.8200   19.3390 C.ar      1 60X         0.1648
      6 C11        19.9270   11.2800   22.2090 C.3       1 60X         0.0476
      7 C12        23.3540   10.5040   20.7500 C.ar      1 60X         0.0309
      8 C13        24.5410    9.9120   21.1800 C.ar      1 60X        -0.0377
      9 C14        25.7270   10.0690   20.4840 C.ar      1 60X        -0.0006
     10 O1         21.9220   13.4390   23.4580 O.2       1 60X        -0.3976
     11 N1         18.5470    8.6450   20.0210 N.ar      1 60X        -0.2414
     12 C10        21.3990   11.6510   21.9780 C.3       1 60X         0.0906
     13 C7         22.5770   10.0110   23.9400 C.cat     1 60X         0.3218
     14 C8         23.2690   11.9660   25.2990 C.3       1 60X         0.0243
     15 C9         22.0040   12.2480   23.2340 C.2       1 60X         0.1798
     16 C6         22.0500   10.3100   21.5360 C.3       1 60X         0.1389
     17 C4         18.6000    6.4570   18.4840 C.3       1 60X         0.0645
     18 C3         17.3890    8.1170   19.6720 C.ar      1 60X         0.1930
     19 C2         18.5360    9.5230   21.0410 C.ar      1 60X         0.1663
     20 C1         16.2630    9.4130   21.3390 C.ar      1 60X         0.0500
     21 C5         20.9450    9.6680   20.6830 C.3       1 60X         0.0556
     22 F2         22.2970   11.7980   19.0870 F         1 60X        -0.1563
     23 F1         26.8740   11.0130   18.6700 F         1 60X        -0.1572
     24 N5         22.6200   11.3810   24.1140 N.am      1 60X        -0.2141
     25 N4         22.9230    9.2410   24.9090 N.pl3     1 60X        -0.2548
     26 N3         22.2270    9.4960   22.7400 N.pl3     1 60X        -0.2697
     27 N          17.4430    9.9240   21.7320 N.ar      1 60X        -0.2736
     28 C          16.1940    8.4760   20.2770 C.ar      1 60X         0.1950
     29 F          15.0380    7.9380   19.8550 F         1 60X        -0.1919
     30 O          17.3570    7.0960   18.7960 O.3       1 60X        -0.2992
     31 H1         14.1506    9.3935   21.6559 H         1 60X         0.0429
     32 H2         14.9456   10.9751   21.9615 H         1 60X         0.0429
     33 H3         15.1347    9.6323   23.1395 H         1 60X         0.0429
     34 H4         24.5897   11.9811   17.9239 H         1 60X         0.0674
     35 H5         19.7479   11.0261   23.2642 H         1 60X         0.0545
     36 H6         19.2637   12.1060   21.9129 H         1 60X         0.0545
     37 H7         24.5347    9.3129   22.0834 H         1 60X         0.0823
     38 H8         26.6442    9.6104   20.8353 H         1 60X         0.0665
     39 H9         21.4856   12.3897   21.1676 H         1 60X         0.0497
     40 H10        23.7149   11.1643   25.9061 H         1 60X         0.0483
     41 H11        22.5208   12.5062   25.8976 H         1 60X         0.0483
     42 H12        24.0562   12.6644   24.9787 H         1 60X         0.0483
     43 H13        18.4244    5.6469   17.7609 H         1 60X         0.0587
     44 H14        19.0386    6.0399   19.4025 H         1 60X         0.0587
     45 H15        19.2918    7.1933   18.0489 H         1 60X         0.0587
     46 H16        20.9850   10.0311   19.6454 H         1 60X         0.0463
     47 H17        21.0262    8.5710   20.6910 H         1 60X         0.0463
     48 H18        22.8945    8.2183   24.7895 H         1 60X         0.3198
     49 H19        23.2288    9.6465   25.8051 H         1 60X         0.3198
     50 H20        22.0773    8.4794   22.6692 H         1 60X         0.3110
@<TRIPOS>BOND
     1   20    1 1  
     2    2    3 ar 
     3    7    2 ar 
     4    2   22 1  
     5    3    5 ar 
     6    4    6 1  
     7   19    4 1  
     8    4   21 1  
     9    9    5 ar 
    10    5   23 1  
    11    6   12 1  
    12    7    8 ar 
    13   16    7 1  
    14    8    9 ar 
    15   15   10 2  
    16   11   18 ar 
    17   19   11 ar 
    18   12   15 1  
    19   16   12 1  
    20   13   24 ar 
    21   13   25 ar 
    22   26   13 ar 
    23   24   14 1  
    24   15   24 am 
    25   21   16 1  
    26   16   26 1  
    27   30   17 1  
    28   18   28 ar 
    29   18   30 1  
    30   27   19 ar 
    31   20   27 ar 
    32   20   28 ar 
    33   28   29 1  
    34    1   31 1  
    35    1   32 1  
    36    1   33 1  
    37    3   34 1  
    38    6   35 1  
    39    6   36 1  
    40    8   37 1  
    41    9   38 1  
    42   12   39 1  
    43   14   40 1  
    44   14   41 1  
    45   14   42 1  
    46   17   43 1  
    47   17   44 1  
    48   17   45 1  
    49   21   46 1  
    50   21   47 1  
    51   25   48 1  
    52   25   49 1  
    53   26   50 1  
@<TRIPOS>SUBSTRUCTURE
     1 60X         1

