### 
### Created by X-TOOL on Mon Sep 10 21:13:27 2018
### 

@<TRIPOS>MOLECULE
5hes_ligand
   51    54     1     0     0
SMALL
GAST_HUCK


@<TRIPOS>ATOM
      1 C10        28.5690   71.5270   -5.7080 C.ar      1 032         0.0398
      2 C15        26.8860   72.2050    2.7770 C.2       1 032         0.0541
      3 C17        26.3120   69.9160    1.9600 C.2       1 032         0.1307
      4 C20        26.1880   68.7280    4.1680 C.ar      1 032         0.1647
      5 C21        25.5870   68.4590    5.3950 C.ar      1 032         0.0978
      6 C22        24.3230   68.9480    5.6840 C.ar      1 032        -0.0439
      7 C24        24.3670   70.0400    3.5700 C.ar      1 032         0.1310
      8 C01        27.9730   72.5170   -1.6180 C.ar      1 032        -0.0058
      9 C02        28.2020   73.8030   -1.1440 C.ar      1 032         0.0036
     10 N03        27.9760   74.2030    0.0990 N.ar      1 032        -0.2829
     11 C04        27.4660   71.5530   -0.7380 C.ar      1 032        -0.0455
     12 N14        27.2820   73.3990    2.2550 N.pl3     1 032        -0.2548
     13 C16        26.8220   71.2610    1.7910 C.2       1 032         0.0416
     14 C05        27.2470   71.9280    0.5810 C.ar      1 032         0.0185
     15 C06        27.5230   73.2560    0.9230 C.ar      1 032         0.1421
     16 C07        28.2350   72.1890   -3.0310 C.ar      1 032        -0.0185
     17 C18        25.6060   69.5390    3.2370 C.ar      1 032         0.0791
     18 C23        23.7120   69.7620    4.7580 C.ar      1 032        -0.0421
     19 F25        23.7970   70.9030    2.7120 F         1 032        -0.1929
     20 F26        27.3620   68.1420    3.8940 F         1 032        -0.1907
     21 N27        26.3580   67.7260    6.3290 N.am      1 032        -0.1922
     22 S28        26.0450   67.3550    7.8610 S.o2      1 032         0.0588
     23 O29        27.1540   66.6220    8.3170 O.2       1 032        -0.1502
     24 O30        24.7510   66.7690    7.9240 O.2       1 032        -0.1502
     25 C31        25.9480   68.9480    8.6250 C.3       1 032         0.0894
     26 C32        27.1480   69.6740    8.8500 C.3       1 032        -0.0342
     27 C33        26.8540   71.0220    9.5280 C.3       1 032        -0.0637
     28 C08        28.7260   70.9360   -3.4040 C.ar      1 032        -0.0546
     29 C09        28.9140   70.6100   -4.7350 C.ar      1 032        -0.0480
     30 C11        28.0890   72.7720   -5.3790 C.ar      1 032        -0.0480
     31 C12        27.9350   73.1030   -4.0450 C.ar      1 032        -0.0546
     32 CL13       28.6980   71.0750   -7.4060 Cl        1 032        -0.0710
     33 O19        26.3960   69.0400    1.1550 O.2       1 032        -0.3914
     34 H1         26.6543   72.0285    3.8263 H         1 032         0.1099
     35 H2         23.8286   68.6959    6.6151 H         1 032         0.0496
     36 H3         28.5945   74.5330   -1.8427 H         1 032         0.0760
     37 H4         27.2512   70.5456   -1.0758 H         1 032         0.0676
     38 H5         27.3835   74.2754    2.7865 H         1 032         0.2362
     39 H6         22.7315   70.1799    4.9557 H         1 032         0.0539
     40 H7         27.2323   67.3867    5.9819 H         1 032         0.2130
     41 H8         25.4666   68.8080    9.6041 H         1 032         0.0523
     42 H9         25.3065   69.5738    7.9871 H         1 032         0.0523
     43 H10        27.6448   69.8566    7.8857 H         1 032         0.0279
     44 H11        27.8111   69.0820    9.4979 H         1 032         0.0279
     45 H12        27.7973   71.5639    9.6910 H         1 032         0.0230
     46 H13        26.3604   70.8461   10.4951 H         1 032         0.0230
     47 H14        26.1940   71.6207    8.8830 H         1 032         0.0230
     48 H15        28.9637   70.2069   -2.6378 H         1 032         0.0617
     49 H16        29.3271   69.6465   -5.0109 H         1 032         0.0621
     50 H17        27.8345   73.4851   -6.1547 H         1 032         0.0621
     51 H18        27.5746   74.0906   -3.7807 H         1 032         0.0617
@<TRIPOS>BOND
     1   29    1 ar 
     2    1   30 ar 
     3    1   32 1  
     4   12    2 1  
     5   13    2 2  
     6   13    3 1  
     7    3   17 1  
     8    3   33 2  
     9    4    5 ar 
    10   17    4 ar 
    11    4   20 1  
    12    5    6 ar 
    13    5   21 1  
    14   18    6 ar 
    15   17    7 ar 
    16    7   18 ar 
    17    7   19 1  
    18    8    9 ar 
    19    8   11 ar 
    20   16    8 1  
    21    9   10 ar 
    22   10   15 ar 
    23   11   14 ar 
    24   15   12 1  
    25   14   13 1  
    26   14   15 ar 
    27   28   16 ar 
    28   16   31 ar 
    29   21   22 am 
    30   22   23 2  
    31   22   24 2  
    32   22   25 1  
    33   25   26 1  
    34   26   27 1  
    35   28   29 ar 
    36   30   31 ar 
    37    2   34 1  
    38    6   35 1  
    39    9   36 1  
    40   11   37 1  
    41   12   38 1  
    42   18   39 1  
    43   21   40 1  
    44   25   41 1  
    45   25   42 1  
    46   26   43 1  
    47   26   44 1  
    48   27   45 1  
    49   27   46 1  
    50   27   47 1  
    51   28   48 1  
    52   29   49 1  
    53   30   50 1  
    54   31   51 1  
@<TRIPOS>SUBSTRUCTURE
     1 032         1

