### 
### Created by X-TOOL on Mon Sep 10 21:13:28 2018
### 

@<TRIPOS>MOLECULE
5hex_ligand
   53    55     1     0     0
SMALL
GAST_HUCK


@<TRIPOS>ATOM
      1 C1         31.4480   -4.1500  -65.6180 C.ar      1 604        -0.0534
      2 C2A        31.5420   -3.0050  -64.8510 C.ar      1 604        -0.0392
      3 C3         32.5930   -4.7780  -66.0400 C.ar      1 604        -0.0479
      4 C4         33.9180   -3.1030  -64.9360 C.ar      1 604        -0.0322
      5 C5         33.6680    5.9620  -57.1000 C.2       1 604        -0.0385
      6 C6         32.7650   -2.4820  -64.5170 C.ar      1 604         0.0527
      7 C7         34.2580    7.1740  -56.6870 C.2       1 604         0.0055
      8 C8         33.8240   -4.2540  -65.6940 C.ar      1 604         0.0186
      9 C9         34.7710    7.8040  -57.7890 C.2       1 604         0.1142
     10 C10        33.8570    5.9180  -58.4620 C.2       1 604         0.2380
     11 C11        32.8240   -1.2630  -63.7010 C.2       1 604         0.2061
     12 C12        34.2960    7.6700  -55.2570 C.2       1 604         0.0344
     13 C13        34.2620    0.5920  -62.9480 C.3       1 604         0.1203
     14 C14        35.4470    1.3580  -63.4970 C.3       1 604         0.1110
     15 C15        35.4990    2.6980  -62.7960 C.3       1 604         0.1110
     16 C16        35.7180    2.4380  -61.3250 C.3       1 604         0.1067
     17 C17        34.4600    0.4030  -61.4630 C.3       1 604         0.1822
     18 C18        35.4850    9.0730  -57.9450 C.3       1 604         0.0041
     19 C19        35.7770    3.7080  -60.4950 C.3       1 604         0.0553
     20 N20        34.0600   -0.6570  -63.6450 N.am      1 604        -0.2756
     21 N21        34.6110    4.5690  -60.7660 N.am      1 604        -0.2440
     22 O22        34.7110    8.8530  -55.0920 O.co2     1 604        -0.5728
     23 O23        31.8220   -0.8920  -63.1150 O.2       1 604        -0.3846
     24 O24        33.8950    6.8060  -54.4280 O.co2     1 604        -0.5728
     25 O25        33.1760    3.5180  -58.7810 O.2       1 604        -0.1495
     26 O26        32.1930    5.3290  -60.1640 O.2       1 604        -0.1495
     27 O27        34.5270    7.0310  -58.8860 O.3       1 604        -0.2339
     28 O28        34.6550    1.6550  -60.8130 O.3       1 604        -0.3416
     29 O29        35.3190    1.5200  -64.9050 O.3       1 604        -0.3867
     30 O30        36.6120    3.4100  -63.2990 O.3       1 604        -0.3865
     31 O31        35.5110   -0.4990  -61.1620 O.3       1 604        -0.3651
     32 S32        33.3610    4.7070  -59.5870 S.o2      1 604         0.0922
     33 BR         35.4060   -5.1490  -66.2810 Br        1 604        -0.0486
     34 H1         30.4764   -4.5498  -65.8848 H         1 604         0.0636
     35 H2         30.6382   -2.5139  -64.5090 H         1 604         0.0693
     36 H3         32.5322   -5.6785  -66.6404 H         1 604         0.0679
     37 H4         34.8877   -2.6948  -64.6750 H         1 604         0.0697
     38 H5         33.1704    5.2211  -56.4760 H         1 604         0.0336
     39 H6         33.3589    1.2020  -63.0970 H         1 604         0.0633
     40 H7         36.3724    0.8018  -63.2866 H         1 604         0.0645
     41 H8         34.5693    3.2629  -62.9586 H         1 604         0.0646
     42 H9         36.6661    1.8927  -61.2077 H         1 604         0.0640
     43 H10        33.5330   -0.0353  -61.0648 H         1 604         0.0932
     44 H11        35.7325    9.2264  -59.0057 H         1 604         0.0438
     45 H12        36.4113    9.0478  -57.3523 H         1 604         0.0438
     46 H13        34.8475    9.8980  -57.5943 H         1 604         0.0438
     47 H14        36.6964    4.2583  -60.7437 H         1 604         0.0502
     48 H15        35.7869    3.4407  -59.4280 H         1 604         0.0502
     49 H16        34.8373   -1.0930  -64.0985 H         1 604         0.1851
     50 H17        34.5457    5.0701  -61.6289 H         1 604         0.1672
     51 H18        35.2888    0.6657  -65.3195 H         1 604         0.2100
     52 H19        36.6962    4.2339  -62.8335 H         1 604         0.2100
     53 H20        35.5423   -0.6453  -60.2239 H         1 604         0.2126
@<TRIPOS>BOND
     1    2    1 ar 
     2    1    3 ar 
     3    6    2 ar 
     4    8    3 ar 
     5    6    4 ar 
     6    4    8 ar 
     7    5    7 1  
     8   10    5 2  
     9   11    6 1  
    10    9    7 2  
    11    7   12 1  
    12    8   33 1  
    13    9   18 1  
    14   27    9 1  
    15   10   27 1  
    16   32   10 1  
    17   20   11 am 
    18   11   23 2  
    19   12   22 ar 
    20   12   24 ar 
    21   14   13 1  
    22   17   13 1  
    23   13   20 1  
    24   15   14 1  
    25   14   29 1  
    26   16   15 1  
    27   15   30 1  
    28   19   16 1  
    29   16   28 1  
    30   28   17 1  
    31   17   31 1  
    32   21   19 1  
    33   21   32 am 
    34   32   25 2  
    35   32   26 2  
    36    1   34 1  
    37    2   35 1  
    38    3   36 1  
    39    4   37 1  
    40    5   38 1  
    41   13   39 1  
    42   14   40 1  
    43   15   41 1  
    44   16   42 1  
    45   17   43 1  
    46   18   44 1  
    47   18   45 1  
    48   18   46 1  
    49   19   47 1  
    50   19   48 1  
    51   20   49 1  
    52   21   50 1  
    53   29   51 1  
    54   30   52 1  
    55   31   53 1  
@<TRIPOS>SUBSTRUCTURE
     1 604         1

