### 
### Created by X-TOOL on Mon Sep 10 21:13:27 2018
### 

@<TRIPOS>MOLECULE
5hfb_ligand
   92    92     1     0     0
SMALL
GAST_HUCK


@<TRIPOS>ATOM
      1 N          37.4410   45.2100   24.0350 N.4       1 TYR         0.2392
      2 CA         38.2090   46.4330   24.2140 C.3       1 TYR         0.0730
      3 C          37.9230   47.4880   23.1480 C.2       1 TYR         0.2285
      4 O          37.7870   47.1720   21.9670 O.2       1 TYR        -0.3905
      5 CB         39.6910   46.0830   24.2180 C.3       1 TYR         0.0365
      6 CG         40.6010   47.2230   23.8520 C.ar      1 TYR        -0.0460
      7 CD1        40.9170   48.2000   24.7790 C.ar      1 TYR        -0.0684
      8 CD2        41.1510   47.3070   22.5860 C.ar      1 TYR        -0.0684
      9 CE1        41.7590   49.2390   24.4670 C.ar      1 TYR        -0.0398
     10 CE2        42.0070   48.3470   22.2430 C.ar      1 TYR        -0.0398
     11 CZ         42.3050   49.3180   23.2010 C.ar      1 TYR         0.0805
     12 OH         43.1460   50.3680   22.9270 O.3       1 TYR        -0.3376
     13 N          37.8400   48.7450   23.5790 N.am      1 LYS        -0.2612
     14 CA         37.6180   49.8680   22.6720 C.3       1 LYS         0.1283
     15 C          38.2690   51.1380   23.2240 C.2       1 LYS         0.2036
     16 O          38.1550   51.4330   24.4150 O.2       1 LYS        -0.3944
     17 CB         36.1200   50.0920   22.4530 C.3       1 LYS        -0.0244
     18 N          38.9620   51.8780   22.3620 N.am      1 GLN        -0.2636
     19 CA         39.5880   53.1360   22.7650 C.3       1 GLN         0.1330
     20 C          39.2720   54.2320   21.7560 C.2       1 GLN         0.2041
     21 O          39.3290   54.0160   20.5460 O.2       1 GLN        -0.3944
     22 CB         41.1060   52.9700   22.9180 C.3       1 GLN         0.0045
     23 CG         41.8400   54.2700   23.2100 C.3       1 GLN         0.0412
     24 CD         43.1850   54.0930   23.9040 C.2       1 GLN         0.1737
     25 OE1        43.8140   55.0780   24.3010 O.2       1 GLN        -0.3973
     26 NE2        43.6590   52.8470   24.0070 N.am      1 GLN        -0.3009
     27 N          38.9480   55.4150   22.2660 N.am      1 THR        -0.2613
     28 CA         38.5020   56.5220   21.4250 C.3       1 THR         0.1565
     29 C          39.0850   57.8520   21.8860 C.2       1 THR         0.2065
     30 O          39.2670   58.0710   23.0790 O.2       1 THR        -0.3943
     31 CB         36.9640   56.6390   21.4310 C.3       1 THR         0.0924
     32 OG1        36.3780   55.3430   21.2600 O.3       1 THR        -0.3874
     33 CG2        36.4870   57.5590   20.3160 C.3       1 THR        -0.0346
     34 N          39.3570   58.7430   20.9350 N.am      1 SER        -0.2615
     35 CA         39.7950   60.0970   21.2470 C.3       1 SER         0.1539
     36 C          38.5840   61.0050   21.4100 C.2       1 SER         0.2056
     37 O          37.6400   60.9280   20.6200 O.2       1 SER        -0.3943
     38 CB         40.7010   60.6490   20.1390 C.3       1 SER         0.0843
     39 OG         41.8330   59.8280   19.9330 O.3       1 SER        -0.3903
     40 N          38.6140   61.8730   22.4180 N.am      1 VAL        -0.2692
     41 CA         37.5270   62.8240   22.6200 C.3       1 VAL         0.0967
     42 C          38.0610   64.2350   22.7930 C.2       1 VAL         0.0603
     43 O          37.2670   65.1840   22.7840 O.co2     1 VAL        -0.5666
     44 CB         36.6570   62.4360   23.8280 C.3       1 VAL        -0.0118
     45 CG1        36.0200   61.0760   23.6080 C.3       1 VAL        -0.0590
     46 CG2        37.4860   62.4390   25.1040 C.3       1 VAL        -0.0590
     47 OXT        39.2620   64.4450   22.9510 O.co2     1 VAL        -0.5666
     48 H1         37.6738   44.5569   24.7667 H         1 TYR         0.2017
     49 H2         37.6607   44.8033   23.1392 H         1 TYR         0.2017
     50 H3         36.4565   45.4225   24.0752 H         1 TYR         0.2017
     51 H4         37.9447   46.8621   25.1917 H         1 TYR         0.1120
     52 H5         39.8538   45.2682   23.4972 H         1 TYR         0.0486
     53 H6         39.9602   45.7388   25.2275 H         1 TYR         0.0486
     54 H7         40.4904   48.1442   25.7740 H         1 TYR         0.0530
     55 H8         40.9106   46.5493   21.8490 H         1 TYR         0.0530
     56 H9         41.9937   49.9926   25.2100 H         1 TYR         0.0525
     57 H10        42.4358   48.4032   21.2490 H         1 TYR         0.0525
     58 H11        43.2249   50.9184   23.6973 H         1 TYR         0.2458
     59 H12        37.9329   48.9265   24.5580 H         1 LYS         0.1884
     60 H13        38.0811   49.6306   21.7029 H         1 LYS         0.0797
     61 H14        35.9724   50.9403   21.7684 H         1 LYS         0.0277
     62 H15        35.6371   50.3104   23.4169 H         1 LYS         0.0277
     63 H16        35.6738   49.1864   22.0162 H         1 LYS         0.0277
     64 H17        39.0567   51.5662   21.4166 H         1 GLN         0.1883
     65 H18        39.1732   53.4314   23.7400 H         1 GLN         0.0801
     66 H19        41.5047   52.5492   21.9832 H         1 GLN         0.0337
     67 H20        41.2967   52.2708   23.7455 H         1 GLN         0.0337
     68 H21        41.1993   54.8892   23.8550 H         1 GLN         0.0504
     69 H22        42.0113   54.7898   22.2559 H         1 GLN         0.0504
     70 H23        44.5379   52.6818   24.4546 H         1 GLN         0.1814
     71 H24        43.1346   52.0803   23.6365 H         1 GLN         0.1814
     72 H25        39.0114   55.5513   23.2546 H         1 THR         0.1884
     73 H26        38.8388   56.3275   20.3961 H         1 THR         0.0826
     74 H27        36.6435   57.0546   22.3977 H         1 THR         0.0639
     75 H28        35.4313   55.4217   21.2646 H         1 THR         0.2101
     76 H29        35.3893   57.6264   20.3406 H         1 THR         0.0257
     77 H30        36.8078   57.1547   19.3446 H         1 THR         0.0257
     78 H31        36.9191   58.5607   20.4570 H         1 THR         0.0257
     79 H32        39.2576   58.4746   19.9768 H         1 SER         0.1884
     80 H33        40.3596   60.0778   22.1908 H         1 SER         0.0823
     81 H34        41.0383   61.6567   20.4230 H         1 SER         0.0606
     82 H35        40.1260   60.7050   19.2029 H         1 SER         0.0606
     83 H36        42.3377   59.7790   20.7364 H         1 SER         0.2097
     84 H37        39.3925   61.8733   23.0456 H         1 VAL         0.1875
     85 H38        36.8915   62.8060   21.7223 H         1 VAL         0.0729
     86 H39        35.8554   63.1819   23.9331 H         1 VAL         0.0336
     87 H40        35.4025   60.8150   24.4801 H         1 VAL         0.0234
     88 H41        36.8074   60.3192   23.4766 H         1 VAL         0.0234
     89 H42        35.3884   61.1082   22.7080 H         1 VAL         0.0234
     90 H43        37.9383   63.4317   25.2450 H         1 VAL         0.0234
     91 H44        38.2802   61.6818   25.0271 H         1 VAL         0.0234
     92 H45        36.8388   62.2057   25.9623 H         1 VAL         0.0234
@<TRIPOS>BOND
     1    1    2 1  
     2    2    3 1  
     3    2    5 1  
     4    3    4 2  
     5    3   13 am 
     6    5    6 1  
     7    6    7 ar 
     8    6    8 ar 
     9    7    9 ar 
    10    8   10 ar 
    11    9   11 ar 
    12   10   11 ar 
    13   11   12 1  
    14   13   14 1  
    15   14   15 1  
    16   14   17 1  
    17   15   16 2  
    18   15   18 am 
    19   18   19 1  
    20   19   20 1  
    21   19   22 1  
    22   20   21 2  
    23   20   27 am 
    24   22   23 1  
    25   23   24 1  
    26   24   25 2  
    27   24   26 am 
    28   27   28 1  
    29   28   29 1  
    30   28   31 1  
    31   29   30 2  
    32   29   34 am 
    33   31   32 1  
    34   31   33 1  
    35   34   35 1  
    36   35   36 1  
    37   35   38 1  
    38   36   37 2  
    39   36   40 am 
    40   38   39 1  
    41   40   41 1  
    42   41   42 1  
    43   41   44 1  
    44   42   43 ar 
    45   42   47 ar 
    46   44   45 1  
    47   44   46 1  
    48    1   48 1  
    49    1   49 1  
    50    1   50 1  
    51    2   51 1  
    52    5   52 1  
    53    5   53 1  
    54    7   54 1  
    55    8   55 1  
    56    9   56 1  
    57   10   57 1  
    58   12   58 1  
    59   13   59 1  
    60   14   60 1  
    61   17   61 1  
    62   17   62 1  
    63   17   63 1  
    64   18   64 1  
    65   19   65 1  
    66   22   66 1  
    67   22   67 1  
    68   23   68 1  
    69   23   69 1  
    70   26   70 1  
    71   26   71 1  
    72   27   72 1  
    73   28   73 1  
    74   31   74 1  
    75   32   75 1  
    76   33   76 1  
    77   33   77 1  
    78   33   78 1  
    79   34   79 1  
    80   35   80 1  
    81   38   81 1  
    82   38   82 1  
    83   39   83 1  
    84   40   84 1  
    85   41   85 1  
    86   44   86 1  
    87   45   87 1  
    88   45   88 1  
    89   45   89 1  
    90   46   90 1  
    91   46   91 1  
    92   46   92 1  
@<TRIPOS>SUBSTRUCTURE
     1 TYR         1

