### 
### Created by X-TOOL on Mon Sep 10 21:13:29 2018
### 

@<TRIPOS>MOLECULE
5hfj_ligand
   50    52     1     0     0
SMALL
GAST_HUCK


@<TRIPOS>ATOM
      1 N         -26.6490    7.0040  -14.4630 N.4       1 SAM         0.2328
      2 CA        -25.2910    7.3710  -14.0760 C.3       1 SAM         0.0327
      3 C         -25.0530    7.2830  -12.5720 C.2       1 SAM         0.0846
      4 O         -23.9190    7.4120  -12.1120 O.co2     1 SAM        -0.5643
      5 OXT       -25.9780    7.0870  -11.7850 O.co2     1 SAM        -0.5643
      6 CB        -24.9400    8.7700  -14.5630 C.3       1 SAM         0.0473
      7 CG        -25.4150    9.1130  -15.9680 C.3       1 SAM         0.1163
      8 SD        -24.9390   10.8010  -16.4110 S.3       1 SAM        -0.0103
      9 CE        -26.5660   11.5650  -16.6450 C.3       1 SAM         0.0995
     10 C5'       -24.3350   10.6680  -18.1130 C.3       1 SAM         0.1381
     11 C4'       -22.8620   10.2800  -18.2210 C.3       1 SAM         0.1350
     12 O4'       -22.5280   10.0850  -19.5780 O.3       1 SAM        -0.3344
     13 C3'       -21.8940   11.3320  -17.6990 C.3       1 SAM         0.1168
     14 O3'       -21.1200   10.7580  -16.6760 O.3       1 SAM        -0.3863
     15 C2'       -20.9700   11.6610  -18.8550 C.3       1 SAM         0.1386
     16 O2'       -19.6280   11.6840  -18.4290 O.3       1 SAM        -0.3836
     17 C1'       -21.2000   10.5020  -19.8040 C.3       1 SAM         0.2011
     18 N9        -21.0140   10.8470  -21.2220 N.pl3     1 SAM        -0.1919
     19 C8        -21.0500   12.0760  -21.8270 C.2       1 SAM         0.1123
     20 N7        -20.8250   11.8980  -23.1520 N.2       1 SAM        -0.2958
     21 C5        -20.6530   10.5780  -23.3920 C.ar      1 SAM         0.1045
     22 C6        -20.4020    9.8450  -24.5440 C.ar      1 SAM         0.1298
     23 N6        -20.2780   10.4510  -25.7210 N.pl3     1 SAM        -0.3152
     24 N1        -20.2670    8.4740  -24.4560 N.ar      1 SAM        -0.2698
     25 C2        -20.3890    7.8310  -23.2420 C.ar      1 SAM         0.0533
     26 N3        -20.6410    8.5650  -22.1060 N.ar      1 SAM        -0.2714
     27 C4        -20.7670    9.9110  -22.1830 C.ar      1 SAM         0.1613
     28 H1        -26.7457    7.0810  -15.4634 H         1 SAM         0.2010
     29 H2        -27.3054    7.6229  -14.0134 H         1 SAM         0.2010
     30 H3        -26.8341    6.0545  -14.1797 H         1 SAM         0.2010
     31 H4        -24.6083    6.6596  -14.5637 H         1 SAM         0.1026
     32 H5        -23.8449    8.8717  -14.5412 H         1 SAM         0.0385
     33 H6        -25.3894    9.4938  -13.8672 H         1 SAM         0.0385
     34 H7        -26.5106    9.0241  -16.0103 H         1 SAM         0.0843
     35 H8        -24.9622    8.4109  -16.6835 H         1 SAM         0.0843
     36 H9        -26.4383   12.6210  -16.9252 H         1 SAM         0.0803
     37 H10       -27.1393   11.5010  -15.7084 H         1 SAM         0.0803
     38 H11       -27.1078   11.0368  -17.4434 H         1 SAM         0.0803
     39 H12       -24.4732   11.6415  -18.6061 H         1 SAM         0.0867
     40 H13       -24.9326    9.9051  -18.6335 H         1 SAM         0.0867
     41 H14       -22.7099    9.3464  -17.6595 H         1 SAM         0.0671
     42 H15       -22.4257   12.2252  -17.3392 H         1 SAM         0.0649
     43 H16       -20.6376   10.0169  -17.0233 H         1 SAM         0.2100
     44 H17       -21.2331   12.6226  -19.3199 H         1 SAM         0.0676
     45 H18       -19.3930   10.8322  -18.0804 H         1 SAM         0.2101
     46 H19       -20.5041    9.6878  -19.5535 H         1 SAM         0.0996
     47 H20       -21.2281   13.0287  -21.3305 H         1 SAM         0.1349
     48 H21       -20.0918    9.8964  -26.5687 H         1 SAM         0.1820
     49 H22       -20.3681   11.4751  -25.7850 H         1 SAM         0.1820
     50 H23       -20.2869    6.7534  -23.1832 H         1 SAM         0.0996
@<TRIPOS>BOND
     1    1    2 1  
     2    2    3 1  
     3    2    6 1  
     4    3    4 ar 
     5    3    5 ar 
     6    6    7 1  
     7    7    8 1  
     8    8    9 1  
     9    8   10 1  
    10   10   11 1  
    11   11   12 1  
    12   11   13 1  
    13   12   17 1  
    14   13   14 1  
    15   13   15 1  
    16   15   16 1  
    17   15   17 1  
    18   17   18 1  
    19   18   19 1  
    20   18   27 1  
    21   19   20 2  
    22   20   21 1  
    23   21   22 ar 
    24   21   27 ar 
    25   22   23 1  
    26   22   24 ar 
    27   24   25 ar 
    28   25   26 ar 
    29   26   27 ar 
    30    1   28 1  
    31    1   29 1  
    32    1   30 1  
    33    2   31 1  
    34    6   32 1  
    35    6   33 1  
    36    7   34 1  
    37    7   35 1  
    38    9   36 1  
    39    9   37 1  
    40    9   38 1  
    41   10   39 1  
    42   10   40 1  
    43   11   41 1  
    44   13   42 1  
    45   14   43 1  
    46   15   44 1  
    47   16   45 1  
    48   17   46 1  
    49   19   47 1  
    50   23   48 1  
    51   23   49 1  
    52   25   50 1  
@<TRIPOS>SUBSTRUCTURE
     1 SAM         1

