### 
### Created by X-TOOL on Mon Sep 10 21:13:28 2018
### 

@<TRIPOS>MOLECULE
5hfu_ligand
   62    65     1     0     0
SMALL
GAST_HUCK


@<TRIPOS>ATOM
      1 C1         29.0180    1.5000  -62.6240 C.1       1 603         0.1004
      2 C2         32.9500   -2.3410  -70.4340 C.ar      1 603        -0.0617
      3 C3         32.6020   -3.6340  -70.1010 C.ar      1 603        -0.0612
      4 C4         33.0180   -1.3440  -69.4870 C.ar      1 603        -0.0612
      5 C5         31.2570   -4.7030  -64.6880 C.ar      1 603        -0.0557
      6 C6         30.0960    1.9980  -60.4870 C.ar      1 603        -0.0251
      7 C7         30.7360    3.2150  -62.4350 C.ar      1 603        -0.0251
      8 C8         32.3150   -3.9560  -68.7940 C.ar      1 603        -0.0540
      9 C9         32.7290   -1.6820  -68.1830 C.ar      1 603        -0.0540
     10 C10        31.5820   -4.4880  -66.0120 C.ar      1 603        -0.0499
     11 C11        31.4160   -3.7030  -63.7490 C.ar      1 603        -0.0420
     12 C12        31.0020    2.7110  -59.7240 C.ar      1 603        -0.0239
     13 C13        31.6490    3.9320  -61.6880 C.ar      1 603        -0.0239
     14 C14        32.2440   -2.2650  -65.4870 C.ar      1 603        -0.0341
     15 C15        29.9610    2.2450  -61.8380 C.ar      1 603         0.0957
     16 C16        32.3810   -2.9760  -67.8200 C.ar      1 603        -0.0168
     17 C17        32.0760   -3.2640  -66.4250 C.ar      1 603        -0.0123
     18 C18        31.9200   -2.4950  -64.1740 C.ar      1 603         0.0505
     19 C19        31.7760    3.6730  -60.3360 C.ar      1 603         0.1167
     20 C20        32.1070   -1.3940  -63.2400 C.2       1 603         0.2055
     21 C21        33.4260    0.5630  -62.8300 C.3       1 603         0.1203
     22 C22        34.6650    1.1870  -63.4100 C.3       1 603         0.1110
     23 C23        34.7920    2.5230  -62.7470 C.3       1 603         0.1110
     24 C24        35.0740    2.2950  -61.2820 C.3       1 603         0.1067
     25 C25        33.6070    0.4250  -61.3390 C.3       1 603         0.1822
     26 C26        35.1620    3.6460  -60.6120 C.3       1 603         0.0555
     27 N27        28.2690    0.8880  -63.2690 N.1       1 603        -0.3284
     28 N28        33.2740   -0.7300  -63.4230 N.am      1 603        -0.2756
     29 N29        34.3310    3.5600  -59.4040 N.am      1 603        -0.2440
     30 O30        31.2640   -1.1090  -62.4110 O.2       1 603        -0.3846
     31 O31        33.3720    5.7860  -60.0750 O.2       1 603        -0.1492
     32 O32        32.4750    4.6350  -57.9990 O.2       1 603        -0.1492
     33 O33        33.9400    1.6580  -60.7100 O.3       1 603        -0.3416
     34 O34        34.4640    1.4120  -64.7900 O.3       1 603        -0.3867
     35 O35        35.8780    3.1940  -63.3560 O.3       1 603        -0.3865
     36 O36        34.6380   -0.5100  -61.1200 O.3       1 603        -0.3651
     37 S37        32.9640    4.5910  -59.3630 S.o2      1 603         0.0720
     38 H1         33.1756   -2.1042  -71.4675 H         1 603         0.0617
     39 H2         32.5546   -4.3970  -70.8696 H         1 603         0.0618
     40 H3         33.2891   -0.3299  -69.7575 H         1 603         0.0618
     41 H4         30.8721   -5.6689  -64.3814 H         1 603         0.0629
     42 H5         29.4842    1.2357  -60.0183 H         1 603         0.0719
     43 H6         30.6285    3.4159  -63.4948 H         1 603         0.0719
     44 H7         32.0392   -4.9705  -68.5297 H         1 603         0.0623
     45 H8         32.7747   -0.9152  -67.4182 H         1 603         0.0623
     46 H9         31.4489   -5.2853  -66.7343 H         1 603         0.0658
     47 H10        31.1522   -3.8644  -62.7101 H         1 603         0.0668
     48 H11        31.1018    2.5166  -58.6623 H         1 603         0.0661
     49 H12        32.2619    4.6926  -62.1581 H         1 603         0.0661
     50 H13        32.6320   -1.2987  -65.7881 H         1 603         0.0677
     51 H14        32.5452    1.1856  -63.0458 H         1 603         0.0633
     52 H15        35.5515    0.5593  -63.2363 H         1 603         0.0645
     53 H16        33.8674    3.1066  -62.8679 H         1 603         0.0646
     54 H17        35.9911    1.7051  -61.1371 H         1 603         0.0640
     55 H18        32.6709    0.0501  -60.8994 H         1 603         0.0932
     56 H19        34.7797    4.4297  -61.2826 H         1 603         0.0502
     57 H20        36.2045    3.8706  -60.3423 H         1 603         0.0502
     58 H21        34.0132   -1.1352  -63.9611 H         1 603         0.1851
     59 H22        34.5498    2.9381  -58.6521 H         1 603         0.1674
     60 H23        34.3798    0.5778  -65.2368 H         1 603         0.2100
     61 H24        36.0093    4.0330  -62.9302 H         1 603         0.2100
     62 H25        34.7443   -0.6496  -60.1864 H         1 603         0.2126
@<TRIPOS>BOND
     1   15    1 1  
     2    1   27 3  
     3    3    2 ar 
     4    4    2 ar 
     5    8    3 ar 
     6    9    4 ar 
     7    5   10 ar 
     8   11    5 ar 
     9   12    6 ar 
    10    6   15 ar 
    11   13    7 ar 
    12    7   15 ar 
    13   16    8 ar 
    14   16    9 ar 
    15   17   10 ar 
    16   18   11 ar 
    17   19   12 ar 
    18   19   13 ar 
    19   14   17 ar 
    20   18   14 ar 
    21   17   16 1  
    22   20   18 1  
    23   37   19 1  
    24   28   20 am 
    25   20   30 2  
    26   22   21 1  
    27   25   21 1  
    28   21   28 1  
    29   23   22 1  
    30   22   34 1  
    31   24   23 1  
    32   23   35 1  
    33   26   24 1  
    34   24   33 1  
    35   33   25 1  
    36   25   36 1  
    37   29   26 1  
    38   29   37 am 
    39   37   31 2  
    40   37   32 2  
    41    2   38 1  
    42    3   39 1  
    43    4   40 1  
    44    5   41 1  
    45    6   42 1  
    46    7   43 1  
    47    8   44 1  
    48    9   45 1  
    49   10   46 1  
    50   11   47 1  
    51   12   48 1  
    52   13   49 1  
    53   14   50 1  
    54   21   51 1  
    55   22   52 1  
    56   23   53 1  
    57   24   54 1  
    58   25   55 1  
    59   26   56 1  
    60   26   57 1  
    61   28   58 1  
    62   29   59 1  
    63   34   60 1  
    64   35   61 1  
    65   36   62 1  
@<TRIPOS>SUBSTRUCTURE
     1 603         1

