### 
### Created by X-TOOL on Mon Sep 10 21:13:29 2018
### 

@<TRIPOS>MOLECULE
5hg1_ligand
   41    42     1     0     0
SMALL
GAST_HUCK


@<TRIPOS>ATOM
      1 C4         66.4630  -49.3970  -72.1390 C.3       1 62C         0.1116
      2 C5         65.9480  -49.4130  -70.6980 C.3       1 62C         0.1130
      3 C6         65.9670  -50.7830  -70.0660 C.3       1 62C         0.0730
      4 C8         68.0660  -44.8230  -71.5150 C.2       1 62C         0.1924
      5 C10        67.9720  -43.4670  -72.0480 C.2       1 62C         0.0111
      6 C13        67.8730  -40.8180  -73.2170 C.ar      1 62C        -0.0497
      7 C15        68.5890  -38.5430  -73.1250 C.ar      1 62C         0.0576
      8 C17        69.1110  -40.0360  -71.3160 C.ar      1 62C        -0.0358
      9 CL1        69.9870  -37.5220  -71.0520 Cl        1 62C        -0.0693
     10 C16        69.1710  -38.7810  -71.8910 C.ar      1 62C         0.0580
     11 CL2        68.6550  -36.9670  -73.8440 Cl        1 62C        -0.0668
     12 C14        67.9410  -39.5640  -73.7940 C.ar      1 62C        -0.0437
     13 C12        68.4280  -41.0650  -71.9600 C.ar      1 62C        -0.0143
     14 C11        68.4170  -42.4130  -71.3900 C.2       1 62C        -0.0379
     15 O9         68.9180  -45.1680  -70.6790 O.2       1 62C        -0.3906
     16 N7         67.2410  -45.7000  -72.0820 N.am      1 62C        -0.2780
     17 C2         67.3010  -47.0860  -71.6650 C.3       1 62C         0.1198
     18 C1         66.7460  -47.2520  -70.2560 C.3       1 62C         0.1822
     19 O1         65.4550  -46.7430  -70.2210 O.3       1 62C        -0.3651
     20 C3         66.5430  -47.9690  -72.6500 C.3       1 62C         0.1109
     21 O3         67.2350  -47.9370  -73.8840 O.3       1 62C        -0.3867
     22 O4         65.6130  -50.1570  -72.9880 O.3       1 62C        -0.3865
     23 O5         66.7980  -48.5900  -69.8930 O.3       1 62C        -0.3410
     24 O6         67.2750  -51.3250  -70.1160 O.3       1 62C        -0.3924
     25 H1         67.4699  -49.8396  -72.1578 H         1 62C         0.0647
     26 H2         64.9197  -49.0226  -70.6863 H         1 62C         0.0647
     27 H3         65.2781  -51.4447  -70.6114 H         1 62C         0.0584
     28 H4         65.6460  -50.7040  -69.0169 H         1 62C         0.0584
     29 H5         67.5171  -43.3195  -73.0264 H         1 62C         0.0667
     30 H6         67.3804  -41.6235  -73.7495 H         1 62C         0.0651
     31 H7         69.5954  -40.2197  -70.3638 H         1 62C         0.0656
     32 H8         67.4900  -39.3829  -74.7629 H         1 62C         0.0631
     33 H9         68.7929  -42.5526  -70.3775 H         1 62C         0.0746
     34 H10        66.5912  -45.4074  -72.7835 H         1 62C         0.1842
     35 H11        68.3552  -47.3999  -71.6591 H         1 62C         0.0632
     36 H12        67.3676  -46.6773  -69.5536 H         1 62C         0.0932
     37 H13        65.1085  -46.8218  -69.3399 H         1 62C         0.2126
     38 H14        65.5242  -47.5773  -72.7863 H         1 62C         0.0645
     39 H15        67.2704  -47.0428  -74.2029 H         1 62C         0.2100
     40 H16        65.5636  -51.0499  -72.6676 H         1 62C         0.2100
     41 H17        67.2751  -52.1866  -69.7158 H         1 62C         0.2095
@<TRIPOS>BOND
     1    1    2 1  
     2   20    1 1  
     3    1   22 1  
     4    2    3 1  
     5    2   23 1  
     6    3   24 1  
     7    4    5 1  
     8    4   15 2  
     9   16    4 am 
    10    5   14 2  
    11    6   12 ar 
    12   13    6 ar 
    13   10    7 ar 
    14    7   11 1  
    15   12    7 ar 
    16    8   10 ar 
    17   13    8 ar 
    18   10    9 1  
    19   14   13 1  
    20   17   16 1  
    21   17   18 1  
    22   17   20 1  
    23   18   19 1  
    24   18   23 1  
    25   20   21 1  
    26    1   25 1  
    27    2   26 1  
    28    3   27 1  
    29    3   28 1  
    30    5   29 1  
    31    6   30 1  
    32    8   31 1  
    33   12   32 1  
    34   14   33 1  
    35   16   34 1  
    36   17   35 1  
    37   18   36 1  
    38   19   37 1  
    39   20   38 1  
    40   21   39 1  
    41   22   40 1  
    42   24   41 1  
@<TRIPOS>SUBSTRUCTURE
     1 62C         1

