### 
### Created by X-TOOL on Mon Sep 10 21:13:29 2018
### 

@<TRIPOS>MOLECULE
5hg5_ligand
   65    69     1     0     0
SMALL
GAST_HUCK


@<TRIPOS>ATOM
      1 C4          9.9940   -3.9270  -33.5490 C.ar      1 633         0.0477
      2 C5          9.6930   -2.5670  -33.7210 C.ar      1 633         0.1240
      3 C8          7.7810   -3.7080  -33.8050 C.2       1 633         0.0200
      4 C13        15.4690   -5.9140  -33.2480 C.ar      1 633        -0.0820
      5 C15        14.6320   -6.1360  -30.9230 C.ar      1 633         0.0588
      6 C20        16.3680   -6.2510  -26.2710 C.3       1 633        -0.0477
      7 C24        15.0140   -2.0660  -33.0950 C.ar      1 633        -0.0492
      8 C26        17.1420   -0.7710  -32.9700 C.ar      1 633         0.0295
      9 C28        14.9510    0.3380  -33.4550 C.ar      1 633        -0.0492
     10 C1         11.8750   -1.8980  -33.5570 C.ar      1 633         0.1749
     11 N2         12.2600   -3.1940  -33.3770 N.ar      1 633        -0.2392
     12 C3         11.3520   -4.2230  -33.3720 C.ar      1 633         0.1876
     13 N6         10.5700   -1.5220  -33.7380 N.ar      1 633        -0.2626
     14 N7          8.3440   -2.4580  -33.8730 N.pl3     1 633        -0.2714
     15 C9          8.7790   -4.6390  -33.6060 C.2       1 633        -0.0596
     16 O10        11.7660   -5.5440  -33.1930 O.3       1 633        -0.2380
     17 C11        13.0690   -5.7340  -32.7800 C.ar      1 633         0.1109
     18 C12        14.1450   -5.7190  -33.7120 C.ar      1 633        -0.0419
     19 C14        15.7170   -6.1210  -31.8600 C.ar      1 633        -0.0509
     20 C16        13.3100   -5.9420  -31.3980 C.ar      1 633        -0.0075
     21 N17        14.7590   -6.3310  -29.5160 N.am      1 633        -0.2361
     22 C18        15.9030   -6.5230  -28.7630 C.2       1 633         0.2031
     23 C19        15.5690   -6.9660  -27.3490 C.3       1 633         0.0403
     24 O21        17.0680   -6.3600  -29.1270 O.2       1 633        -0.3849
     25 N22        12.8450   -0.8770  -33.5590 N.pl3     1 633        -0.2572
     26 C23        14.2480   -0.8940  -33.3740 C.ar      1 633         0.0515
     27 C25        16.4210   -2.0120  -32.8960 C.ar      1 633        -0.0530
     28 C27        16.3570    0.4030  -33.2620 C.ar      1 633        -0.0530
     29 N29        18.5590   -0.6440  -32.7680 N.pl3     1 633        -0.3046
     30 C30        19.3740   -1.8980  -32.7630 C.3       1 633         0.0649
     31 C31        20.8670   -1.5690  -32.6530 C.3       1 633        -0.0123
     32 N32        21.1110   -0.7350  -31.4070 N.4       1 633         0.2358
     33 C33        20.2870    0.5350  -31.3980 C.3       1 633        -0.0123
     34 C34        18.8070    0.1720  -31.5230 C.3       1 633         0.0649
     35 C35        22.5710   -0.4000  -31.2780 C.3       1 633        -0.0430
     36 H1          6.7183   -3.9289  -33.8938 H         1 633         0.0881
     37 H2         16.2950   -5.9058  -33.9499 H         1 633         0.0555
     38 H3         16.0679   -6.6273  -25.2819 H         1 633         0.0254
     39 H4         16.1732   -5.1698  -26.3265 H         1 633         0.0254
     40 H5         17.4409   -6.4386  -26.4246 H         1 633         0.0254
     41 H6         14.5092   -3.0233  -33.0332 H         1 633         0.0506
     42 H7         14.4026    1.2483  -33.6687 H         1 633         0.0506
     43 H8          7.8284   -1.5779  -34.0162 H         1 633         0.2299
     44 H9          8.6526   -5.7165  -33.5112 H         1 633         0.0296
     45 H10        13.9529   -5.5598  -34.7669 H         1 633         0.0435
     46 H11        16.7325   -6.2681  -31.5104 H         1 633         0.0424
     47 H12        12.4796   -5.9527  -30.7013 H         1 633         0.0436
     48 H13        13.9011   -6.3286  -29.0022 H         1 633         0.2254
     49 H14        14.5003   -6.7760  -27.1706 H         1 633         0.0505
     50 H15        15.7681   -8.0448  -27.2686 H         1 633         0.0505
     51 H16        12.4591    0.0630  -33.7275 H         1 633         0.2126
     52 H17        16.9617   -2.9272  -32.6838 H         1 633         0.0489
     53 H18        16.8544    1.3633  -33.3364 H         1 633         0.0489
     54 H19        19.1932   -2.4507  -33.6967 H         1 633         0.0562
     55 H20        19.0764   -2.5195  -31.9056 H         1 633         0.0562
     56 H21        21.1842   -1.0028  -33.5411 H         1 633         0.0834
     57 H22        21.4445   -2.5029  -32.5880 H         1 633         0.0834
     58 H23        20.8407   -1.2866  -30.6078 H         1 633         0.2032
     59 H24        20.5828    1.1720  -32.2446 H         1 633         0.0834
     60 H25        20.4551    1.0765  -30.4554 H         1 633         0.0834
     61 H26        18.5034   -0.4127  -30.6421 H         1 633         0.0562
     62 H27        18.2120    1.0959  -31.5728 H         1 633         0.0562
     63 H28        23.1621   -1.3277  -31.2854 H         1 633         0.0778
     64 H29        22.7421    0.1362  -30.3329 H         1 633         0.0778
     65 H30        22.8771    0.2365  -32.1213 H         1 633         0.0778
@<TRIPOS>BOND
     1    2    1 ar 
     2   12    1 ar 
     3    1   15 1  
     4   13    2 ar 
     5    2   14 1  
     6   14    3 1  
     7    3   15 2  
     8   18    4 ar 
     9    4   19 ar 
    10    5   19 ar 
    11   20    5 ar 
    12    5   21 1  
    13   23    6 1  
    14   26    7 ar 
    15    7   27 ar 
    16   27    8 ar 
    17   28    8 ar 
    18    8   29 1  
    19   26    9 ar 
    20    9   28 ar 
    21   10   11 ar 
    22   10   13 ar 
    23   25   10 1  
    24   11   12 ar 
    25   12   16 1  
    26   16   17 1  
    27   17   18 ar 
    28   17   20 ar 
    29   21   22 am 
    30   22   23 1  
    31   22   24 2  
    32   25   26 1  
    33   29   30 1  
    34   29   34 1  
    35   30   31 1  
    36   31   32 1  
    37   32   33 1  
    38   32   35 1  
    39   33   34 1  
    40    3   36 1  
    41    4   37 1  
    42    6   38 1  
    43    6   39 1  
    44    6   40 1  
    45    7   41 1  
    46    9   42 1  
    47   14   43 1  
    48   15   44 1  
    49   18   45 1  
    50   19   46 1  
    51   20   47 1  
    52   21   48 1  
    53   23   49 1  
    54   23   50 1  
    55   25   51 1  
    56   27   52 1  
    57   28   53 1  
    58   30   54 1  
    59   30   55 1  
    60   31   56 1  
    61   31   57 1  
    62   32   58 1  
    63   33   59 1  
    64   33   60 1  
    65   34   61 1  
    66   34   62 1  
    67   35   63 1  
    68   35   64 1  
    69   35   65 1  
@<TRIPOS>SUBSTRUCTURE
     1 633         1

