### 
### Created by X-TOOL on Mon Sep 10 21:13:29 2018
### 

@<TRIPOS>MOLECULE
5hg7_ligand
   54    57     1     0     0
SMALL
GAST_HUCK


@<TRIPOS>ATOM
      1 N1        -13.6810   11.5550  -27.8850 N.pl3     1 630        -0.2687
      2 N3        -13.4740   13.9450  -27.9630 N.ar      1 630        -0.2441
      3 C4        -12.8400   15.1130  -28.3140 C.ar      1 630         0.1631
      4 C5        -11.6230   15.0340  -29.0390 C.ar      1 630         0.0569
      5 C6        -11.1860   13.7280  -29.3310 C.ar      1 630         0.1233
      6 C10       -10.6640   15.9170  -29.5860 C.2       1 630         0.0396
      7 C13       -14.2770   16.1870  -26.8040 C.3       1 630         0.0846
      8 C15       -14.0030   18.6760  -26.0820 C.3       1 630         0.0857
      9 C20       -14.0170   18.0840  -21.6780 C.3       1 630         0.0346
     10 C21       -14.0990   17.4500  -20.2950 C.3       1 630        -0.0482
     11 C24       -14.0640   21.0840  -26.2010 C.3       1 630         0.0369
     12 C26       -15.4350   10.2340  -26.8420 C.2       1 630         0.0651
     13 C2        -12.9710   12.7190  -28.2900 C.ar      1 630         0.1684
     14 N7        -11.8050   12.5510  -28.9910 N.ar      1 630        -0.2648
     15 N8        -10.0100   13.8300  -30.0290 N.pl3     1 630        -0.2703
     16 C9         -9.6830   15.1550  -30.1900 C.2       1 630         0.0344
     17 CL1       -10.7240   17.6150  -29.5020 Cl        1 630        -0.1052
     18 O12       -13.4080   16.3390  -27.9500 O.3       1 630        -0.2933
     19 C14       -14.9400   17.4960  -26.3730 C.3       1 630         0.0364
     20 C16       -13.6090   18.4330  -24.6150 C.3       1 630         0.0605
     21 N17       -14.7880   17.7720  -24.0240 N.am      1 630        -0.2703
     22 C18       -15.7080   17.3170  -25.0660 C.3       1 630         0.0418
     23 C19       -15.0700   17.5690  -22.6640 C.2       1 630         0.1783
     24 O22       -16.1050   17.0170  -22.2730 O.2       1 630        -0.3969
     25 O23       -14.8010   19.8690  -26.2200 O.3       1 630        -0.3773
     26 C25       -14.8460   11.4290  -27.1760 C.2       1 630         0.0735
     27 N27       -16.5610   10.5510  -26.1360 N.pl3     1 630        -0.2213
     28 N28       -16.7540   11.8660  -25.9850 N.2       1 630        -0.2232
     29 C29       -15.7100   12.3990  -26.6180 C.2       1 630         0.0213
     30 C30       -17.5160    9.6330  -25.5660 C.3       1 630         0.0557
     31 H1        -13.2500   10.6642  -28.1707 H         1 630         0.2055
     32 H2        -13.6819   15.8029  -25.9624 H         1 630         0.0632
     33 H3        -15.0652   15.4625  -27.0565 H         1 630         0.0632
     34 H4        -13.1259   18.7039  -26.7452 H         1 630         0.0620
     35 H5        -13.0210   17.8751  -22.0956 H         1 630         0.0500
     36 H6        -14.1482   19.1706  -21.5685 H         1 630         0.0500
     37 H7        -13.3131   17.8718  -19.6511 H         1 630         0.0254
     38 H8        -13.9579   16.3625  -20.3812 H         1 630         0.0254
     39 H9        -15.0851   17.6580  -19.8541 H         1 630         0.0254
     40 H10       -14.7543   21.9333  -26.3118 H         1 630         0.0524
     41 H11       -13.3418   21.0878  -27.0307 H         1 630         0.0524
     42 H12       -13.5256   21.1714  -25.2458 H         1 630         0.0524
     43 H13       -15.0770    9.2358  -27.0898 H         1 630         0.0822
     44 H14        -9.4565   13.0350  -30.3791 H         1 630         0.2305
     45 H15        -8.8029   15.5379  -30.7046 H         1 630         0.0895
     46 H16       -15.6340   17.7884  -27.1748 H         1 630         0.0373
     47 H17       -13.4000   19.3850  -24.1051 H         1 630         0.0548
     48 H18       -12.7250   17.7815  -24.5520 H         1 630         0.0548
     49 H19       -15.9726   16.2602  -24.9141 H         1 630         0.0527
     50 H20       -16.6230   17.9275  -25.0680 H         1 630         0.0527
     51 H21       -15.5396   13.4717  -26.6975 H         1 630         0.0633
     52 H22       -18.3113   10.1992  -25.0591 H         1 630         0.0596
     53 H23       -17.0094    8.9813  -24.8389 H         1 630         0.0596
     54 H24       -17.9559    9.0184  -26.3652 H         1 630         0.0596
@<TRIPOS>BOND
     1   13    1 1  
     2    1   26 1  
     3    3    2 ar 
     4    2   13 ar 
     5    3    4 ar 
     6   18    3 1  
     7    4    5 ar 
     8    4    6 1  
     9    5   14 ar 
    10    5   15 1  
    11    6   16 2  
    12    6   17 1  
    13    7   18 1  
    14   19    7 1  
    15   19    8 1  
    16   20    8 1  
    17    8   25 1  
    18    9   10 1  
    19   23    9 1  
    20   25   11 1  
    21   26   12 2  
    22   12   27 1  
    23   13   14 ar 
    24   16   15 1  
    25   22   19 1  
    26   21   20 1  
    27   21   22 1  
    28   21   23 am 
    29   23   24 2  
    30   26   29 1  
    31   27   28 1  
    32   27   30 1  
    33   28   29 2  
    34    1   31 1  
    35    7   32 1  
    36    7   33 1  
    37    8   34 1  
    38    9   35 1  
    39    9   36 1  
    40   10   37 1  
    41   10   38 1  
    42   10   39 1  
    43   11   40 1  
    44   11   41 1  
    45   11   42 1  
    46   12   43 1  
    47   15   44 1  
    48   16   45 1  
    49   19   46 1  
    50   20   47 1  
    51   20   48 1  
    52   22   49 1  
    53   22   50 1  
    54   29   51 1  
    55   30   52 1  
    56   30   53 1  
    57   30   54 1  
@<TRIPOS>SUBSTRUCTURE
     1 630         1

