### 
### Created by X-TOOL on Mon Sep 10 21:13:29 2018
### 

@<TRIPOS>MOLECULE
5hg8_ligand
   47    50     1     0     0
SMALL
GAST_HUCK


@<TRIPOS>ATOM
      1 C4         10.0960   -4.0180  -33.4800 C.ar      1 634         0.0472
      2 C5          9.8090   -2.6520  -33.6040 C.ar      1 634         0.1231
      3 C8          7.8790   -3.7760  -33.7380 C.2       1 634         0.0196
      4 C13        15.5470   -6.1060  -33.2670 C.ar      1 634        -0.0820
      5 C15        14.7310   -6.3610  -30.9380 C.ar      1 634         0.0588
      6 C20        15.6030   -6.9060  -27.3030 C.3       1 634         0.0403
      7 C21        16.4400   -6.2450  -26.2260 C.3       1 634        -0.0477
      8 C24        15.1300   -2.2770  -33.0210 C.2       1 634         0.0651
      9 C28        17.5680   -2.7080  -32.7070 C.3       1 634         0.0557
     10 C1         12.0020   -2.0080  -33.4030 C.ar      1 634         0.1691
     11 N2         12.3730   -3.3140  -33.2740 N.ar      1 634        -0.2406
     12 C3         11.4530   -4.3310  -33.3080 C.ar      1 634         0.1870
     13 N6         10.7000   -1.6130  -33.5760 N.ar      1 634        -0.2644
     14 N7          8.4590   -2.5300  -33.7590 N.pl3     1 634        -0.2717
     15 C9          8.8660   -4.7200  -33.5670 C.2       1 634        -0.0600
     16 O10        11.8560   -5.6580  -33.1710 O.3       1 634        -0.2381
     17 C11        13.1590   -5.8810  -32.7740 C.ar      1 634         0.1109
     18 C12        14.2250   -5.8710  -33.7200 C.ar      1 634        -0.0419
     19 C14        15.8060   -6.3510  -31.8870 C.ar      1 634        -0.0509
     20 C16        13.4090   -6.1240  -31.3960 C.ar      1 634        -0.0075
     21 N17        14.8620   -6.6050  -29.5420 N.am      1 634        -0.2361
     22 C18        15.9910   -6.5360  -28.7330 C.2       1 634         0.2031
     23 O19        17.1380   -6.2380  -29.0680 O.2       1 634        -0.3849
     24 N22        13.0060   -1.0070  -33.3570 N.pl3     1 634        -0.2686
     25 C23        14.3620   -1.1400  -33.1910 C.2       1 634         0.0734
     26 N25        16.4150   -1.8630  -32.9010 N.pl3     1 634        -0.2213
     27 N26        16.5570   -0.5300  -32.9780 N.2       1 634        -0.2232
     28 C27        15.3040   -0.0920  -33.1550 C.2       1 634         0.0213
     29 H1          6.8146   -3.9822  -33.8398 H         1 634         0.0878
     30 H2         16.3675   -6.0994  -33.9754 H         1 634         0.0555
     31 H3         14.5535   -6.6156  -27.1472 H         1 634         0.0505
     32 H4         15.7021   -7.9959  -27.1927 H         1 634         0.0505
     33 H5         16.0876   -6.5708  -25.2362 H         1 634         0.0254
     34 H6         16.3456   -5.1521  -26.3073 H         1 634         0.0254
     35 H7         17.4942   -6.5324  -26.3528 H         1 634         0.0254
     36 H8         14.7721   -3.3050  -32.9896 H         1 634         0.0822
     37 H9         18.4728   -2.0854  -32.6460 H         1 634         0.0596
     38 H10        17.6587   -3.4046  -33.5535 H         1 634         0.0596
     39 H11        17.4518   -3.2783  -31.7736 H         1 634         0.0596
     40 H12         7.9522   -1.6407  -33.8741 H         1 634         0.2298
     41 H13         8.7291   -5.7988  -33.5095 H         1 634         0.0295
     42 H14        14.0275   -5.6865  -34.7698 H         1 634         0.0435
     43 H15        16.8214   -6.5308  -31.5529 H         1 634         0.0424
     44 H16        12.5854   -6.1283  -30.6912 H         1 634         0.0436
     45 H17        14.0174   -6.8644  -29.0737 H         1 634         0.2254
     46 H18        12.6684   -0.0398  -33.4637 H         1 634         0.2054
     47 H19        15.0413    0.9596  -33.2598 H         1 634         0.0633
@<TRIPOS>BOND
     1    2    1 ar 
     2   12    1 ar 
     3    1   15 1  
     4   13    2 ar 
     5    2   14 1  
     6   14    3 1  
     7    3   15 2  
     8   18    4 ar 
     9    4   19 ar 
    10    5   19 ar 
    11   20    5 ar 
    12    5   21 1  
    13    6    7 1  
    14   22    6 1  
    15   25    8 2  
    16    8   26 1  
    17   26    9 1  
    18   10   11 ar 
    19   10   13 ar 
    20   24   10 1  
    21   11   12 ar 
    22   12   16 1  
    23   16   17 1  
    24   17   18 ar 
    25   17   20 ar 
    26   21   22 am 
    27   22   23 2  
    28   24   25 1  
    29   25   28 1  
    30   26   27 1  
    31   27   28 2  
    32    3   29 1  
    33    4   30 1  
    34    6   31 1  
    35    6   32 1  
    36    7   33 1  
    37    7   34 1  
    38    7   35 1  
    39    8   36 1  
    40    9   37 1  
    41    9   38 1  
    42    9   39 1  
    43   14   40 1  
    44   15   41 1  
    45   18   42 1  
    46   19   43 1  
    47   20   44 1  
    48   21   45 1  
    49   24   46 1  
    50   28   47 1  
@<TRIPOS>SUBSTRUCTURE
     1 634         1

