### 
### Created by X-TOOL on Mon Sep 10 21:13:28 2018
### 

@<TRIPOS>MOLECULE
5hg9_ligand
   53    56     1     0     0
SMALL
GAST_HUCK


@<TRIPOS>ATOM
      1 N3        -14.5170   18.1100  -24.0450 N.am      1 63A        -0.2723
      2 C4        -13.6970   19.2710  -24.4350 C.3       1 63A         0.0453
      3 C5        -13.8700   19.4200  -25.9610 C.3       1 63A         0.0818
      4 C6        -14.8150   20.5860  -26.3400 C.3       1 63A         0.3951
      5 C10       -14.7030   17.5670  -22.7610 C.2       1 63A         0.1782
      6 C20       -11.0860   14.2850  -29.5550 C.ar      1 63A         0.1223
      7 C21       -11.4680   15.6220  -29.3120 C.ar      1 63A         0.0431
      8 C22       -10.4870   16.4520  -29.9100 C.2       1 63A        -0.0605
      9 C26       -14.8050   12.2380  -27.2490 C.2       1 63A         0.0734
     10 C1        -14.4240   18.0570  -26.4260 C.3       1 63A         0.0212
     11 C2        -15.1760   17.5240  -25.2010 C.3       1 63A         0.0398
     12 F7        -14.9570   20.6710  -27.6840 F         1 63A        -0.1704
     13 F8        -16.0580   20.4580  -25.8190 F         1 63A        -0.1704
     14 F9        -14.3130   21.7730  -25.9240 F         1 63A        -0.1704
     15 C11       -13.9560   18.2630  -21.6200 C.3       1 63A         0.0346
     16 C12       -14.0060   17.5290  -20.2820 C.3       1 63A        -0.0482
     17 O13       -15.4270   16.5840  -22.5540 O.2       1 63A        -0.3969
     18 C14       -13.2710   17.1300  -26.8010 C.3       1 63A         0.0829
     19 O15       -13.1940   17.0100  -28.2400 O.3       1 63A        -0.2933
     20 C16       -12.6650   15.7720  -28.5740 C.ar      1 63A         0.1628
     21 N17       -13.3460   14.6540  -28.1580 N.ar      1 63A        -0.2441
     22 C18       -12.8950   13.3940  -28.4420 C.ar      1 63A         0.1683
     23 N19       -11.7460   13.1510  -29.1540 N.ar      1 63A        -0.2651
     24 C23        -9.5460   15.6190  -30.4960 C.2       1 63A         0.0194
     25 N24        -9.9240   14.3130  -30.2720 N.pl3     1 63A        -0.2720
     26 N25       -13.6440   12.2800  -27.9760 N.pl3     1 63A        -0.2687
     27 C27       -15.4320   11.0790  -26.8550 C.2       1 63A         0.0651
     28 N28       -16.5350   11.4700  -26.1550 N.pl3     1 63A        -0.2213
     29 N29       -16.6810   12.8020  -26.0620 N.2       1 63A        -0.2232
     30 C30       -15.6270   13.2700  -26.7290 C.2       1 63A         0.0213
     31 C31       -17.5150   10.6150  -25.5320 C.3       1 63A         0.0557
     32 H1        -12.6404   19.0938  -24.1856 H         1 63A         0.0528
     33 H2        -14.0483   20.1774  -23.9202 H         1 63A         0.0528
     34 H3        -12.8913   19.6036  -26.4284 H         1 63A         0.0412
     35 H4        -10.4746   17.5409  -29.9094 H         1 63A         0.0295
     36 H5        -15.1022   18.1751  -27.2840 H         1 63A         0.0353
     37 H6        -16.2317   17.8309  -25.2364 H         1 63A         0.0526
     38 H7        -15.1143   16.4265  -25.1615 H         1 63A         0.0526
     39 H8        -14.3976   19.2607  -21.4799 H         1 63A         0.0500
     40 H9        -12.9012   18.3669  -21.9143 H         1 63A         0.0500
     41 H10       -13.4452   18.1016  -19.5285 H         1 63A         0.0254
     42 H11       -13.5562   16.5314  -20.3940 H         1 63A         0.0254
     43 H12       -15.0525   17.4253  -19.9595 H         1 63A         0.0254
     44 H13       -13.4410   16.1370  -26.3594 H         1 63A         0.0632
     45 H14       -12.3275   17.5454  -26.4172 H         1 63A         0.0632
     46 H15        -8.6597   15.9418  -31.0402 H         1 63A         0.0876
     47 H16        -9.4079   13.4828  -30.5965 H         1 63A         0.2297
     48 H17       -13.2530   11.3598  -28.2234 H         1 63A         0.2055
     49 H18       -15.1129   10.0582  -27.0601 H         1 63A         0.0822
     50 H19       -15.4190   14.3308  -26.8607 H         1 63A         0.0633
     51 H20       -18.2836   11.2328  -25.0445 H         1 63A         0.0596
     52 H21       -17.0231    9.9807  -24.7799 H         1 63A         0.0596
     53 H22       -17.9859    9.9794  -26.2963 H         1 63A         0.0596
@<TRIPOS>BOND
     1    1    2 1  
     2    1    5 am 
     3   11    1 1  
     4    3    2 1  
     5    3    4 1  
     6   10    3 1  
     7    4   12 1  
     8    4   13 1  
     9    4   14 1  
    10    5   15 1  
    11    5   17 2  
    12    6    7 ar 
    13   23    6 ar 
    14    6   25 1  
    15    7    8 1  
    16   20    7 ar 
    17    8   24 2  
    18   26    9 1  
    19    9   27 2  
    20    9   30 1  
    21   10   11 1  
    22   18   10 1  
    23   15   16 1  
    24   19   18 1  
    25   20   19 1  
    26   21   20 ar 
    27   22   21 ar 
    28   22   23 ar 
    29   22   26 1  
    30   24   25 1  
    31   27   28 1  
    32   28   29 1  
    33   28   31 1  
    34   29   30 2  
    35    2   32 1  
    36    2   33 1  
    37    3   34 1  
    38    8   35 1  
    39   10   36 1  
    40   11   37 1  
    41   11   38 1  
    42   15   39 1  
    43   15   40 1  
    44   16   41 1  
    45   16   42 1  
    46   16   43 1  
    47   18   44 1  
    48   18   45 1  
    49   24   46 1  
    50   25   47 1  
    51   26   48 1  
    52   27   49 1  
    53   30   50 1  
    54   31   51 1  
    55   31   52 1  
    56   31   53 1  
@<TRIPOS>SUBSTRUCTURE
     1 63A         1

