### 
### Created by X-TOOL on Mon Sep 10 21:13:26 2018
### 

@<TRIPOS>MOLECULE
5hgc_ligand
   56    59     1     0     0
SMALL
GAST_HUCK


@<TRIPOS>ATOM
      1 C1         25.7830   58.1600   27.7680 C.3       1 HCY        -0.0610
      2 C2         25.1330   59.4320   27.2300 C.3       1 HCY         0.0243
      3 C3         24.3960   60.1910   28.3100 C.2       1 HCY         0.1764
      4 C4         24.6200   59.8800   29.7420 C.2       1 HCY         0.0476
      5 C5         25.7010   59.1800   30.1060 C.2       1 HCY        -0.0412
      6 C6         26.1800   59.2620   31.5390 C.3       1 HCY        -0.0169
      7 C7         26.4640   57.8450   32.0860 C.3       1 HCY        -0.0393
      8 C8         27.2150   56.8970   31.1440 C.3       1 HCY        -0.0395
      9 C9         26.5460   56.8940   29.7520 C.3       1 HCY        -0.0357
     10 C10        26.4700   58.3040   29.1240 C.3       1 HCY        -0.0355
     11 C12        27.2140   54.3560   29.4460 C.3       1 HCY        -0.0203
     12 C11        27.0300   55.7460   28.7980 C.3       1 HCY         0.0500
     13 C13        27.9360   54.4500   30.8240 C.3       1 HCY         0.0074
     14 C14        27.2010   55.4830   31.6810 C.3       1 HCY        -0.0316
     15 C15        27.6160   55.1770   33.1000 C.3       1 HCY        -0.0480
     16 C16        27.8080   53.6670   33.1520 C.3       1 HCY        -0.0179
     17 C17        27.7940   53.1680   31.6850 C.3       1 HCY         0.1362
     18 C18        29.4530   54.7800   30.7050 C.3       1 HCY        -0.0577
     19 C19        27.8310   59.0060   28.9240 C.3       1 HCY        -0.0889
     20 C20        28.8140   52.0760   31.4210 C.2       1 HCY         0.1839
     21 C21        28.5180   50.9710   30.4280 C.3       1 HCY         0.1213
     22 O1         23.6660   61.1070   27.9880 O.2       1 HCY        -0.3440
     23 O2         28.3020   56.2070   28.3320 O.3       1 HCY        -0.3925
     24 O3         26.5360   52.5060   31.4200 O.3       1 HCY        -0.3852
     25 O4         29.8890   52.0700   32.0010 O.2       1 HCY        -0.3272
     26 O5         29.7710   50.7680   29.7770 O.3       1 HCY        -0.3762
     27 H1         26.5364   57.8281   27.0385 H         1 HCY         0.0172
     28 H2         25.0011   57.3922   27.8627 H         1 HCY         0.0172
     29 H3         24.4200   59.1591   26.4381 H         1 HCY         0.0483
     30 H4         25.9159   60.0811   26.8108 H         1 HCY         0.0483
     31 H5         23.9088   60.2193   30.4937 H         1 HCY         0.1318
     32 H6         25.4047   59.7410   32.1549 H         1 HCY         0.0450
     33 H7         27.1025   59.8596   31.5806 H         1 HCY         0.0450
     34 H8         25.4980   57.3795   32.3314 H         1 HCY         0.0293
     35 H9         27.0628   57.9522   33.0025 H         1 HCY         0.0293
     36 H10        28.2561   57.2390   31.0489 H         1 HCY         0.0299
     37 H11        25.4963   56.6365   29.9564 H         1 HCY         0.0212
     38 H12        27.8133   53.7258   28.7725 H         1 HCY         0.0294
     39 H13        26.2247   53.8981   29.5931 H         1 HCY         0.0294
     40 H14        26.3213   55.6461   27.9627 H         1 HCY         0.0586
     41 H15        26.1355   55.2136   31.6352 H         1 HCY         0.0308
     42 H16        26.8319   55.4892   33.8055 H         1 HCY         0.0267
     43 H17        28.5563   55.6926   33.3451 H         1 HCY         0.0267
     44 H18        26.9898   53.1997   33.7196 H         1 HCY         0.0278
     45 H19        28.7698   53.4228   33.6267 H         1 HCY         0.0278
     46 H20        29.5842   55.6876   30.0976 H         1 HCY         0.0234
     47 H21        29.9747   53.9390   30.2249 H         1 HCY         0.0234
     48 H22        29.8718   54.9466   31.7084 H         1 HCY         0.0234
     49 H23        27.6699   59.9968   28.4741 H         1 HCY         0.0112
     50 H24        28.4622   58.3992   28.2582 H         1 HCY         0.0112
     51 H25        28.3302   59.1221   29.8973 H         1 HCY         0.0112
     52 H26        27.7469   51.2841   29.7088 H         1 HCY         0.0785
     53 H27        28.1893   50.0564   30.9431 H         1 HCY         0.0785
     54 H28        28.6443   55.5945   27.6915 H         1 HCY         0.2097
     55 H29        25.8225   53.1183   31.5559 H         1 HCY         0.2077
     56 H30        30.4228   50.5135   30.4195 H         1 HCY         0.2129
@<TRIPOS>BOND
     1    1    2 1  
     2    1   10 1  
     3    2    3 1  
     4    3    4 1  
     5    3   22 2  
     6    4    5 2  
     7    5    6 1  
     8    5   10 1  
     9    6    7 1  
    10    7    8 1  
    11    8    9 1  
    12    8   14 1  
    13    9   10 1  
    14    9   12 1  
    15   10   19 1  
    16   12   11 1  
    17   11   13 1  
    18   12   23 1  
    19   13   14 1  
    20   13   17 1  
    21   13   18 1  
    22   14   15 1  
    23   15   16 1  
    24   16   17 1  
    25   17   20 1  
    26   17   24 1  
    27   20   21 1  
    28   20   25 2  
    29   21   26 1  
    30    1   27 1  
    31    1   28 1  
    32    2   29 1  
    33    2   30 1  
    34    4   31 1  
    35    6   32 1  
    36    6   33 1  
    37    7   34 1  
    38    7   35 1  
    39    8   36 1  
    40    9   37 1  
    41   11   38 1  
    42   11   39 1  
    43   12   40 1  
    44   14   41 1  
    45   15   42 1  
    46   15   43 1  
    47   16   44 1  
    48   16   45 1  
    49   18   46 1  
    50   18   47 1  
    51   18   48 1  
    52   19   49 1  
    53   19   50 1  
    54   19   51 1  
    55   21   52 1  
    56   21   53 1  
    57   23   54 1  
    58   24   55 1  
    59   26   56 1  
@<TRIPOS>SUBSTRUCTURE
     1 HCY         1

