### 
### Created by X-TOOL on Mon Sep 10 21:13:30 2018
### 

@<TRIPOS>MOLECULE
5hgq_ligand
   41    43     1     0     0
SMALL
GAST_HUCK


@<TRIPOS>ATOM
      1 O4          7.5390  -25.1670  -20.9240 O.2       1 KRS        -0.3727
      2 C8          6.9980  -25.3270  -19.8350 C.2       1 KRS         0.2447
      3 C9          7.1760  -26.5870  -19.0660 C.ar      1 KRS         0.0804
      4 C5          6.6360  -26.7000  -17.7790 C.ar      1 KRS        -0.0346
      5 C4          6.8040  -27.8750  -17.0580 C.ar      1 KRS        -0.0364
      6 C3          7.5220  -28.9520  -17.6340 C.ar      1 KRS         0.0783
      7 O2          7.7030  -30.1730  -16.8980 O.3       1 KRS        -0.3340
      8 C2          8.0570  -28.8360  -18.9130 C.ar      1 KRS        -0.0057
      9 C1          7.8880  -27.6560  -19.6350 C.ar      1 KRS         0.0962
     10 O1          8.4090  -27.5450  -20.8780 O.3       1 KRS        -0.3317
     11 O3          6.2130  -24.3410  -19.2830 O.3       1 KRS        -0.2762
     12 C7          6.2100  -24.1770  -17.8950 C.3       1 KRS         0.0982
     13 C6          5.8390  -25.4750  -17.1620 C.3       1 KRS         0.0108
     14 C10         5.2040  -23.0980  -17.5410 C.3       1 KRS         0.0060
     15 C11         5.7080  -21.7790  -18.1020 C.3       1 KRS         0.0619
     16 O5          6.9350  -21.4160  -17.4230 O.3       1 KRS        -0.3735
     17 C12         6.7340  -21.0090  -16.0540 C.3       1 KRS         0.0563
     18 C16         8.0320  -20.4810  -15.5040 C.3       1 KRS        -0.0387
     19 C13         5.6960  -19.9440  -15.9350 C.3       1 KRS        -0.0268
     20 C14         4.4450  -20.3470  -16.5730 C.3       1 KRS        -0.0484
     21 C15         4.6260  -20.7550  -17.9360 C.3       1 KRS        -0.0264
     22 H1          6.3885  -27.9675  -16.0611 H         1 KRS         0.0406
     23 H2          6.8540  -30.5468  -16.6932 H         1 KRS         0.2497
     24 H3          8.6054  -29.6636  -19.3481 H         1 KRS         0.0422
     25 H4          8.2064  -26.6860  -21.2295 H         1 KRS         0.2506
     26 H5          7.2132  -23.8628  -17.5713 H         1 KRS         0.0672
     27 H6          6.0933  -25.3758  -16.0964 H         1 KRS         0.0466
     28 H7          4.7588  -25.6549  -17.2660 H         1 KRS         0.0466
     29 H8          5.1053  -23.0246  -16.4479 H         1 KRS         0.0320
     30 H9          4.2260  -23.3411  -17.9820 H         1 KRS         0.0320
     31 H10         5.9226  -21.8946  -19.1746 H         1 KRS         0.0597
     32 H11         6.4157  -21.8832  -15.4671 H         1 KRS         0.0593
     33 H12         7.8873  -20.1681  -14.4594 H         1 KRS         0.0254
     34 H13         8.3603  -19.6187  -16.1029 H         1 KRS         0.0254
     35 H14         8.7969  -21.2703  -15.5477 H         1 KRS         0.0254
     36 H15         6.0657  -19.0279  -16.4187 H         1 KRS         0.0290
     37 H16         5.5070  -19.7456  -14.8697 H         1 KRS         0.0290
     38 H17         3.7480  -19.4964  -16.5498 H         1 KRS         0.0267
     39 H18         4.0165  -21.1878  -16.0078 H         1 KRS         0.0267
     40 H19         3.6806  -21.1813  -18.3027 H         1 KRS         0.0290
     41 H20         4.8860  -19.8699  -18.5352 H         1 KRS         0.0290
@<TRIPOS>BOND
     1    1    2 2  
     2    2    3 1  
     3    2   11 1  
     4    3    4 ar 
     5    3    9 ar 
     6    4    5 ar 
     7    4   13 1  
     8    5    6 ar 
     9    6    7 1  
    10    6    8 ar 
    11    8    9 ar 
    12    9   10 1  
    13   11   12 1  
    14   12   13 1  
    15   12   14 1  
    16   14   15 1  
    17   15   16 1  
    18   15   21 1  
    19   16   17 1  
    20   17   18 1  
    21   17   19 1  
    22   19   20 1  
    23   20   21 1  
    24    5   22 1  
    25    7   23 1  
    26    8   24 1  
    27   10   25 1  
    28   12   26 1  
    29   13   27 1  
    30   13   28 1  
    31   14   29 1  
    32   14   30 1  
    33   15   31 1  
    34   17   32 1  
    35   18   33 1  
    36   18   34 1  
    37   18   35 1  
    38   19   36 1  
    39   19   37 1  
    40   20   38 1  
    41   20   39 1  
    42   21   40 1  
    43   21   41 1  
@<TRIPOS>SUBSTRUCTURE
     1 KRS         1

