### 
### Created by X-TOOL on Mon Sep 10 21:13:28 2018
### 

@<TRIPOS>MOLECULE
5hi7_ligand
   66    68     1     0     0
SMALL
GAST_HUCK


@<TRIPOS>ATOM
      1 C4         12.9090  -10.5470  -17.4610 C.3       1 62X        -0.0275
      2 C5         12.9290  -11.2320  -18.8120 C.3       1 62X         0.0277
      3 C6         12.3560  -12.6530  -18.8520 C.3       1 62X        -0.0269
      4 C8         11.4290  -12.7630  -21.1410 C.3       1 62X        -0.0250
      5 C10        10.4710  -15.0440  -21.9110 C.3       1 62X         0.0332
      6 C15        13.7910  -13.3490  -20.7230 C.3       1 62X        -0.0023
      7 C21        15.6330  -14.6380  -21.8720 C.3       1 62X         0.1174
      8 C24        14.3870  -12.4000  -24.4340 C.2       1 62X         0.1123
      9 C26        15.3380  -12.3660  -26.3470 C.ar      1 62X         0.1045
     10 C1         13.1780   -8.6950  -16.0010 C.3       1 62X        -0.0433
     11 N2         13.0390   -9.1090  -17.4010 N.4       1 62X         0.2310
     12 C3         14.2220   -8.6680  -18.1620 C.3       1 62X        -0.0433
     13 N7         12.4160  -13.2740  -20.1610 N.4       1 62X         0.2375
     14 C9         10.2100  -13.6070  -21.4340 C.3       1 62X         0.0425
     15 N11        10.3790  -15.0990  -23.3250 N.4       1 62X         0.2328
     16 C12         9.4540  -16.0150  -21.2940 C.2       1 62X         0.0846
     17 O13         8.9090  -16.8920  -22.0190 O.co2     1 62X        -0.5643
     18 O14         9.1640  -15.9490  -20.0610 O.co2     1 62X        -0.5643
     19 C16        14.1350  -14.5550  -21.5970 C.3       1 62X         0.1300
     20 O17        13.4910  -14.4540  -22.8580 O.3       1 62X        -0.3338
     21 C18        14.3720  -14.8600  -23.8920 C.3       1 62X         0.2011
     22 C19        15.6460  -15.3690  -23.2150 C.3       1 62X         0.1386
     23 O20        15.5550  -16.7540  -23.0170 O.3       1 62X        -0.3836
     24 O22        16.2870  -15.3790  -20.8670 O.3       1 62X        -0.3863
     25 N23        14.6660  -13.7120  -24.7160 N.pl3     1 62X        -0.1919
     26 N25        14.7760  -11.5480  -25.3930 N.2       1 62X        -0.2958
     27 C27        15.9410  -12.1070  -27.6130 C.ar      1 62X         0.1298
     28 N28        16.0390  -10.8570  -28.0740 N.pl3     1 62X        -0.3152
     29 N29        16.4080  -13.1600  -28.3250 N.ar      1 62X        -0.2698
     30 C30        16.2840  -14.4060  -27.8140 C.ar      1 62X         0.0533
     31 N31        15.7420  -14.7810  -26.6480 N.ar      1 62X        -0.2714
     32 C32        15.2800  -13.7000  -25.9500 C.ar      1 62X         0.1613
     33 H1         13.7370  -10.9699  -16.8732 H         1 62X         0.0816
     34 H2         11.9518  -10.8039  -16.9838 H         1 62X         0.0816
     35 H3         13.9748  -11.2810  -19.1493 H         1 62X         0.0369
     36 H4         12.3467  -10.6143  -19.5115 H         1 62X         0.0369
     37 H5         11.3030  -12.6109  -18.5366 H         1 62X         0.0816
     38 H6         12.9254  -13.2761  -18.1467 H         1 62X         0.0816
     39 H7         11.9605  -12.6164  -22.0929 H         1 62X         0.0817
     40 H8         11.0712  -11.7922  -20.7675 H         1 62X         0.0817
     41 H9         11.4834  -15.3439  -21.6028 H         1 62X         0.1026
     42 H10        14.4930  -13.3458  -19.8762 H         1 62X         0.0841
     43 H11        13.9470  -12.4464  -21.3321 H         1 62X         0.0841
     44 H12        16.0887  -13.6400  -21.9509 H         1 62X         0.0649
     45 H13        13.8953  -12.0797  -23.5166 H         1 62X         0.1349
     46 H14        13.2773   -7.6007  -15.9504 H         1 62X         0.0777
     47 H15        14.0728   -9.1648  -15.5668 H         1 62X         0.0777
     48 H16        12.2881   -9.0089  -15.4357 H         1 62X         0.0777
     49 H17        12.2143   -8.6845  -17.7956 H         1 62X         0.2028
     50 H18        14.1188   -8.9780  -19.2123 H         1 62X         0.0777
     51 H19        15.1257   -9.1246  -17.7321 H         1 62X         0.0777
     52 H20        14.3042   -7.5723  -18.1095 H         1 62X         0.0777
     53 H21        12.1466  -14.2319  -20.0000 H         1 62X         0.2034
     54 H22         9.6291  -13.0955  -22.2157 H         1 62X         0.0391
     55 H23         9.6132  -13.6640  -20.5118 H         1 62X         0.0391
     56 H24        10.5504  -16.0422  -23.6364 H         1 62X         0.2010
     57 H25        11.0647  -14.4814  -23.7306 H         1 62X         0.2010
     58 H26         9.4565  -14.8125  -23.6131 H         1 62X         0.2010
     59 H27        13.8046  -15.4701  -21.0838 H         1 62X         0.0678
     60 H28        13.9182  -15.6555  -24.5012 H         1 62X         0.0996
     61 H29        16.5447  -15.1257  -23.8008 H         1 62X         0.0676
     62 H30        16.3479  -17.0654  -22.5966 H         1 62X         0.2101
     63 H31        17.1912  -15.5240  -21.1198 H         1 62X         0.2100
     64 H32        16.4760  -10.6785  -28.9895 H         1 62X         0.1820
     65 H33        15.6776  -10.0717  -27.5140 H         1 62X         0.1820
     66 H34        16.6752  -15.2077  -28.4299 H         1 62X         0.0996
@<TRIPOS>BOND
     1    2    1 1  
     2    1   11 1  
     3    3    2 1  
     4   13    3 1  
     5   13    4 1  
     6    4   14 1  
     7   14    5 1  
     8    5   15 1  
     9    5   16 1  
    10    6   13 1  
    11   19    6 1  
    12    7   19 1  
    13   22    7 1  
    14    7   24 1  
    15   25    8 1  
    16    8   26 2  
    17   26    9 1  
    18    9   27 ar 
    19    9   32 ar 
    20   11   10 1  
    21   11   12 1  
    22   16   17 ar 
    23   16   18 ar 
    24   20   19 1  
    25   21   20 1  
    26   21   22 1  
    27   21   25 1  
    28   22   23 1  
    29   25   32 1  
    30   27   28 1  
    31   27   29 ar 
    32   29   30 ar 
    33   30   31 ar 
    34   31   32 ar 
    35    1   33 1  
    36    1   34 1  
    37    2   35 1  
    38    2   36 1  
    39    3   37 1  
    40    3   38 1  
    41    4   39 1  
    42    4   40 1  
    43    5   41 1  
    44    6   42 1  
    45    6   43 1  
    46    7   44 1  
    47    8   45 1  
    48   10   46 1  
    49   10   47 1  
    50   10   48 1  
    51   11   49 1  
    52   12   50 1  
    53   12   51 1  
    54   12   52 1  
    55   13   53 1  
    56   14   54 1  
    57   14   55 1  
    58   15   56 1  
    59   15   57 1  
    60   15   58 1  
    61   19   59 1  
    62   21   60 1  
    63   22   61 1  
    64   23   62 1  
    65   24   63 1  
    66   28   64 1  
    67   28   65 1  
    68   30   66 1  
@<TRIPOS>SUBSTRUCTURE
     1 62X         1

