### 
### Created by X-TOOL on Mon Sep 10 21:13:26 2018
### 

@<TRIPOS>MOLECULE
5hip_ligand
   23    24     1     0     0
SMALL
GAST_HUCK


@<TRIPOS>ATOM
      1 C10       -17.7570    2.4830   -9.2070 C.ar      1 61O         0.0120
      2 C13       -18.7610    1.6940   -6.7160 C.ar      1 61O         0.0112
      3 C15       -19.0180    1.9100   -9.0510 C.ar      1 61O         0.0194
      4 C01       -16.1700    4.5840  -11.8190 C.ar      1 61O        -0.0578
      5 C02       -16.6750    4.1370  -10.6000 C.ar      1 61O        -0.0490
      6 C03       -17.2730    2.8920  -10.4720 C.ar      1 61O         0.0030
      7 C04       -17.3650    2.1040  -11.6400 C.ar      1 61O         0.0190
      8 C05       -16.8750    2.5670  -12.8540 C.ar      1 61O        -0.0464
      9 C06       -16.2610    3.8020  -12.9640 C.ar      1 61O        -0.0575
     10 C07       -17.9400    0.7040  -11.5820 C.2       1 61O         0.0636
     11 O08       -18.8140    0.2510  -12.3860 O.co2     1 61O        -0.5607
     12 O09       -17.4530   -0.0430  -10.6480 O.co2     1 61O        -0.5607
     13 C11       -17.0190    2.6840   -8.0250 C.ar      1 61O        -0.0343
     14 C12       -17.5100    2.2800   -6.7940 C.ar      1 61O        -0.0334
     15 N14       -19.4930    1.5300   -7.8450 N.ar      1 61O        -0.2959
     16 H1        -19.1528    1.3685   -5.7591 H         1 61O         0.0822
     17 H2        -19.6388    1.7643   -9.9276 H         1 61O         0.0835
     18 H3        -15.6981    5.5583  -11.8752 H         1 61O         0.0640
     19 H4        -16.5987    4.7784   -9.7295 H         1 61O         0.0638
     20 H5        -16.9760    1.9459  -13.7367 H         1 61O         0.0654
     21 H6        -15.8642    4.1479  -13.9116 H         1 61O         0.0630
     22 H7        -16.0485    3.1638   -8.0790 H         1 61O         0.0744
     23 H8        -16.9176    2.4222   -5.8974 H         1 61O         0.0710
@<TRIPOS>BOND
     1    1    3 ar 
     2    6    1 1  
     3    1   13 ar 
     4    2   14 ar 
     5   15    2 ar 
     6    3   15 ar 
     7    5    4 ar 
     8    4    9 ar 
     9    5    6 ar 
    10    6    7 ar 
    11    7    8 ar 
    12    7   10 1  
    13    8    9 ar 
    14   10   11 ar 
    15   10   12 ar 
    16   13   14 ar 
    17    2   16 1  
    18    3   17 1  
    19    4   18 1  
    20    5   19 1  
    21    8   20 1  
    22    9   21 1  
    23   13   22 1  
    24   14   23 1  
@<TRIPOS>SUBSTRUCTURE
     1 61O         1

