### 
### Created by X-TOOL on Mon Sep 10 21:13:26 2018
### 

@<TRIPOS>MOLECULE
5his_ligand
   14    14     1     0     0
SMALL
GAST_HUCK


@<TRIPOS>ATOM
      1 S01       -16.2880    3.2910  -11.5040 S.3       1 60P        -0.0442
      2 C02       -17.1630    2.1650  -12.4470 C.2       1 60P         0.0547
      3 C03       -17.1700    2.6590  -13.7470 C.2       1 60P        -0.0483
      4 C04       -16.5130    3.8750  -13.9370 C.2       1 60P        -0.0656
      5 C05       -15.9310    4.3700  -12.7930 C.2       1 60P        -0.0053
      6 C06       -17.8460    1.9700  -14.8800 C.3       1 60P        -0.0396
      7 C07       -17.7420    0.9020  -11.8780 C.2       1 60P         0.0573
      8 O08       -18.5530    0.1880  -12.5470 O.co2     1 60P        -0.5679
      9 O09       -17.3610    0.5210  -10.7280 O.co2     1 60P        -0.5679
     10 H1        -16.4654    4.3836  -14.8988 H         1 60P         0.0413
     11 H2        -15.3463    5.2856  -12.7174 H         1 60P         0.0770
     12 H3        -18.2997    1.0341  -14.5218 H         1 60P         0.0362
     13 H4        -17.1084    1.7433  -15.6639 H         1 60P         0.0362
     14 H5        -18.6295    2.6233  -15.2915 H         1 60P         0.0362
@<TRIPOS>BOND
     1    1    2 1  
     2    1    5 1  
     3    2    3 2  
     4    2    7 1  
     5    3    4 1  
     6    3    6 1  
     7    4    5 2  
     8    7    8 ar 
     9    7    9 ar 
    10    4   10 1  
    11    5   11 1  
    12    6   12 1  
    13    6   13 1  
    14    6   14 1  
@<TRIPOS>SUBSTRUCTURE
     1 60P         1

