### 
### Created by X-TOOL on Mon Sep 10 21:13:28 2018
### 

@<TRIPOS>MOLECULE
5hk1_ligand
   46    48     1     0     0
SMALL
GAST_HUCK


@<TRIPOS>ATOM
      1 C10        10.8800   36.4230  -35.0580 C.2       1 61W         0.1457
      2 C11        11.9010   37.1060  -34.3870 C.2       1 61W        -0.0280
      3 C12        12.3370   36.3390  -33.2030 C.2       1 61W         0.0380
      4 C15        13.4280   36.7040  -32.1830 C.ar      1 61W        -0.0214
      5 C16        14.0870   37.9530  -32.1170 C.ar      1 61W        -0.0610
      6 C17        15.0930   38.2640  -31.1700 C.ar      1 61W        -0.0601
      7 C18        15.5410   37.3510  -30.1990 C.ar      1 61W        -0.0459
      8 C19        14.8970   36.1000  -30.2530 C.ar      1 61W        -0.0601
      9 C20        13.8920   35.7960  -31.2020 C.ar      1 61W        -0.0610
     10 C21        16.6200   37.6910  -29.1870 C.3       1 61W        -0.0310
     11 C01         9.0760   40.7510  -40.8170 C.3       1 61W        -0.0605
     12 C02         9.9650   39.7690  -40.0900 C.3       1 61W        -0.0153
     13 C03         9.3380   39.4710  -38.7450 C.3       1 61W        -0.0320
     14 N04         9.9350   38.1870  -38.2340 N.4       1 61W         0.2372
     15 C05         9.0970   37.2400  -38.9840 C.3       1 61W        -0.0315
     16 C06         9.5990   35.8840  -38.6090 C.3       1 61W        -0.0099
     17 C07         9.7780   35.6240  -37.1750 C.3       1 61W        -0.0259
     18 C08        10.0820   36.6650  -36.2390 C.3       1 61W         0.0725
     19 C09         9.7360   38.0120  -36.7730 C.3       1 61W        -0.0146
     20 N13        11.5510   35.2250  -33.2210 N.2       1 61W        -0.1556
     21 O14        10.7110   35.2650  -34.2830 O.3       1 61W        -0.1686
     22 H1         12.3145   38.0655  -34.6941 H         1 61W         0.0284
     23 H2         13.8060   38.7170  -32.8328 H         1 61W         0.0601
     24 H3         15.5384   39.2520  -31.1949 H         1 61W         0.0558
     25 H4         15.1830   35.3376  -29.5375 H         1 61W         0.0558
     26 H5         13.4504   34.8064  -31.1757 H         1 61W         0.0601
     27 H6         16.9633   38.7233  -29.3499 H         1 61W         0.0392
     28 H7         17.4670   36.9996  -29.3077 H         1 61W         0.0392
     29 H8         16.2117   37.5967  -28.1700 H         1 61W         0.0392
     30 H9          9.5127   40.9830  -41.7996 H         1 61W         0.0232
     31 H10         8.9905   41.6750  -40.2264 H         1 61W         0.0232
     32 H11         8.0778   40.3098  -40.9544 H         1 61W         0.0232
     33 H12        10.9641   40.2064  -39.9466 H         1 61W         0.0314
     34 H13        10.0513   38.8412  -40.6745 H         1 61W         0.0314
     35 H14         8.2493   39.3594  -38.8560 H         1 61W         0.0814
     36 H15         9.5530   40.2894  -38.0422 H         1 61W         0.0814
     37 H16        10.9137   38.1040  -38.4604 H         1 61W         0.2035
     38 H17         9.2044   37.4045  -40.0663 H         1 61W         0.0814
     39 H18         8.0404   37.3517  -38.6991 H         1 61W         0.0814
     40 H19        10.5738   35.7416  -39.0984 H         1 61W         0.0319
     41 H20         8.8829   35.1440  -38.9957 H         1 61W         0.0319
     42 H21        10.5962   34.8930  -37.0962 H         1 61W         0.0298
     43 H22         8.8409   35.1644  -36.8279 H         1 61W         0.0298
     44 H23         9.1422   36.5590  -35.6773 H         1 61W         0.0573
     45 H24         8.6763   38.2040  -36.5492 H         1 61W         0.0845
     46 H25        10.3607   38.7538  -36.2539 H         1 61W         0.0845
@<TRIPOS>BOND
     1    1    2 2  
     2   18    1 1  
     3    1   21 1  
     4    2    3 1  
     5    3    4 1  
     6    3   20 2  
     7    4    5 ar 
     8    4    9 ar 
     9    5    6 ar 
    10    6    7 ar 
    11    8    7 ar 
    12    7   10 1  
    13    9    8 ar 
    14   12   11 1  
    15   13   12 1  
    16   14   13 1  
    17   15   14 1  
    18   14   19 1  
    19   16   15 1  
    20   17   16 1  
    21   17   18 1  
    22   18   19 1  
    23   20   21 1  
    24    2   22 1  
    25    5   23 1  
    26    6   24 1  
    27    8   25 1  
    28    9   26 1  
    29   10   27 1  
    30   10   28 1  
    31   10   29 1  
    32   11   30 1  
    33   11   31 1  
    34   11   32 1  
    35   12   33 1  
    36   12   34 1  
    37   13   35 1  
    38   13   36 1  
    39   14   37 1  
    40   15   38 1  
    41   15   39 1  
    42   16   40 1  
    43   16   41 1  
    44   17   42 1  
    45   17   43 1  
    46   18   44 1  
    47   19   45 1  
    48   19   46 1  
@<TRIPOS>SUBSTRUCTURE
     1 61W         1

