### 
### Created by X-TOOL on Mon Sep 10 21:13:29 2018
### 

@<TRIPOS>MOLECULE
5hk2_ligand
   45    47     1     0     0
SMALL
GAST_HUCK


@<TRIPOS>ATOM
      1 CAA        -8.2780   22.5740  -25.5590 C.3       1 61V         0.0107
      2 CAB        -7.9980   21.1930  -26.1260 C.3       1 61V        -0.0284
      3 CAD        -9.7960   21.7310  -27.6940 C.3       1 61V        -0.0284
      4 CAE       -10.5360   21.8110  -26.3900 C.3       1 61V         0.0107
      5 CAF        -9.7960   22.8040  -25.4910 C.3       1 61V         0.0512
      6 CAH       -11.5200   23.1650  -23.8100 C.2       1 61V         0.2069
      7 CAJ       -11.9520   22.9510  -22.5100 C.ar      1 61V         0.0523
      8 CAK       -13.2460   23.3270  -22.1750 C.ar      1 61V        -0.0391
      9 CAL       -13.7220   23.1260  -20.8880 C.ar      1 61V        -0.0453
     10 CAM       -12.8990   22.5460  -19.9350 C.ar      1 61V         0.0137
     11 CAN       -11.6030   22.1650  -20.2670 C.ar      1 61V        -0.0453
     12 CAO       -11.1250   22.3660  -21.5580 C.ar      1 61V        -0.0391
     13 CAQ        -7.5860   21.6450  -28.4990 C.3       1 61V         0.0020
     14 CAR        -6.4030   20.9300  -28.5810 C.ar      1 61V         0.0014
     15 CAS        -6.4220   19.5860  -28.9300 C.ar      1 61V        -0.0553
     16 CAT        -5.2330   18.8720  -29.0110 C.ar      1 61V        -0.0684
     17 CAU        -4.0280   19.5080  -28.7430 C.ar      1 61V        -0.0687
     18 CAV        -4.0170   20.8520  -28.3950 C.ar      1 61V        -0.0684
     19 CAW        -5.2010   21.5680  -28.3140 C.ar      1 61V        -0.0553
     20 NAC        -8.5010   21.0550  -27.5120 N.4       1 61V         0.2473
     21 NAG       -10.3200   22.6550  -24.1270 N.am      1 61V        -0.2824
     22 OAI       -12.2320   23.7810  -24.6030 O.2       1 61V        -0.3836
     23 IAP       -13.6280   22.2510  -18.0020 I         1 61V        -0.0459
     24 H1         -7.8208   23.3358  -26.2075 H         1 61V         0.0339
     25 H2         -7.8506   22.6485  -24.5482 H         1 61V         0.0339
     26 H3         -8.4907   20.4412  -25.4920 H         1 61V         0.0815
     27 H4         -6.9117   21.0203  -26.1227 H         1 61V         0.0815
     28 H5         -9.6227   22.7483  -28.0748 H         1 61V         0.0815
     29 H6        -10.4003   21.1661  -28.4190 H         1 61V         0.0815
     30 H7        -10.5603   20.8204  -25.9124 H         1 61V         0.0339
     31 H8        -11.5647   22.1593  -26.5645 H         1 61V         0.0339
     32 H9        -10.0038   23.8265  -25.8392 H         1 61V         0.0559
     33 H10       -13.8870   23.7797  -22.9228 H         1 61V         0.0675
     34 H11       -14.7323   23.4209  -20.6286 H         1 61V         0.0657
     35 H12       -10.9642   21.7106  -19.5183 H         1 61V         0.0657
     36 H13       -10.1158   22.0688  -21.8194 H         1 61V         0.0675
     37 H14        -8.0739   21.6441  -29.4848 H         1 61V         0.0980
     38 H15        -7.3591   22.6798  -28.2030 H         1 61V         0.0980
     39 H16        -7.3649   19.0938  -29.1393 H         1 61V         0.0558
     40 H17        -5.2459   17.8226  -29.2823 H         1 61V         0.0599
     41 H18        -3.0972   18.9559  -28.8054 H         1 61V         0.0559
     42 H19        -3.0749   21.3453  -28.1850 H         1 61V         0.0599
     43 H20        -5.1875   22.6178  -28.0442 H         1 61V         0.0558
     44 H21        -8.6092   20.0723  -27.7083 H         1 61V         0.2048
     45 H22        -9.7825   22.1735  -23.4347 H         1 61V         0.1849
@<TRIPOS>BOND
     1    2    1 1  
     2    1    5 1  
     3   20    2 1  
     4    3    4 1  
     5   20    3 1  
     6    4    5 1  
     7    5   21 1  
     8    6    7 1  
     9   21    6 am 
    10    6   22 2  
    11    7    8 ar 
    12    7   12 ar 
    13    8    9 ar 
    14    9   10 ar 
    15   11   10 ar 
    16   10   23 1  
    17   12   11 ar 
    18   13   14 1  
    19   13   20 1  
    20   14   15 ar 
    21   14   19 ar 
    22   15   16 ar 
    23   16   17 ar 
    24   17   18 ar 
    25   18   19 ar 
    26    1   24 1  
    27    1   25 1  
    28    2   26 1  
    29    2   27 1  
    30    3   28 1  
    31    3   29 1  
    32    4   30 1  
    33    4   31 1  
    34    5   32 1  
    35    8   33 1  
    36    9   34 1  
    37   11   35 1  
    38   12   36 1  
    39   13   37 1  
    40   13   38 1  
    41   15   39 1  
    42   16   40 1  
    43   17   41 1  
    44   18   42 1  
    45   19   43 1  
    46   20   44 1  
    47   21   45 1  
@<TRIPOS>SUBSTRUCTURE
     1 61V         1

