### 
### Created by X-TOOL on Mon Sep 10 21:13:27 2018
### 

@<TRIPOS>MOLECULE
5hk9_ligand
   50    52     1     0     0
SMALL
GAST_HUCK


@<TRIPOS>ATOM
      1 O4        -24.3070   21.2140   25.0080 O.2       1 64O        -0.3902
      2 N3        -24.1860   18.9680   24.7150 N.am      1 64O        -0.2815
      3 C15       -21.9930   22.0080   29.5240 C.ar      1 64O        -0.0691
      4 C16       -22.4540   20.9800   28.7140 C.ar      1 64O        -0.0409
      5 C14       -21.5750   23.2120   28.9730 C.ar      1 64O        -0.0379
      6 C13       -21.7140   25.5350   30.0590 C.ar      1 64O        -0.0328
      7 C12       -21.0490   24.3230   29.8370 C.ar      1 64O        -0.0047
      8 N2        -22.9640   20.0580   26.5300 N.am      1 64O        -0.2192
      9 C4        -22.9190   29.3550   34.7910 C.ar      1 64O         0.0573
     10 C5        -22.7420   30.1220   33.6520 C.ar      1 64O        -0.0341
     11 O1        -25.4610   29.0880   35.8570 O.2       1 64O        -0.3863
     12 N1        -23.3050   29.8860   36.0720 N.am      1 64O        -0.2398
     13 C6        -22.3770   29.5350   32.4440 C.ar      1 64O         0.0604
     14 C3        -24.6520   29.6890   36.5440 C.2       1 64O         0.2006
     15 C2        -25.0670   30.2110   37.8780 C.3       1 64O         0.0398
     16 C1        -25.4870   29.1970   38.8900 C.3       1 64O        -0.0478
     17 C7        -22.1760   28.1640   32.3510 C.ar      1 64O         0.1270
     18 O3        -19.1250   22.9320   30.2120 O.3       1 64O        -0.3387
     19 O2        -21.8440   27.7120   31.0670 O.3       1 64O        -0.2731
     20 C8        -21.1610   26.5250   30.8780 C.ar      1 64O         0.1003
     21 C11       -19.8120   24.1170   30.4160 C.ar      1 64O         0.0838
     22 C19       -22.0570   22.3420   26.7850 C.ar      1 64O        -0.0409
     23 C9        -19.9190   26.3190   31.4510 C.ar      1 64O        -0.0388
     24 C18       -23.8430   20.1600   25.4040 C.2       1 64O         0.2854
     25 C10       -19.2740   25.1140   31.2120 C.ar      1 64O        -0.0411
     26 C17       -22.4960   21.1430   27.3390 C.ar      1 64O         0.0674
     27 CL2       -22.2020   25.6710   33.6690 Cl        1 64O        -0.0814
     28 C21       -22.3730   27.3870   33.5160 C.ar      1 64O         0.0604
     29 C22       -22.7340   28.0020   34.6950 C.ar      1 64O        -0.0341
     30 CL1       -22.1310   30.4790   31.0070 Cl        1 64O        -0.0814
     31 C20       -21.5990   23.3660   27.5950 C.ar      1 64O        -0.0691
     32 H1        -23.8178   18.0900   25.0209 H         1 64O         0.1816
     33 H2        -24.7960   19.0059   23.9235 H         1 64O         0.1816
     34 H3        -21.9588   21.8696   30.5986 H         1 64O         0.0574
     35 H4        -22.7820   20.0472   29.1582 H         1 64O         0.0505
     36 H5        -22.6745   25.7092   29.5878 H         1 64O         0.0504
     37 H6        -22.6468   19.1417   26.7747 H         1 64O         0.2265
     38 H7        -22.8898   31.1947   33.7018 H         1 64O         0.0487
     39 H8        -22.6437   30.3875   36.6298 H         1 64O         0.2222
     40 H9        -25.9133   30.8957   37.7202 H         1 64O         0.0504
     41 H10       -24.2170   30.7692   38.2974 H         1 64O         0.0504
     42 H11       -25.7670   29.7056   39.8243 H         1 64O         0.0254
     43 H12       -24.6536   28.5059   39.0843 H         1 64O         0.0254
     44 H13       -26.3499   28.6324   38.5071 H         1 64O         0.0254
     45 H14       -18.2991   22.9614   30.6805 H         1 64O         0.2455
     46 H15       -22.0741   22.4748   25.7093 H         1 64O         0.0505
     47 H16       -19.4607   27.0805   32.0717 H         1 64O         0.0513
     48 H17       -18.3055   24.9456   31.6689 H         1 64O         0.0512
     49 H18       -22.8768   27.3917   35.5794 H         1 64O         0.0487
     50 H19       -21.2571   24.2935   27.1501 H         1 64O         0.0574
@<TRIPOS>BOND
     1   24    1 2  
     2   24    2 am 
     3    3    4 ar 
     4    5    3 ar 
     5    4   26 ar 
     6    7    5 1  
     7    5   31 ar 
     8    6    7 ar 
     9   20    6 ar 
    10    7   21 ar 
    11    8   24 am 
    12   26    8 1  
    13   10    9 ar 
    14    9   12 1  
    15    9   29 ar 
    16   13   10 ar 
    17   14   11 2  
    18   12   14 am 
    19   17   13 ar 
    20   13   30 1  
    21   14   15 1  
    22   15   16 1  
    23   19   17 1  
    24   17   28 ar 
    25   21   18 1  
    26   19   20 1  
    27   20   23 ar 
    28   21   25 ar 
    29   26   22 ar 
    30   22   31 ar 
    31   23   25 ar 
    32   28   27 1  
    33   28   29 ar 
    34    2   32 1  
    35    2   33 1  
    36    3   34 1  
    37    4   35 1  
    38    6   36 1  
    39    8   37 1  
    40   10   38 1  
    41   12   39 1  
    42   15   40 1  
    43   15   41 1  
    44   16   42 1  
    45   16   43 1  
    46   16   44 1  
    47   18   45 1  
    48   22   46 1  
    49   23   47 1  
    50   25   48 1  
    51   29   49 1  
    52   31   50 1  
@<TRIPOS>SUBSTRUCTURE
     1 64O         1

