### 
### Created by X-TOOL on Mon Sep 10 21:13:26 2018
### 

@<TRIPOS>MOLECULE
5hka_ligand
   48    50     1     0     0
SMALL
GAST_HUCK


@<TRIPOS>ATOM
      1 C18       -22.2490   22.2850   26.3370 C.ar      1 64N        -0.0438
      2 C14       -21.8610   23.0110   28.6140 C.ar      1 64N        -0.0200
      3 C13       -22.0190   24.9900   30.1600 C.ar      1 64N        -0.0279
      4 C12       -21.2170   23.9710   29.6070 C.ar      1 64N         0.0074
      5 C17       -23.1070   21.2710   26.7760 C.ar      1 64N         0.0473
      6 C16       -23.3440   21.1400   28.1480 C.ar      1 64N        -0.0438
      7 C15       -22.7280   22.0060   29.0480 C.ar      1 64N        -0.0519
      8 C11       -19.8940   23.9130   29.9970 C.ar      1 64N         0.0889
      9 C10       -19.4170   24.8700   30.9260 C.ar      1 64N        -0.0377
     10 C8        -21.5590   25.9420   31.0980 C.ar      1 64N         0.1034
     11 N2        -24.4390   19.1580   26.2430 N.am      1 64N        -0.3005
     12 C7        -22.3440   27.7790   32.6280 C.ar      1 64N         0.1270
     13 O4        -23.8480   20.6090   24.5860 O.2       1 64N        -0.3861
     14 C5        -22.2970   28.1010   35.0510 C.ar      1 64N        -0.0341
     15 C6        -22.3850   27.2710   33.9390 C.ar      1 64N         0.0604
     16 O3        -19.0510   22.9420   29.4950 O.3       1 64N        -0.3364
     17 N1        -22.0890   30.2920   36.1000 N.am      1 64N        -0.2398
     18 O1        -22.4170   32.1740   37.3890 O.2       1 64N        -0.3863
     19 O2        -22.4910   26.9000   31.5310 O.3       1 64N        -0.2723
     20 C1        -22.4230   33.4010   34.4360 C.3       1 64N        -0.0478
     21 C4        -22.1820   29.4740   34.9030 C.ar      1 64N         0.0573
     22 C19       -21.6340   23.1440   27.2470 C.ar      1 64N        -0.0519
     23 C20       -23.7890   20.3480   25.7850 C.2       1 64N         0.2007
     24 C21       -22.2480   29.1890   32.4780 C.ar      1 64N         0.0604
     25 C2        -23.2680   32.4550   35.2410 C.3       1 64N         0.0398
     26 C3        -22.5760   31.6420   36.3090 C.2       1 64N         0.2006
     27 C22       -22.1510   29.9860   33.6090 C.ar      1 64N        -0.0341
     28 CL2       -22.1900   30.1080   30.9850 Cl        1 64N        -0.0814
     29 CL1       -22.5230   25.5900   34.2560 Cl        1 64N        -0.0814
     30 C9        -20.2270   25.8760   31.4810 C.ar      1 64N        -0.0358
     31 H1        -22.0600   22.4044   25.2763 H         1 64N         0.0663
     32 H2        -23.0549   25.0471   29.8457 H         1 64N         0.0530
     33 H3        -24.0077   20.3637   28.5112 H         1 64N         0.0663
     34 H4        -22.9258   21.8976   30.1083 H         1 64N         0.0617
     35 H5        -18.3757   24.8244   31.2237 H         1 64N         0.0521
     36 H6        -24.8884   18.5502   25.5883 H         1 64N         0.1807
     37 H7        -24.4438   18.9344   27.2177 H         1 64N         0.1807
     38 H8        -22.3186   27.6691   36.0450 H         1 64N         0.0487
     39 H9        -18.3275   23.3567   29.0401 H         1 64N         0.2467
     40 H10       -21.6296   29.8694   36.8812 H         1 64N         0.2222
     41 H11       -23.0545   33.9222   33.7015 H         1 64N         0.0254
     42 H12       -21.6393   32.8359   33.9103 H         1 64N         0.0254
     43 H13       -21.9566   34.1376   35.1068 H         1 64N         0.0254
     44 H14       -20.9724   23.9233   26.8863 H         1 64N         0.0617
     45 H15       -23.7332   31.7483   34.5380 H         1 64N         0.0504
     46 H16       -24.0506   33.0500   35.7345 H         1 64N         0.0504
     47 H17       -22.0462   31.0571   33.4792 H         1 64N         0.0487
     48 H18       -19.8198   26.5849   32.1928 H         1 64N         0.0537
@<TRIPOS>BOND
     1    1    5 ar 
     2   22    1 ar 
     3    4    2 1  
     4    2    7 ar 
     5    2   22 ar 
     6    3    4 ar 
     7   10    3 ar 
     8    4    8 ar 
     9    6    5 ar 
    10    5   23 1  
    11    7    6 ar 
    12    9    8 ar 
    13    8   16 1  
    14   30    9 ar 
    15   19   10 1  
    16   10   30 ar 
    17   23   11 am 
    18   15   12 ar 
    19   12   19 1  
    20   24   12 ar 
    21   23   13 2  
    22   14   15 ar 
    23   21   14 ar 
    24   15   29 1  
    25   17   21 1  
    26   26   17 am 
    27   26   18 2  
    28   25   20 1  
    29   21   27 ar 
    30   27   24 ar 
    31   24   28 1  
    32   25   26 1  
    33    1   31 1  
    34    3   32 1  
    35    6   33 1  
    36    7   34 1  
    37    9   35 1  
    38   11   36 1  
    39   11   37 1  
    40   14   38 1  
    41   16   39 1  
    42   17   40 1  
    43   20   41 1  
    44   20   42 1  
    45   20   43 1  
    46   22   44 1  
    47   25   45 1  
    48   25   46 1  
    49   27   47 1  
    50   30   48 1  
@<TRIPOS>SUBSTRUCTURE
     1 64N         1

