### 
### Created by X-TOOL on Mon Sep 10 21:13:28 2018
### 

@<TRIPOS>MOLECULE
5hkb_ligand
   42    43     1     0     0
SMALL
GAST_HUCK


@<TRIPOS>ATOM
      1 C1         -2.3630  -26.6200  211.7390 C.2       1 64L         0.0544
      2 C3         -2.3480  -24.0660  211.7110 C.2       1 64L         0.2141
      3 C4         -0.6220  -23.0330  210.1680 C.ar      1 64L         0.0620
      4 C5          0.7500  -23.0890  210.3880 C.ar      1 64L        -0.0357
      5 C6          1.6350  -23.1440  209.3150 C.ar      1 64L         0.0351
      6 C7          1.1730  -23.1320  208.0120 C.ar      1 64L         0.1183
      7 C8          2.7150  -22.0940  206.4800 C.ar      1 64L         0.0968
      8 C9          2.3890  -20.7890  206.8420 C.ar      1 64L        -0.0441
      9 C10         3.1330  -19.7400  206.3090 C.ar      1 64L        -0.0472
     10 C11         4.1830  -19.9780  205.4250 C.ar      1 64L         0.0788
     11 C13         3.7700  -22.3110  205.6020 C.ar      1 64L        -0.0352
     12 C14         5.6370  -21.5270  204.1160 C.3       1 64L        -0.0170
     13 C18        -1.0890  -23.0350  208.8630 C.ar      1 64L        -0.0357
     14 BR2        -0.8940  -23.0980  206.0040 Br        1 64L        -0.0599
     15 C17        -0.1960  -23.0980  207.8050 C.ar      1 64L         0.0351
     16 O4          2.0470  -23.2280  206.9480 O.3       1 64L        -0.2721
     17 C12         4.5100  -21.2710  205.0680 C.ar      1 64L        -0.0187
     18 C16         5.2490  -21.8250  202.6870 C.3       1 64L        -0.0545
     19 C15         6.8100  -22.2730  204.6360 C.3       1 64L        -0.0545
     20 O5          4.9260  -18.9320  204.8970 O.3       1 64L        -0.3437
     21 BR1         3.5310  -23.2080  209.6160 Br        1 64L        -0.0599
     22 N          -1.5400  -22.9680  211.3100 N.am      1 64L        -0.2373
     23 O3         -3.1160  -23.9830  212.6780 O.2       1 64L        -0.3839
     24 C2         -2.2710  -25.3510  210.9550 C.3       1 64L         0.0949
     25 O2         -1.3100  -27.1440  212.2030 O.co2     1 64L        -0.5661
     26 O1         -3.4890  -27.1550  211.9380 O.co2     1 64L        -0.5661
     27 H1          1.1329  -23.0898  211.4021 H         1 64L         0.0530
     28 H2          1.5711  -20.5939  207.5261 H         1 64L         0.0468
     29 H3          2.8911  -18.7205  206.5866 H         1 64L         0.0497
     30 H4          4.0215  -23.3287  205.3263 H         1 64L         0.0462
     31 H5          6.0589  -20.5161  204.0162 H         1 64L         0.0432
     32 H6         -2.1545  -22.9872  208.6696 H         1 64L         0.0530
     33 H7          6.1562  -21.9942  202.0884 H         1 64L         0.0252
     34 H8          4.6905  -20.9724  202.2733 H         1 64L         0.0252
     35 H9          4.6178  -22.7254  202.6586 H         1 64L         0.0252
     36 H10         6.9993  -21.9779  205.6786 H         1 64L         0.0252
     37 H11         7.6934  -22.0408  204.0231 H         1 64L         0.0252
     38 H12         6.6066  -23.3531  204.5918 H         1 64L         0.0252
     39 H13         4.5898  -18.1075  205.2281 H         1 64L         0.2422
     40 H14        -1.5998  -22.1149  211.8284 H         1 64L         0.2223
     41 H15        -3.0945  -25.3539  210.2258 H         1 64L         0.0671
     42 H16        -1.3090  -25.3622  210.4218 H         1 64L         0.0671
@<TRIPOS>BOND
     1   24    1 1  
     2    1   25 ar 
     3    1   26 ar 
     4   22    2 am 
     5    2   23 2  
     6    2   24 1  
     7    4    3 ar 
     8    3   13 ar 
     9    3   22 1  
    10    5    4 ar 
    11    6    5 ar 
    12    5   21 1  
    13    6   15 ar 
    14   16    6 1  
    15    7    8 ar 
    16    7   11 ar 
    17    7   16 1  
    18    8    9 ar 
    19    9   10 ar 
    20   10   17 ar 
    21   10   20 1  
    22   11   17 ar 
    23   17   12 1  
    24   12   18 1  
    25   12   19 1  
    26   13   15 ar 
    27   15   14 1  
    28    4   27 1  
    29    8   28 1  
    30    9   29 1  
    31   11   30 1  
    32   12   31 1  
    33   13   32 1  
    34   18   33 1  
    35   18   34 1  
    36   18   35 1  
    37   19   36 1  
    38   19   37 1  
    39   19   38 1  
    40   20   39 1  
    41   22   40 1  
    42   24   41 1  
    43   24   42 1  
@<TRIPOS>SUBSTRUCTURE
     1 64L         1

