### 
### Created by X-TOOL on Mon Sep 10 21:13:29 2018
### 

@<TRIPOS>MOLECULE
5hkm_ligand
   38    41     1     0     0
SMALL
GAST_HUCK


@<TRIPOS>ATOM
      1 C2         32.7090  -25.9880  -13.0240 C.ar      1 61Y        -0.0228
      2 C3         31.4300  -26.5150  -12.9510 C.ar      1 61Y        -0.0033
      3 C7         32.2260  -28.5370  -12.2770 C.ar      1 61Y         0.1396
      4 C9         33.5200  -30.2210  -11.6680 C.2       1 61Y         0.0538
      5 C10        34.3610  -29.2170  -11.9070 C.2       1 61Y         0.0152
      6 C11        35.8220  -29.3400  -11.8110 C.ar      1 61Y         0.0220
      7 C13        37.5710  -30.6620  -11.2610 C.ar      1 61Y         0.1659
      8 C15        38.0630  -28.6340  -12.1390 C.ar      1 61Y         0.0197
      9 C16        36.7150  -28.3680  -12.2410 C.ar      1 61Y        -0.0295
     10 C19        39.8430  -27.1230  -11.3440 C.3       1 61Y        -0.0521
     11 C20        31.9730  -23.8270  -14.0610 C.2       1 61Y         0.0051
     12 C21        32.8820  -24.5870  -13.4420 C.2       1 61Y         0.0001
     13 C22        34.0110  -23.8040  -13.2590 C.2       1 61Y         0.0598
     14 N23        33.7940  -22.6330  -13.7410 N.pl3     1 61Y        -0.2175
     15 N1         32.5200  -22.6320  -14.2550 N.2       1 61Y        -0.2164
     16 N4         31.2370  -27.7340  -12.6030 N.ar      1 61Y        -0.2871
     17 C5         33.7960  -26.7890  -12.7020 C.ar      1 61Y        -0.0536
     18 C6         33.5410  -28.0890  -12.3140 C.ar      1 61Y         0.0120
     19 N8         32.2660  -29.8270  -11.8820 N.pl3     1 61Y        -0.2547
     20 N12        36.2970  -30.4620  -11.3460 N.ar      1 61Y        -0.2763
     21 N14        38.4550  -29.7780  -11.6380 N.ar      1 61Y        -0.2679
     22 N17        37.9990  -31.8500  -10.7370 N.pl3     1 61Y        -0.3068
     23 C18        39.0960  -27.6300  -12.5610 C.3       1 61Y        -0.0063
     24 H1         30.5795  -25.8875  -13.1917 H         1 61Y         0.0723
     25 H2         33.8144  -31.2184  -11.3448 H         1 61Y         0.1119
     26 H3         36.3617  -27.4264  -12.6456 H         1 61Y         0.0535
     27 H4         40.5987  -26.3878  -11.6576 H         1 61Y         0.0257
     28 H5         40.3386  -27.9661  -10.8404 H         1 61Y         0.0257
     29 H6         39.1341  -26.6470  -10.6506 H         1 61Y         0.0257
     30 H7         30.9689  -24.1314  -14.3526 H         1 61Y         0.0671
     31 H8         34.9346  -24.1295  -12.7827 H         1 61Y         0.1024
     32 H9         34.4532  -21.8415  -13.7419 H         1 61Y         0.2595
     33 H10        34.8092  -26.4072  -12.7534 H         1 61Y         0.0622
     34 H11        31.4372  -30.4267  -11.7621 H         1 61Y         0.2366
     35 H12        37.3131  -32.5567  -10.4354 H         1 61Y         0.1823
     36 H13        39.0074  -32.0383  -10.6438 H         1 61Y         0.1823
     37 H14        38.6015  -26.7861  -13.0642 H         1 61Y         0.0470
     38 H15        39.8060  -28.1051  -13.2540 H         1 61Y         0.0470
@<TRIPOS>BOND
     1    2    1 ar 
     2    1   12 1  
     3    1   17 ar 
     4   16    2 ar 
     5    3   16 ar 
     6    3   18 ar 
     7   19    3 1  
     8    4    5 2  
     9    4   19 1  
    10    5    6 1  
    11    5   18 1  
    12    6    9 ar 
    13    6   20 ar 
    14   20    7 ar 
    15    7   21 ar 
    16    7   22 1  
    17    9    8 ar 
    18    8   21 ar 
    19    8   23 1  
    20   23   10 1  
    21   12   11 1  
    22   11   15 2  
    23   12   13 2  
    24   13   14 1  
    25   14   15 1  
    26   17   18 ar 
    27    2   24 1  
    28    4   25 1  
    29    9   26 1  
    30   10   27 1  
    31   10   28 1  
    32   10   29 1  
    33   11   30 1  
    34   13   31 1  
    35   14   32 1  
    36   17   33 1  
    37   19   34 1  
    38   22   35 1  
    39   22   36 1  
    40   23   37 1  
    41   23   38 1  
@<TRIPOS>SUBSTRUCTURE
     1 61Y         1

