### 
### Created by X-TOOL on Mon Sep 10 21:13:30 2018
### 

@<TRIPOS>MOLECULE
5hl9_ligand
   46    47     1     0     0
SMALL
GAST_HUCK


@<TRIPOS>ATOM
      1 C8         10.6240   16.7830  -60.6260 C.ar      1 AIX        -0.0679
      2 C5          9.1730   18.3220  -59.6120 C.ar      1 AIX         0.0236
      3 C6          6.1070   16.4100  -62.8150 C.3       1 AIX         0.0708
      4 N1          6.6770   19.4820  -61.0790 N.am      1 AIX        -0.2547
      5 C2          3.6510   16.1690  -62.2540 C.2       1 AIX         0.0859
      6 N3          4.6880   18.0230  -63.2830 N.4       1 AIX         0.2550
      7 C4          8.5720   19.6310  -59.6290 C.3       1 AIX         0.0983
      8 C1          5.8310   15.5630  -64.0150 C.3       1 AIX        -0.0437
      9 C3          7.9060   19.8810  -60.9090 C.2       1 AIX         0.2388
     10 C7         10.0450   18.0140  -60.6040 C.ar      1 AIX        -0.0525
     11 C9         10.3340   15.8790  -59.6460 C.ar      1 AIX        -0.0684
     12 C10         9.4620   16.2080  -58.6440 C.ar      1 AIX        -0.0679
     13 C11         8.8770   17.4370  -58.6280 C.ar      1 AIX        -0.0525
     14 C12         4.8310   17.0210  -62.3150 C.3       1 AIX         0.0459
     15 C13         5.8230   18.8900  -63.3380 C.3       1 AIX         0.0664
     16 C14         5.8810   19.8920  -62.1890 C.3       1 AIX         0.1654
     17 C15         4.5130   20.2110  -61.6820 C.2       1 AIX         0.1310
     18 C16         6.8300   15.5970  -61.7800 C.3       1 AIX        -0.0437
     19 N2          9.6380   20.5660  -59.6210 N.4       1 AIX         0.2496
     20 O1          3.4030   15.5980  -61.2010 O.co2     1 AIX        -0.5642
     21 O2          2.9790   16.1150  -63.2530 O.co2     1 AIX        -0.5642
     22 O3          8.5250   20.4910  -61.7080 O.2       1 AIX        -0.3876
     23 O4          4.0250   19.8740  -60.6150 O.2       1 AIX        -0.3722
     24 S1          7.1150   17.7400  -63.2850 S.3       1 AIX        -0.0899
     25 H1         11.3139   16.5211  -61.4200 H         1 AIX         0.0600
     26 H2          6.2758   18.8632  -60.4036 H         1 AIX         0.1890
     27 H3          3.8714   18.5716  -63.0635 H         1 AIX         0.2045
     28 H4          4.5683   17.5882  -64.1845 H         1 AIX         0.2045
     29 H5          7.8859   19.7639  -58.7796 H         1 AIX         0.1260
     30 H6          6.7711   15.1193  -64.3747 H         1 AIX         0.0246
     31 H7          5.3914   16.1843  -64.8091 H         1 AIX         0.0246
     32 H8          5.1275   14.7619  -63.7444 H         1 AIX         0.0246
     33 H9         10.2786   18.7420  -61.3724 H         1 AIX         0.0563
     34 H10        10.7953   14.8982  -59.6612 H         1 AIX         0.0561
     35 H11         9.2372   15.4902  -57.8634 H         1 AIX         0.0600
     36 H12         8.1836   17.7048  -57.8390 H         1 AIX         0.0563
     37 H13         4.9849   17.4492  -61.3135 H         1 AIX         0.1039
     38 H14         5.8370   19.4492  -64.2851 H         1 AIX         0.1026
     39 H15         6.3235   20.8152  -62.5913 H         1 AIX         0.0858
     40 H16         3.8813   20.8102  -62.3361 H         1 AIX         0.1376
     41 H17         7.7508   15.1829  -62.2166 H         1 AIX         0.0246
     42 H18         6.1826   14.7746  -61.4417 H         1 AIX         0.0246
     43 H19         7.0863   16.2379  -60.9236 H         1 AIX         0.0246
     44 H20        10.1630   20.4696  -58.7659 H         1 AIX         0.2029
     45 H21         9.2657   21.5006  -59.6831 H         1 AIX         0.2029
     46 H22        10.2432   20.3924  -60.4082 H         1 AIX         0.2029
@<TRIPOS>BOND
     1   10    1 ar 
     2    1   11 ar 
     3    7    2 1  
     4    2   10 ar 
     5    2   13 ar 
     6    3    8 1  
     7   14    3 1  
     8    3   18 1  
     9    3   24 1  
    10    4    9 am 
    11   16    4 1  
    12   14    5 1  
    13    5   20 ar 
    14    5   21 ar 
    15    6   14 1  
    16   15    6 1  
    17    9    7 1  
    18    7   19 1  
    19    9   22 2  
    20   12   11 ar 
    21   13   12 ar 
    22   15   16 1  
    23   15   24 1  
    24   16   17 1  
    25   17   23 2  
    26    1   25 1  
    27    4   26 1  
    28    6   27 1  
    29    6   28 1  
    30    7   29 1  
    31    8   30 1  
    32    8   31 1  
    33    8   32 1  
    34   10   33 1  
    35   11   34 1  
    36   12   35 1  
    37   13   36 1  
    38   14   37 1  
    39   15   38 1  
    40   16   39 1  
    41   17   40 1  
    42   18   41 1  
    43   18   42 1  
    44   18   43 1  
    45   19   44 1  
    46   19   45 1  
    47   19   46 1  
@<TRIPOS>SUBSTRUCTURE
     1 AIX         1

