### 
### Created by X-TOOL on Mon Sep 10 21:13:29 2018
### 

@<TRIPOS>MOLECULE
5hlb_ligand
   45    45     1     0     0
SMALL
GAST_HUCK


@<TRIPOS>ATOM
      1 C7        -38.7160  -14.9250   62.6900 C.3       1 AZR        -0.0411
      2 S8        -37.7010   -7.4000   58.6390 S.3       1 AZR         0.0150
      3 O9        -35.2510  -12.6350   61.2970 O.2       1 AZR        -0.3724
      4 O10       -38.6430  -10.3770   62.2170 O.2       1 AZR        -0.3862
      5 O11       -40.7900  -12.3730   60.1030 O.3       1 AZR        -0.2177
      6 N12       -36.4550  -14.8340   63.4300 N.am      1 AZR        -0.2736
      7 N13       -37.9360  -12.3170   61.2260 N.am      1 AZR        -0.2643
      8 N14       -40.2760  -11.2990   59.4380 N.2       1 AZR        -0.1296
      9 N15       -38.8750   -9.3300   57.7540 N.2       1 AZR        -0.3138
     10 N16       -38.3190   -7.7580   55.9750 N.pl3     1 AZR        -0.2979
     11 S17       -35.4870  -16.0540   62.9790 S.o2      1 AZR        -0.1198
     12 C18       -37.3300  -14.3730   62.4270 C.3       1 AZR         0.0707
     13 C19       -37.2120  -12.8620   62.3180 C.3       1 AZR         0.1312
     14 C20       -35.8920  -12.5820   62.3430 C.2       1 AZR         0.1263
     15 C21       -38.6190  -11.0920   61.2590 C.2       1 AZR         0.2188
     16 C22       -39.2750  -10.6660   59.9820 C.2       1 AZR         0.1485
     17 C23       -42.2070  -12.4770   59.9220 C.3       1 AZR         0.1563
     18 C24       -38.7270   -9.4740   59.2840 C.2       1 AZR         0.0260
     19 C25       -38.0360   -8.3300   59.8290 C.2       1 AZR         0.0081
     20 C26       -38.2990   -8.1130   57.3480 C.2       1 AZR         0.1779
     21 C27       -42.8190  -12.9960   61.2440 C.3       1 AZR        -0.0232
     22 C28       -42.7750  -11.0790   59.5550 C.3       1 AZR        -0.0232
     23 C29       -42.4960  -13.4950   58.8060 C.2       1 AZR         0.0845
     24 O30       -43.4550  -13.2750   58.0230 O.co2     1 AZR        -0.5445
     25 O31       -41.7960  -14.5480   58.6570 O.co2     1 AZR        -0.5445
     26 O32       -34.6420  -15.7910   61.8680 O.co2     1 AZR        -0.4676
     27 O33       -34.7660  -16.5380   64.1010 O.co2     1 AZR        -0.4676
     28 O34       -36.3330  -17.0770   62.4640 O.co2     1 AZR        -0.4676
     29 H1        -39.4062  -14.5696   61.9107 H         1 AZR         0.0250
     30 H2        -39.0666  -14.5819   63.6745 H         1 AZR         0.0250
     31 H3        -38.6817  -16.0244   62.6757 H         1 AZR         0.0250
     32 H4        -36.4326  -14.4396   64.3486 H         1 AZR         0.1646
     33 H5        -37.9611  -12.8418   60.3751 H         1 AZR         0.1876
     34 H6        -38.7709   -8.3793   55.2890 H         1 AZR         0.1863
     35 H7        -37.8816   -6.8789   55.6639 H         1 AZR         0.1863
     36 H8        -36.9996  -14.7878   61.4633 H         1 AZR         0.0557
     37 H9        -37.6565  -12.4243   63.2240 H         1 AZR         0.0809
     38 H10       -35.4023  -12.3128   63.2777 H         1 AZR         0.1374
     39 H11       -37.7964   -8.1551   60.8768 H         1 AZR         0.0635
     40 H12       -43.9097  -13.0856   61.1328 H         1 AZR         0.0256
     41 H13       -42.5900  -12.2902   62.0561 H         1 AZR         0.0256
     42 H14       -42.3927  -13.9814   61.4835 H         1 AZR         0.0256
     43 H15       -43.8636  -11.1509   59.4143 H         1 AZR         0.0256
     44 H16       -42.3075  -10.7262   58.6239 H         1 AZR         0.0256
     45 H17       -42.5563  -10.3697   60.3668 H         1 AZR         0.0256
@<TRIPOS>BOND
     1   12    1 1  
     2    2   19 1  
     3   20    2 1  
     4   14    3 2  
     5   15    4 2  
     6    8    5 1  
     7    5   17 1  
     8    6   11 am 
     9   12    6 1  
    10    7   13 1  
    11   15    7 am 
    12   16    8 2  
    13   18    9 1  
    14    9   20 2  
    15   20   10 1  
    16   11   26 ar 
    17   11   27 ar 
    18   11   28 ar 
    19   13   12 1  
    20   13   14 1  
    21   16   15 1  
    22   16   18 1  
    23   17   21 1  
    24   17   22 1  
    25   17   23 1  
    26   18   19 2  
    27   23   24 ar 
    28   23   25 ar 
    29    1   29 1  
    30    1   30 1  
    31    1   31 1  
    32    6   32 1  
    33    7   33 1  
    34   10   34 1  
    35   10   35 1  
    36   12   36 1  
    37   13   37 1  
    38   14   38 1  
    39   19   39 1  
    40   21   40 1  
    41   21   41 1  
    42   21   42 1  
    43   22   43 1  
    44   22   44 1  
    45   22   45 1  
@<TRIPOS>SUBSTRUCTURE
     1 AZR         1

