### 
### Created by X-TOOL on Mon Sep 10 21:13:30 2018
### 

@<TRIPOS>MOLECULE
5hld_ligand
   40    41     1     0     0
SMALL
GAST_HUCK


@<TRIPOS>ATOM
      1 OAU        -3.2730   14.2360   60.2950 O.co2     1 63V        -0.5642
      2 CAK        -3.6930   14.7110   61.3800 C.2       1 63V         0.0848
      3 OAV        -2.9360   14.8370   62.3740 O.co2     1 63V        -0.5642
      4 CAD        -5.1010   15.1810   61.5130 C.3       1 63V         0.0347
      5 NAC        -5.2390   16.4680   61.9970 N.4       1 63V         0.2542
      6 CAE        -6.2000   14.4730   60.9560 C.3       1 63V         0.0205
      7 CAJ        -6.1610   12.9720   61.2260 C.3       1 63V        -0.0549
      8 CAF        -7.5400   14.9490   61.1800 C.3       1 63V         0.0083
      9 SAA        -7.7350   16.2900   62.4100 S.3       1 63V        -0.1030
     10 CB         -6.3880   17.1090   61.4720 C.3       1 63V         0.0656
     11 CA         -6.3480   18.5910   61.3700 C.3       1 63V         0.1652
     12 C          -5.1470   19.1290   60.9470 C.2       1 63V         0.1310
     13 O          -4.5580   18.6980   59.9560 O.2       1 63V        -0.3722
     14 N          -7.2000   18.6740   60.2010 N.am      1 63V        -0.2592
     15 CAM        -8.6050   19.0420   60.2060 C.2       1 63V         0.1920
     16 OAO        -9.1980   19.2890   61.2310 O.2       1 63V        -0.3935
     17 CAN        -9.3660   19.0710   58.8630 C.3       1 63V         0.0819
     18 CAP        -9.6700   17.6230   58.5080 C.2       1 63V         0.0307
     19 SAT       -10.7480   16.6490   59.3820 S.3       1 63V        -0.0419
     20 CAS       -10.5140   15.2340   58.3890 C.2       1 63V        -0.0189
     21 CAR        -9.5600   15.5650   57.3550 C.2       1 63V        -0.0924
     22 CAQ        -9.0970   16.9420   57.4540 C.2       1 63V        -0.0791
     23 H1         -5.2399   14.7140   62.4992 H         1 63V         0.1028
     24 H2         -4.4228   17.0016   61.7416 H         1 63V         0.2044
     25 H3         -5.3162   16.4320   63.0014 H         1 63V         0.2044
     26 H4         -6.0503   14.5812   59.8716 H         1 63V         0.0380
     27 H5         -7.0388   12.4939   60.7668 H         1 63V         0.0236
     28 H6         -6.1727   12.7942   62.3115 H         1 63V         0.0236
     29 H7         -5.2435   12.5455   60.7944 H         1 63V         0.0236
     30 H8         -8.1459   14.0953   61.5175 H         1 63V         0.0384
     31 H9         -7.9288   15.3176   60.2193 H         1 63V         0.0384
     32 H10        -6.4918   16.7807   60.4273 H         1 63V         0.1026
     33 H11        -6.7227   19.0971   62.2719 H         1 63V         0.0858
     34 H12        -4.7105   19.9559   61.5053 H         1 63V         0.1376
     35 H13        -6.7858   18.4599   59.3163 H         1 63V         0.1888
     36 H14        -8.7421   19.5308   58.0824 H         1 63V         0.0685
     37 H15       -10.3010   19.6409   58.9681 H         1 63V         0.0685
     38 H16       -11.0016   14.2697   58.5245 H         1 63V         0.0603
     39 H17        -9.2260   14.8654   56.5902 H         1 63V         0.0373
     40 H18        -8.3759   17.3864   56.7696 H         1 63V         0.0284
@<TRIPOS>BOND
     1    1    2 ar 
     2    2    3 ar 
     3    2    4 1  
     4    4    5 1  
     5    4    6 1  
     6    5   10 1  
     7    6    7 1  
     8    6    8 1  
     9    8    9 1  
    10    9   10 1  
    11   10   11 1  
    12   11   12 1  
    13   11   14 1  
    14   12   13 2  
    15   14   15 am 
    16   15   16 2  
    17   15   17 1  
    18   17   18 1  
    19   18   19 1  
    20   18   22 2  
    21   19   20 1  
    22   20   21 2  
    23   21   22 1  
    24    4   23 1  
    25    5   24 1  
    26    5   25 1  
    27    6   26 1  
    28    7   27 1  
    29    7   28 1  
    30    7   29 1  
    31    8   30 1  
    32    8   31 1  
    33   10   32 1  
    34   11   33 1  
    35   12   34 1  
    36   14   35 1  
    37   17   36 1  
    38   17   37 1  
    39   20   38 1  
    40   21   39 1  
    41   22   40 1  
@<TRIPOS>SUBSTRUCTURE
     1 63V         1

