### 
### Created by X-TOOL on Mon Sep 10 21:13:27 2018
### 

@<TRIPOS>MOLECULE
5hln_ligand
   50    53     1     0     0
SMALL
GAST_HUCK


@<TRIPOS>ATOM
      1 C2         67.6760   -7.1380    4.1320 C.2       1 65C        -0.0231
      2 C3         69.0370   -5.6490    3.3490 C.2       1 65C         0.1330
      3 C4         70.1730   -4.8460    2.8710 C.ar      1 65C         0.0641
      4 C5         71.3490   -4.8420    3.5850 C.ar      1 65C         0.0648
      5 C6         72.3020   -3.4520    1.9540 C.ar      1 65C         0.1896
      6 N7         71.1630   -3.4770    1.2440 N.ar      1 65C        -0.2546
      7 C9         75.3380   -1.9730    5.2810 C.ar      1 65C         0.1213
      8 C10        76.7040   -2.6240    7.0950 C.ar      1 65C         0.0322
      9 C11        75.7280   -3.4260    7.6370 C.ar      1 65C         0.1084
     10 C12        74.5080   -3.4950    6.9630 C.ar      1 65C        -0.0200
     11 C13        74.3080   -2.7790    5.7720 C.ar      1 65C        -0.0053
     12 C14        75.9870   -4.0380    8.7470 C.1       1 65C         0.0963
     13 C21        72.5670   -6.4900    5.0200 C.ar      1 65C        -0.0476
     14 CL1        72.3870   -7.3830    8.9670 Cl        1 65C        -0.0673
     15 C19        72.1020   -6.6880    7.3540 C.ar      1 65C         0.0444
     16 C18        71.1170   -5.7310    7.2240 C.ar      1 65C        -0.0298
     17 C17        70.8660   -5.1290    6.0110 C.ar      1 65C         0.0546
     18 CL         69.5850   -3.8820    5.9110 Cl        1 65C        -0.0660
     19 C20        72.8370   -7.0840    6.2540 C.ar      1 65C        -0.0436
     20 C16        71.5780   -5.5140    4.8950 C.ar      1 65C         0.0178
     21 N2         72.3790   -4.1080    3.1130 N.ar      1 65C        -0.2510
     22 C15        70.1040   -4.1530    1.6790 C.ar      1 65C         0.0247
     23 N          68.9920   -6.9300    3.8930 N.2       1 65C        -0.3373
     24 N1         67.8640   -5.0250    3.2140 N.pl3     1 65C        -0.2576
     25 C1         67.0300   -5.9570    3.7010 C.2       1 65C         0.0524
     26 C          65.5360   -5.9230    3.8580 C.3       1 65C        -0.0074
     27 N3         73.3510   -2.7470    1.4770 N.pl3     1 65C        -0.2873
     28 C7         74.5800   -2.5960    2.1940 C.3       1 65C         0.0512
     29 C8         74.3260   -1.3720    3.0690 C.3       1 65C         0.0492
     30 N4         75.3110   -1.2570    4.1180 N.pl3     1 65C        -0.3008
     31 N5         76.4950   -1.9380    5.9640 N.ar      1 65C        -0.2709
     32 N6         76.2390   -4.5710    9.7550 N.1       1 65C        -0.3342
     33 H1         67.2142   -8.0248    4.5636 H         1 65C         0.0362
     34 H2         77.6633   -2.5452    7.5937 H         1 65C         0.0892
     35 H3         73.7075   -4.1070    7.3626 H         1 65C         0.0793
     36 H4         73.3662   -2.8507    5.2401 H         1 65C         0.0633
     37 H5         73.1338   -6.7913    4.1465 H         1 65C         0.0654
     38 H6         70.5309   -5.4481    8.0909 H         1 65C         0.0638
     39 H7         73.6078   -7.8406    6.3469 H         1 65C         0.0633
     40 H8         69.1883   -4.1600    1.0989 H         1 65C         0.0900
     41 H9         67.6568   -4.0880    2.8398 H         1 65C         0.2359
     42 H10        65.1917   -6.8716    4.2958 H         1 65C         0.0419
     43 H11        65.0669   -5.7822    2.8731 H         1 65C         0.0419
     44 H12        65.2557   -5.0905    4.5201 H         1 65C         0.0419
     45 H13        73.2620   -2.2974    0.5546 H         1 65C         0.1867
     46 H14        75.4195   -2.4208    1.5051 H         1 65C         0.0545
     47 H15        74.7894   -3.4837    2.8090 H         1 65C         0.0545
     48 H16        73.3282   -1.4588    3.5238 H         1 65C         0.0543
     49 H17        74.3656   -0.4696    2.4413 H         1 65C         0.0543
     50 H18        76.0650   -0.5698    3.9761 H         1 65C         0.1838
@<TRIPOS>BOND
     1   23    1 1  
     2   25    1 2  
     3    3    2 1  
     4    2   23 2  
     5    2   24 1  
     6    4    3 ar 
     7   22    3 ar 
     8    4   20 1  
     9   21    4 ar 
    10    5    6 ar 
    11    5   21 ar 
    12   27    5 1  
    13    6   22 ar 
    14    7   11 ar 
    15   30    7 1  
    16    7   31 ar 
    17    8    9 ar 
    18   31    8 ar 
    19   10    9 ar 
    20    9   12 1  
    21   11   10 ar 
    22   12   32 3  
    23   13   19 ar 
    24   20   13 ar 
    25   15   14 1  
    26   16   15 ar 
    27   19   15 ar 
    28   17   16 ar 
    29   17   18 1  
    30   20   17 ar 
    31   24   25 1  
    32   25   26 1  
    33   28   27 1  
    34   29   28 1  
    35   29   30 1  
    36    1   33 1  
    37    8   34 1  
    38   10   35 1  
    39   11   36 1  
    40   13   37 1  
    41   16   38 1  
    42   19   39 1  
    43   22   40 1  
    44   24   41 1  
    45   26   42 1  
    46   26   43 1  
    47   26   44 1  
    48   27   45 1  
    49   28   46 1  
    50   28   47 1  
    51   29   48 1  
    52   29   49 1  
    53   30   50 1  
@<TRIPOS>SUBSTRUCTURE
     1 65C         1

