### 
### Created by X-TOOL on Mon Sep 10 21:13:28 2018
### 

@<TRIPOS>MOLECULE
5hlp_ligand
   48    51     1     0     0
SMALL
GAST_HUCK


@<TRIPOS>ATOM
      1 C11         8.6130   22.6730  -19.3110 C.2       1 65A        -0.0095
      2 C13         8.6640   22.2760  -17.8850 C.3       1 65A        -0.0336
      3 C16         7.2060   27.2790  -17.6970 C.ar      1 65A        -0.0807
      4 C15         8.0080   26.5270  -18.5350 C.ar      1 65A        -0.0686
      5 C14         9.0270   25.7010  -18.0420 C.ar      1 65A        -0.0087
      6 C9          9.9260   24.9660  -18.9840 C.3       1 65A         0.0184
      7 C19         9.1650   25.6950  -16.5770 C.ar      1 65A         0.0927
      8 C20         9.8350   24.2040  -14.7480 C.3       1 65A         0.0577
      9 C8          9.6110   29.2270  -21.3180 C.3       1 65A        -0.0555
     10 C6         10.8560   28.4250  -21.7760 C.3       1 65A        -0.0062
     11 N3          9.3140   25.0270  -21.8820 N.pl3     1 65A        -0.2440
     12 C4         11.1890   27.2030  -19.5300 C.2       1 65A         0.0893
     13 C5         11.7820   28.1150  -20.6050 C.3       1 65A         0.0187
     14 C2         10.0180   26.0310  -21.3720 C.2       1 65A         0.0611
     15 C1         10.4290   27.0990  -22.3640 C.3       1 65A         0.0178
     16 O1         11.4970   27.3520  -18.3460 O.2       1 65A        -0.4152
     17 C7         11.6320   29.2250  -22.8240 C.3       1 65A        -0.0555
     18 C3         10.3720   26.0310  -19.9600 C.2       1 65A         0.0160
     19 O2         10.0980   24.9420  -15.9730 O.3       1 65A        -0.3252
     20 C18         8.3170   26.4660  -15.7790 C.ar      1 65A        -0.0405
     21 C17         7.3630   27.2810  -16.3240 C.ar      1 65A        -0.0787
     22 C10         9.2220   23.9420  -19.7080 C.2       1 65A         0.0053
     23 C12         8.9270   24.0130  -21.1290 C.2       1 65A         0.1766
     24 N2          8.2490   22.9020  -21.5400 N.pl3     1 65A        -0.2156
     25 N1          8.0660   22.1310  -20.3900 N.2       1 65A        -0.2571
     26 H1          8.1649   21.3041  -17.7569 H         1 65A         0.0365
     27 H2          8.1518   23.0344  -17.2747 H         1 65A         0.0365
     28 H3          9.7131   22.1945  -17.5643 H         1 65A         0.0365
     29 H4          6.4243   27.8903  -18.1334 H         1 65A         0.0502
     30 H5          7.8438   26.5778  -19.6053 H         1 65A         0.0519
     31 H6         10.7800   24.5260  -18.4481 H         1 65A         0.0510
     32 H7         10.7434   23.6638  -14.4432 H         1 65A         0.0574
     33 H8          9.0212   23.4844  -14.9209 H         1 65A         0.0574
     34 H9          9.5415   24.9055  -13.9531 H         1 65A         0.0574
     35 H10         9.9311   30.1893  -20.8920 H         1 65A         0.0238
     36 H11         9.0646   28.6522  -20.5557 H         1 65A         0.0238
     37 H12         8.9539   29.4087  -22.1812 H         1 65A         0.0238
     38 H13         9.0656   25.0392  -22.8815 H         1 65A         0.2184
     39 H14        12.0589   29.0671  -20.1287 H         1 65A         0.0475
     40 H15        12.6843   27.6286  -21.0041 H         1 65A         0.0475
     41 H16        11.2713   26.7053  -22.9517 H         1 65A         0.0505
     42 H17         9.5734   27.2865  -23.0295 H         1 65A         0.0505
     43 H18        11.9415   30.1890  -22.3941 H         1 65A         0.0238
     44 H19        10.9896   29.4031  -23.6990 H         1 65A         0.0238
     45 H20        12.5228   28.6582  -23.1324 H         1 65A         0.0238
     46 H21         8.4173   26.4174  -14.7007 H         1 65A         0.0517
     47 H22         6.7459   27.9123  -15.6949 H         1 65A         0.0522
     48 H23         7.9380   22.6793  -22.4963 H         1 65A         0.2447
@<TRIPOS>BOND
     1    1    2 1  
     2   22    1 1  
     3    1   25 2  
     4    4    3 ar 
     5    3   21 ar 
     6    5    4 ar 
     7    6    5 1  
     8    5    7 ar 
     9   18    6 1  
    10    6   22 1  
    11    7   19 1  
    12    7   20 ar 
    13   19    8 1  
    14   10    9 1  
    15   10   13 1  
    16   15   10 1  
    17   10   17 1  
    18   14   11 1  
    19   11   23 1  
    20   13   12 1  
    21   12   16 2  
    22   12   18 1  
    23   14   15 1  
    24   14   18 2  
    25   20   21 ar 
    26   22   23 2  
    27   23   24 1  
    28   24   25 1  
    29    2   26 1  
    30    2   27 1  
    31    2   28 1  
    32    3   29 1  
    33    4   30 1  
    34    6   31 1  
    35    8   32 1  
    36    8   33 1  
    37    8   34 1  
    38    9   35 1  
    39    9   36 1  
    40    9   37 1  
    41   11   38 1  
    42   13   39 1  
    43   13   40 1  
    44   15   41 1  
    45   15   42 1  
    46   17   43 1  
    47   17   44 1  
    48   17   45 1  
    49   20   46 1  
    50   21   47 1  
    51   24   48 1  
@<TRIPOS>SUBSTRUCTURE
     1 65A         1

