### 
### Created by X-TOOL on Mon Sep 10 21:13:28 2018
### 

@<TRIPOS>MOLECULE
5hls_ligand
   42    45     1     0     0
SMALL
GAST_HUCK


@<TRIPOS>ATOM
      1 N3         13.5790   -4.7020    0.2170 N.2       1 62G        -0.1651
      2 C5         12.6650   -6.4690   -0.7650 C.2       1 62G         0.1697
      3 C6         11.6480   -5.8700   -0.0590 C.2       1 62G         0.0302
      4 C7         10.2800   -6.3660   -0.1930 C.ar      1 62G        -0.0196
      5 C8          9.4290   -6.4100    0.9090 C.ar      1 62G        -0.0574
      6 C10         7.7350   -7.4700   -0.4160 C.ar      1 62G        -0.0612
      7 C13        10.6430   -6.8570   -2.6350 C.2       1 62G         0.0487
      8 C15        12.6420   -7.6320   -1.6510 C.3       1 62G         0.1069
      9 C17        14.0390   -8.0520   -2.0740 C.3       1 62G         0.0653
     10 C21         9.8900   -6.4170   -3.8220 C.ar      1 62G         0.0134
     11 C22         8.7640   -5.6530   -3.6200 C.ar      1 62G        -0.0430
     12 C24         8.4650   -5.5350   -5.9820 C.ar      1 62G         0.0472
     13 C26         9.6050   -6.3010   -6.1880 C.ar      1 62G        -0.0403
     14 C9          8.1700   -6.9610    0.7930 C.ar      1 62G        -0.0629
     15 C11         8.5680   -7.4230   -1.5250 C.ar      1 62G        -0.0505
     16 C27        10.3220   -6.7540   -5.0890 C.ar      1 62G        -0.0430
     17 C23         8.0440   -5.2180   -4.7120 C.ar      1 62G        -0.0403
     18 C12         9.8440   -6.9140   -1.3910 C.ar      1 62G         0.0112
     19 C2         12.2810   -4.7620    0.5620 C.2       1 62G         0.0264
     20 C18        13.8900   -9.0470   -3.1850 C.2       1 62G         0.1773
     21 C1         11.7170   -3.7000    1.4180 C.3       1 62G        -0.0263
     22 N14        11.8910   -7.1650   -2.8100 N.2       1 62G        -0.3213
     23 N19        14.9830   -9.1000   -3.9920 N.am      1 62G        -0.3007
     24 O20        12.9140   -9.7630   -3.3360 O.2       1 62G        -0.3970
     25 O4         13.8290   -5.8090   -0.5840 O.3       1 62G        -0.1687
     26 CL25        7.5230   -4.9520   -7.3080 Cl        1 62G        -0.0644
     27 H1          9.7576   -6.0097    1.8613 H         1 62G         0.0573
     28 H2          6.7455   -7.9049   -0.4979 H         1 62G         0.0577
     29 H3         12.1358   -8.4798   -1.1663 H         1 62G         0.0688
     30 H4         14.5666   -8.5120   -1.2254 H         1 62G         0.0544
     31 H5         14.6044   -7.1767   -2.4264 H         1 62G         0.0544
     32 H6          8.4472   -5.3965   -2.6156 H         1 62G         0.0683
     33 H7          9.9306   -6.5419   -7.1935 H         1 62G         0.0640
     34 H8          7.5164   -6.9951    1.6571 H         1 62G         0.0650
     35 H9          8.2201   -7.7824   -2.4867 H         1 62G         0.0664
     36 H10        11.2082   -7.3635   -5.2238 H         1 62G         0.0683
     37 H11         7.1468   -4.6266   -4.5697 H         1 62G         0.0640
     38 H12        10.6516   -3.9037    1.6009 H         1 62G         0.0381
     39 H13        11.8232   -2.7279    0.9143 H         1 62G         0.0381
     40 H14        12.2558   -3.6770    2.3767 H         1 62G         0.0381
     41 H15        15.0004   -9.7285   -4.7696 H         1 62G         0.1814
     42 H16        15.7695   -8.5104   -3.8079 H         1 62G         0.1814
@<TRIPOS>BOND
     1   19    1 2  
     2   25    1 1  
     3    2    3 2  
     4    8    2 1  
     5    2   25 1  
     6    4    3 1  
     7    3   19 1  
     8    4    5 ar 
     9   18    4 ar 
    10    5   14 ar 
    11   14    6 ar 
    12    6   15 ar 
    13   10    7 1  
    14    7   18 1  
    15    7   22 2  
    16    8    9 1  
    17   22    8 1  
    18    9   20 1  
    19   11   10 ar 
    20   10   16 ar 
    21   17   11 ar 
    22   12   13 ar 
    23   12   17 ar 
    24   12   26 1  
    25   13   16 ar 
    26   15   18 ar 
    27   19   21 1  
    28   20   23 am 
    29   20   24 2  
    30    5   27 1  
    31    6   28 1  
    32    8   29 1  
    33    9   30 1  
    34    9   31 1  
    35   11   32 1  
    36   13   33 1  
    37   14   34 1  
    38   15   35 1  
    39   16   36 1  
    40   17   37 1  
    41   21   38 1  
    42   21   39 1  
    43   21   40 1  
    44   23   41 1  
    45   23   42 1  
@<TRIPOS>SUBSTRUCTURE
     1 62G         1

