### 
### Created by X-TOOL on Mon Sep 10 21:13:30 2018
### 

@<TRIPOS>MOLECULE
5hlw_ligand
   67    72     1     0     0
SMALL
GAST_HUCK


@<TRIPOS>ATOM
      1 C4         19.7790  -11.8040   57.7940 C.ar      1 62E        -0.0393
      2 C5         20.3400  -12.3550   58.9500 C.ar      1 62E         0.0423
      3 C6         21.6230  -11.9510   59.4210 C.ar      1 62E         0.0007
      4 C8         21.0920  -13.3760   61.0500 C.2       1 62E         0.2092
      5 C11        19.0030   -8.7130   56.5180 C.2       1 62E         0.2451
      6 C15        17.5170   -7.5020   57.7190 C.2       1 62E         0.1784
      7 C26        13.4350  -12.5280   58.7860 C.2       1 62E        -0.0695
      8 C3         22.3860  -10.9820   58.7420 C.ar      1 62E        -0.0687
      9 C2         21.8200  -10.4110   57.5750 C.ar      1 62E        -0.0606
     10 C25        13.9460  -11.1840   58.9150 C.2       1 62E        -0.0623
     11 C27        14.3050  -13.3470   58.1230 C.2       1 62E        -0.0018
     12 C1         20.5200  -10.8170   57.1220 C.ar      1 62E         0.0235
     13 C20        15.1870  -11.0320   58.3270 C.2       1 62E         0.0589
     14 C16        16.3180   -7.3460   58.5360 C.2       1 62E         0.0057
     15 C17        15.5590   -8.4820   58.7880 C.2       1 62E        -0.0187
     16 C18        15.9830   -9.7870   58.2190 C.2       1 62E         0.0996
     17 C22        20.2010  -15.0240   62.7940 C.2       1 62E         0.3017
     18 C32        18.6400  -17.0810   67.9070 C.3       1 62E        -0.0094
     19 C36        17.1520  -17.8860   65.9790 C.3       1 62E        -0.0094
     20 C33        17.5960  -17.4870   68.9910 C.3       1 62E        -0.0317
     21 C35        16.4540  -18.7810   67.0640 C.3       1 62E        -0.0317
     22 C31        17.9070  -16.6690   66.6160 C.3       1 62E        -0.0296
     23 C38        16.0590  -19.9050   70.2260 C.3       1 62E        -0.0245
     24 C30        18.7620  -15.7970   65.6670 C.3       1 62E        -0.0297
     25 C29        19.7830  -16.5470   64.7850 C.3       1 62E         0.0323
     26 C37        15.4070  -18.7460   69.4210 C.3       1 62E        -0.0348
     27 N7         22.0320  -12.5610   60.6240 N.2       1 62E        -0.3144
     28 N13        18.4940   -6.6780   57.2420 N.2       1 62E        -0.2776
     29 N12        19.3610   -7.3980   56.5420 N.2       1 62E        -0.2564
     30 N19        17.1090   -9.9330   57.4800 N.2       1 62E        -0.1396
     31 N14        17.8350   -8.8300   57.2510 N.pl3     1 62E        -0.0913
     32 N21        21.1560  -14.1140   62.2260 N.am      1 62E        -0.1755
     33 N23        20.6230  -15.5670   64.0310 N.am      1 62E        -0.2655
     34 N34        16.3050  -18.0490   68.3960 N.4       1 62E         0.2351
     35 O24        19.1290  -15.2950   62.2760 O.2       1 62E        -0.3852
     36 S28        15.7380  -12.5420   57.6370 S.3       1 62E        -0.0334
     37 S9         19.6320  -13.4960   60.0200 S.3       1 62E         0.0269
     38 S10        19.7940  -10.0230   55.7270 S.3       1 62E         0.0086
     39 H1         18.8099  -12.1257   57.4301 H         1 62E         0.0504
     40 H2         12.4693  -12.8513   59.1719 H         1 62E         0.0435
     41 H3         23.3661  -10.6849   59.0973 H         1 62E         0.0517
     42 H4         22.3731   -9.6618   57.0202 H         1 62E         0.0504
     43 H5         13.4128  -10.3796   59.4195 H         1 62E         0.0480
     44 H6         14.1087  -14.3996   57.9245 H         1 62E         0.0778
     45 H7         16.0287   -6.3744   58.9337 H         1 62E         0.0746
     46 H8         14.6595   -8.4162   59.3984 H         1 62E         0.0713
     47 H9         19.3010  -17.9347   67.6967 H         1 62E         0.0319
     48 H10        19.2394  -16.2349   68.2741 H         1 62E         0.0319
     49 H11        16.3864  -17.5056   65.2868 H         1 62E         0.0319
     50 H12        17.8754  -18.5010   65.4236 H         1 62E         0.0319
     51 H13        17.3481  -16.5979   69.5894 H         1 62E         0.0814
     52 H14        18.0449  -18.2528   69.6406 H         1 62E         0.0814
     53 H15        17.0591  -19.6861   67.2214 H         1 62E         0.0814
     54 H16        15.4554  -19.0660   66.7012 H         1 62E         0.0814
     55 H17        17.1051  -15.9924   66.9463 H         1 62E         0.0305
     56 H18        15.3219  -20.3252   70.9260 H         1 62E         0.0281
     57 H19        16.9218  -19.5201   70.7894 H         1 62E         0.0281
     58 H20        16.3947  -20.6899   69.5322 H         1 62E         0.0281
     59 H21        19.3179  -15.0757   66.2840 H         1 62E         0.0287
     60 H22        18.0756  -15.2559   64.9991 H         1 62E         0.0287
     61 H23        19.2460  -17.1906   64.0727 H         1 62E         0.0518
     62 H24        20.4302  -17.1666   65.4231 H         1 62E         0.0518
     63 H25        15.0667  -17.9869   70.1407 H         1 62E         0.0812
     64 H26        14.5396  -19.1566   68.8835 H         1 62E         0.0812
     65 H27        21.9944  -13.9930   62.7574 H         1 62E         0.2442
     66 H28        21.5053  -15.2881   64.4101 H         1 62E         0.1856
     67 H29        15.7830  -17.2234   68.1473 H         1 62E         0.2033
@<TRIPOS>BOND
     1    2    1 ar 
     2    1   12 ar 
     3    2    3 ar 
     4   37    2 1  
     5    3    8 ar 
     6   27    3 1  
     7    4   27 2  
     8   32    4 1  
     9    4   37 1  
    10    5   29 2  
    11    5   31 1  
    12   38    5 1  
    13    6   14 1  
    14    6   28 2  
    15   31    6 1  
    16   10    7 1  
    17   11    7 2  
    18    8    9 ar 
    19   12    9 ar 
    20   13   10 2  
    21   36   11 1  
    22   12   38 1  
    23   16   13 1  
    24   13   36 1  
    25   14   15 2  
    26   15   16 1  
    27   16   30 2  
    28   17   32 am 
    29   33   17 am 
    30   17   35 2  
    31   20   18 1  
    32   18   22 1  
    33   21   19 1  
    34   19   22 1  
    35   34   20 1  
    36   34   21 1  
    37   22   24 1  
    38   26   23 1  
    39   24   25 1  
    40   25   33 1  
    41   26   34 1  
    42   28   29 1  
    43   30   31 1  
    44    1   39 1  
    45    7   40 1  
    46    8   41 1  
    47    9   42 1  
    48   10   43 1  
    49   11   44 1  
    50   14   45 1  
    51   15   46 1  
    52   18   47 1  
    53   18   48 1  
    54   19   49 1  
    55   19   50 1  
    56   20   51 1  
    57   20   52 1  
    58   21   53 1  
    59   21   54 1  
    60   22   55 1  
    61   23   56 1  
    62   23   57 1  
    63   23   58 1  
    64   24   59 1  
    65   24   60 1  
    66   25   61 1  
    67   25   62 1  
    68   26   63 1  
    69   26   64 1  
    70   32   65 1  
    71   33   66 1  
    72   34   67 1  
@<TRIPOS>SUBSTRUCTURE
     1 62E         1

