### 
### Created by X-TOOL on Mon Sep 10 21:13:28 2018
### 

@<TRIPOS>MOLECULE
5hm0_ligand
   35    38     1     0     0
SMALL
GAST_HUCK


@<TRIPOS>ATOM
      1 CAQ       -10.3380    6.9220   -4.8710 C.ar      1 62V        -0.0430
      2 CAR        -9.6790    6.4580   -6.0320 C.ar      1 62V        -0.0403
      3 CAS        -8.5780    5.6280   -5.8460 C.ar      1 62V         0.0472
      4 CLAV       -7.6030    5.0090   -7.2200 Cl        1 62V        -0.0644
      5 CAT        -8.0880    5.2970   -4.6130 C.ar      1 62V        -0.0403
      6 CAU        -8.7070    5.8010   -3.4850 C.ar      1 62V        -0.0430
      7 CAP        -9.8600    6.5600   -3.6030 C.ar      1 62V         0.0134
      8 CAG       -10.5300    6.9910   -2.4340 C.2       1 62V         0.0482
      9 NAH       -11.8690    7.1350   -2.5580 N.2       1 62V        -0.3269
     10 CAI       -12.8000    7.4080   -1.4530 C.3       1 62V         0.0791
     11 CAJ       -12.6930    6.3300   -0.5340 C.2       1 62V         0.1644
     12 OAL       -13.8020    5.5790   -0.2250 O.3       1 62V        -0.1692
     13 NAM       -13.4380    4.5700    0.6110 N.2       1 62V        -0.1651
     14 CAN       -12.1150    4.7490    0.8140 C.2       1 62V         0.0264
     15 CAO       -11.3690    3.7480    1.6920 C.3       1 62V        -0.0263
     16 CAK       -11.6430    5.7980    0.0610 C.2       1 62V         0.0297
     17 CAF       -10.3790    6.3360   -0.0080 C.ar      1 62V        -0.0196
     18 CAE        -9.8690    6.9590   -1.1730 C.ar      1 62V         0.0112
     19 CAD        -8.5700    7.4970   -1.1420 C.ar      1 62V        -0.0505
     20 CAC        -7.8080    7.4880    0.0360 C.ar      1 62V        -0.0612
     21 CAB        -8.2720    6.8350    1.1690 C.ar      1 62V        -0.0629
     22 CAA        -9.5940    6.3320    1.1630 C.ar      1 62V        -0.0574
     23 H1        -11.2120    7.5570   -4.9604 H         1 62V         0.0683
     24 H2        -10.0165    6.7365   -7.0237 H         1 62V         0.0640
     25 H3         -7.2250    4.6475   -4.5216 H         1 62V         0.0640
     26 H4         -8.2891    5.6019   -2.5048 H         1 62V         0.0683
     27 H5        -13.8290    7.4755   -1.8358 H         1 62V         0.0627
     28 H6        -12.5302    8.3526   -0.9581 H         1 62V         0.0627
     29 H7        -10.3089    4.0347    1.7554 H         1 62V         0.0381
     30 H8        -11.4513    2.7427    1.2532 H         1 62V         0.0381
     31 H9        -11.8090    3.7453    2.7002 H         1 62V         0.0381
     32 H10        -8.1500    7.9263   -2.0444 H         1 62V         0.0664
     33 H11        -6.8501    7.9947    0.0612 H         1 62V         0.0577
     34 H12        -7.6362    6.7132    2.0385 H         1 62V         0.0650
     35 H13       -10.0133    5.9342    2.0801 H         1 62V         0.0573
@<TRIPOS>BOND
     1    1    2 ar 
     2    1    7 ar 
     3    2    3 ar 
     4    3    4 1  
     5    3    5 ar 
     6    5    6 ar 
     7    6    7 ar 
     8    7    8 1  
     9    8    9 2  
    10    8   18 1  
    11    9   10 1  
    12   10   11 1  
    13   11   12 1  
    14   11   16 2  
    15   12   13 1  
    16   13   14 2  
    17   14   15 1  
    18   14   16 1  
    19   16   17 1  
    20   17   18 ar 
    21   17   22 ar 
    22   18   19 ar 
    23   19   20 ar 
    24   20   21 ar 
    25   21   22 ar 
    26    1   23 1  
    27    2   24 1  
    28    5   25 1  
    29    6   26 1  
    30   10   27 1  
    31   10   28 1  
    32   15   29 1  
    33   15   30 1  
    34   15   31 1  
    35   19   32 1  
    36   20   33 1  
    37   21   34 1  
    38   22   35 1  
@<TRIPOS>SUBSTRUCTURE
     1 62V         1

