### 
### Created by X-TOOL on Mon Sep 10 21:13:28 2018
### 

@<TRIPOS>MOLECULE
5hm3_ligand
   80    83     1     0     0
SMALL
GAST_HUCK


@<TRIPOS>ATOM
      1 C15         9.0080   -0.8290  -14.2300 C.3       1 649        -0.0360
      2 C16         9.6390   -0.0080  -13.1110 C.3       1 649         0.0389
      3 C13         6.7680   -1.7010  -15.0750 C.3       1 649        -0.0529
      4 C17        11.1370    0.1580  -13.2500 C.2       1 649         0.1976
      5 C11         4.8570   -2.5980  -13.7100 C.3       1 649        -0.0531
      6 C10         3.4300   -2.3400  -13.2530 C.3       1 649        -0.0530
      7 C2         -2.0690   -5.7300   -7.0740 C.ar      1 649        -0.0729
      8 C1         -0.7520   -6.0960   -7.3470 C.ar      1 649        -0.0706
      9 C6         -0.1020   -5.5820   -8.4550 C.ar      1 649        -0.0331
     10 C5         -0.7710   -4.6860   -9.2890 C.ar      1 649         0.0911
     11 C4         -2.0860   -4.3140   -9.0170 C.ar      1 649        -0.0331
     12 C3         -2.7450   -4.8360   -7.9070 C.ar      1 649        -0.0706
     13 O2         11.8270   -0.7260  -13.7130 O.2       1 649        -0.3954
     14 C14         7.4950   -0.9150  -13.9960 C.3       1 649        -0.0510
     15 C12         5.2540   -1.7350  -14.8820 C.3       1 649        -0.0531
     16 C9          3.1140   -3.2790  -12.0810 C.3       1 649        -0.0506
     17 C8          1.7480   -2.9490  -11.5090 C.3       1 649        -0.0251
     18 C7          1.2570   -4.0410  -10.5940 C.3       1 649         0.0704
     19 O1         -0.1800   -4.1340  -10.3860 O.3       1 649        -0.3180
     20 N6         11.6410    1.3060  -12.7930 N.am      1 649        -0.1342
     21 S          13.1070    1.6720  -13.0050 S.o2      1 649         0.1858
     22 O4         13.9670    0.8920  -12.1240 O.2       1 649        -0.1218
     23 O3         13.2120    3.1000  -12.6920 O.2       1 649        -0.1218
     24 O5         13.5750    1.3570  -14.4150 O.3       1 649        -0.2161
     25 C18        12.9380    1.9350  -15.5470 C.3       1 649         0.1073
     26 C19        13.6220    1.4620  -16.8150 C.3       1 649         0.1161
     27 O6         13.5160    0.0710  -16.9690 O.3       1 649        -0.3367
     28 C22        13.3730   -0.2820  -18.3480 C.3       1 649         0.2010
     29 C21        13.3750    1.0250  -19.1230 C.3       1 649         0.1385
     30 O7         14.6870    1.2940  -19.6290 O.3       1 649        -0.3836
     31 C20        12.9800    2.0270  -18.0670 C.3       1 649         0.1146
     32 O8         13.4510    3.3310  -18.3190 O.3       1 649        -0.3864
     33 N1         12.1110   -0.9890  -18.6170 N.pl3     1 649        -0.1919
     34 C25        11.9190   -1.7880  -19.6570 C.ar      1 649         0.1613
     35 N3         12.7300   -2.1690  -20.6670 N.ar      1 649        -0.2714
     36 C26        12.3070   -3.0030  -21.6320 C.ar      1 649         0.0533
     37 N4         11.0680   -3.5160  -21.6480 N.ar      1 649        -0.2698
     38 C27        10.1950   -3.1930  -20.6740 C.ar      1 649         0.1298
     39 N5          8.9540   -3.6970  -20.6930 N.pl3     1 649        -0.3152
     40 C24        10.6350   -2.2700  -19.5980 C.ar      1 649         0.1045
     41 N2         10.0630   -1.7510  -18.5020 N.2       1 649        -0.2958
     42 C23        10.9860   -0.9560  -17.9050 C.2       1 649         0.1123
     43 H1          9.4386   -1.8412  -14.2323 H         1 649         0.0290
     44 H2          9.2042   -0.3448  -15.1980 H         1 649         0.0290
     45 H3          9.4323   -0.5087  -12.1536 H         1 649         0.0503
     46 H4          9.1774    0.9905  -13.1098 H         1 649         0.0503
     47 H5          7.1441   -2.7347  -15.0671 H         1 649         0.0265
     48 H6          6.9853   -1.2392  -16.0494 H         1 649         0.0265
     49 H7          4.9479   -3.6543  -14.0032 H         1 649         0.0265
     50 H8          5.5387   -2.3900  -12.8721 H         1 649         0.0265
     51 H9          2.7342   -2.5353  -14.0823 H         1 649         0.0265
     52 H10         3.3284   -1.2941  -12.9277 H         1 649         0.0265
     53 H11        -2.5728   -6.1429   -6.2076 H         1 649         0.0523
     54 H12        -0.2354   -6.7855   -6.6891 H         1 649         0.0589
     55 H13         0.9191   -5.8733   -8.6733 H         1 649         0.0542
     56 H14        -2.5971   -3.6167   -9.6709 H         1 649         0.0542
     57 H15        -3.7690   -4.5522   -7.6924 H         1 649         0.0589
     58 H16         7.0861    0.1059  -13.9711 H         1 649         0.0267
     59 H17         7.3180   -1.4046  -13.0270 H         1 649         0.0267
     60 H18         4.7879   -2.1368  -15.7938 H         1 649         0.0265
     61 H19         4.8944   -0.7102  -14.7073 H         1 649         0.0265
     62 H20         3.8768   -3.1550  -11.2983 H         1 649         0.0266
     63 H21         3.1189   -4.3201  -12.4361 H         1 649         0.0266
     64 H22         1.0334   -2.8270  -12.3363 H         1 649         0.0291
     65 H23         1.8152   -2.0094  -10.9410 H         1 649         0.0291
     66 H24         1.7249   -3.8850   -9.6108 H         1 649         0.0614
     67 H25         1.5942   -5.0008  -11.0125 H         1 649         0.0614
     68 H26        11.0448    1.9403  -12.3008 H         1 649         0.2165
     69 H27        13.0034    3.0312  -15.4834 H         1 649         0.0611
     70 H28        11.8810    1.6312  -15.5666 H         1 649         0.0611
     71 H29        14.6805    1.7579  -16.7712 H         1 649         0.0648
     72 H30        14.2169   -0.9153  -18.6590 H         1 649         0.0996
     73 H31        12.6508    1.0075  -19.9508 H         1 649         0.0676
     74 H32        14.6775    2.1123  -20.1114 H         1 649         0.2101
     75 H33        11.8852    2.0609  -17.9654 H         1 649         0.0648
     76 H34        13.1006    3.6386  -19.1467 H         1 649         0.2100
     77 H35        12.9930   -3.2712  -22.4274 H         1 649         0.0996
     78 H36         8.2865   -3.4502  -19.9484 H         1 649         0.1820
     79 H37         8.6673   -4.3314  -21.4522 H         1 649         0.1820
     80 H38        10.8320   -0.3835  -16.9915 H         1 649         0.1349
@<TRIPOS>BOND
     1    1    2 1  
     2   14    1 1  
     3    2    4 1  
     4    3   14 1  
     5   15    3 1  
     6    4   13 2  
     7    4   20 am 
     8    6    5 1  
     9    5   15 1  
    10   16    6 1  
    11    8    7 ar 
    12   12    7 ar 
    13    9    8 ar 
    14   10    9 ar 
    15   10   11 ar 
    16   19   10 1  
    17   11   12 ar 
    18   17   16 1  
    19   18   17 1  
    20   18   19 1  
    21   20   21 am 
    22   21   22 2  
    23   21   23 2  
    24   21   24 1  
    25   24   25 1  
    26   25   26 1  
    27   26   27 1  
    28   26   31 1  
    29   27   28 1  
    30   28   29 1  
    31   28   33 1  
    32   29   30 1  
    33   29   31 1  
    34   31   32 1  
    35   33   34 1  
    36   33   42 1  
    37   34   35 ar 
    38   34   40 ar 
    39   35   36 ar 
    40   36   37 ar 
    41   37   38 ar 
    42   38   39 1  
    43   38   40 ar 
    44   40   41 1  
    45   41   42 2  
    46    1   43 1  
    47    1   44 1  
    48    2   45 1  
    49    2   46 1  
    50    3   47 1  
    51    3   48 1  
    52    5   49 1  
    53    5   50 1  
    54    6   51 1  
    55    6   52 1  
    56    7   53 1  
    57    8   54 1  
    58    9   55 1  
    59   11   56 1  
    60   12   57 1  
    61   14   58 1  
    62   14   59 1  
    63   15   60 1  
    64   15   61 1  
    65   16   62 1  
    66   16   63 1  
    67   17   64 1  
    68   17   65 1  
    69   18   66 1  
    70   18   67 1  
    71   20   68 1  
    72   25   69 1  
    73   25   70 1  
    74   26   71 1  
    75   28   72 1  
    76   29   73 1  
    77   30   74 1  
    78   31   75 1  
    79   32   76 1  
    80   36   77 1  
    81   39   78 1  
    82   39   79 1  
    83   42   80 1  
@<TRIPOS>SUBSTRUCTURE
     1 649         1

