### 
### Created by X-TOOL on Mon Sep 10 21:13:29 2018
### 

@<TRIPOS>MOLECULE
5hmh_ligand
   89    93     1     0     0
SMALL
GAST_HUCK


@<TRIPOS>ATOM
      1 C1        -16.5730    5.5420   21.0740 C.ar      1 62R         0.1090
      2 C2        -17.3740    5.8590   22.2190 C.ar      1 62R        -0.0444
      3 C3        -18.1710    4.8700   22.7960 C.ar      1 62R        -0.0842
      4 C4        -18.2020    3.5620   22.2810 C.ar      1 62R        -0.0850
      5 C5        -17.3890    3.2340   21.1740 C.ar      1 62R        -0.0525
      6 C6        -15.7230    7.8300   20.7510 C.3       1 62R         0.0690
      7 C9        -12.5370    7.9150   21.0440 C.2       1 62R         0.0349
      8 C10       -14.1900    3.8860   19.9350 C.3       1 62R         0.0452
      9 C11       -13.2480    3.7910   18.7290 C.3       1 62R         0.0533
     10 C12       -12.6300    1.5750   17.7740 C.2       1 62R         0.2368
     11 C13       -12.9440    0.2210   17.0830 C.3       1 62R         0.1900
     12 C15       -12.4610   -1.9790   15.1100 C.3       1 62R         0.0341
     13 C18       -14.6820   -1.0610   14.1910 C.2       1 62R         0.2334
     14 C22       -15.6970   -4.5520   12.8960 C.ar      1 62R        -0.0010
     15 C26       -12.3650    1.6850   13.3220 C.3       1 62R        -0.0539
     16 F5        -17.8150   -0.5610   21.7640 F         1 62R        -0.2658
     17 C32       -17.0050   -1.5270   21.4180 C.3       1 62R         0.3422
     18 F3        -17.7550   -2.3560   20.7440 F         1 62R        -0.2658
     19 F4        -16.7290   -2.1990   22.5170 F         1 62R        -0.2658
     20 C30       -15.8120   -1.0350   20.6870 C.2       1 62R         0.0851
     21 S         -14.3940   -0.5410   21.4650 S.3       1 62R        -0.0016
     22 C29       -13.6860   -0.2060   19.9670 C.2       1 62R         0.0829
     23 C31       -15.7970   -0.9650   19.3230 C.2       1 62R         0.0150
     24 C28       -14.5340   -0.4780   18.8900 C.2       1 62R         0.1480
     25 O5        -14.2200   -0.2980   17.5590 O.3       1 62R        -0.3001
     26 C17       -11.7760   -0.8110   17.2570 C.3       1 62R        -0.0088
     27 C16       -12.0860   -2.1610   16.6010 C.3       1 62R        -0.0304
     28 N2        -13.4740   -0.8750   14.8910 N.am      1 62R        -0.2628
     29 C19       -14.8210   -2.3240   13.3940 C.ar      1 62R         0.1055
     30 C23       -15.6390   -3.4240   13.7400 C.ar      1 62R         0.0864
     31 C24       -16.4510   -3.3910   15.0350 C.3       1 62R         0.3908
     32 F2        -15.6810   -3.1530   16.0780 F         1 62R        -0.2120
     33 F1        -17.3830   -2.4360   15.0880 F         1 62R        -0.2120
     34 F         -17.0870   -4.5230   15.3490 F         1 62R        -0.2120
     35 C21       -14.9190   -4.5200   11.7230 C.ar      1 62R         0.0448
     36 N3        -14.1140   -3.4730   11.3540 N.ar      1 62R        -0.2590
     37 C20       -14.0690   -2.3960   12.1780 C.ar      1 62R         0.0599
     38 O4        -15.5940   -0.2400   14.2240 O.2       1 62R        -0.3698
     39 C14       -13.2020    0.4370   15.5290 C.3       1 62R         0.0850
     40 C25       -12.0470    1.2090   14.7650 C.3       1 62R        -0.0277
     41 C27       -13.6490    2.5460   13.2380 C.3       1 62R        -0.0652
     42 O3        -11.4930    1.7880   18.2000 O.2       1 62R        -0.3411
     43 N1        -13.6290    2.5810   17.9440 N.am      1 62R        -0.2660
     44 C33       -15.0370    2.6330   17.3910 C.3       1 62R         0.0533
     45 C34       -16.0370    2.8670   18.5520 C.3       1 62R         0.0452
     46 N         -15.6520    3.9740   19.4630 N.pl3     1 62R        -0.3081
     47 C         -16.5580    4.2190   20.5620 C.ar      1 62R         0.0707
     48 O         -15.8350    6.4690   20.3640 O.3       1 62R        -0.3236
     49 C7        -14.7050    8.5700   19.8510 C.3       1 62R        -0.0139
     50 C8        -13.3180    7.8730   19.7420 C.3       1 62R         0.0026
     51 O1        -12.7010    7.1620   21.9920 O.co2     1 62R        -0.5690
     52 O2        -11.5530    8.8260   21.2170 O.co2     1 62R        -0.5690
     53 H1        -17.3608    6.8603   22.6340 H         1 62R         0.0501
     54 H2        -18.7790    5.1150   23.6593 H         1 62R         0.0477
     55 H3        -18.8439    2.8125   22.7295 H         1 62R         0.0489
     56 H4        -17.3964    2.2223   20.7848 H         1 62R         0.0480
     57 H5        -15.3857    7.8819   21.7967 H         1 62R         0.0609
     58 H6        -16.7063    8.3143   20.6584 H         1 62R         0.0609
     59 H7        -13.9424    4.7844   20.5194 H         1 62R         0.0529
     60 H8        -14.0649    2.9929   20.5648 H         1 62R         0.0529
     61 H9        -12.2074    3.7004   19.0737 H         1 62R         0.0543
     62 H10       -13.3501    4.6899   18.1032 H         1 62R         0.0543
     63 H11       -12.8836   -2.9232   14.7360 H         1 62R         0.0522
     64 H12       -11.5489   -1.7363   14.5451 H         1 62R         0.0522
     65 H13       -16.3150   -5.4084   13.1402 H         1 62R         0.0952
     66 H14       -12.4939    0.8001   12.6814 H         1 62R         0.0263
     67 H15       -11.5176    2.2828   12.9554 H         1 62R         0.0263
     68 H16       -12.6746    0.1814   19.8531 H         1 62R         0.1223
     69 H17       -16.6237   -1.2395   18.6694 H         1 62R         0.0930
     70 H18       -11.6039   -0.9718   18.3315 H         1 62R         0.0285
     71 H19       -10.8666   -0.3959   16.7980 H         1 62R         0.0285
     72 H20       -11.1993   -2.8080   16.6728 H         1 62R         0.0284
     73 H21       -12.9279   -2.6327   17.1289 H         1 62R         0.0284
     74 H22       -14.9591   -5.3819   11.0668 H         1 62R         0.0930
     75 H23       -13.4390   -1.5572   11.9049 H         1 62R         0.0952
     76 H24       -14.1094    1.0516   15.4351 H         1 62R         0.0577
     77 H25       -11.7892    2.0974   15.3602 H         1 62R         0.0287
     78 H26       -11.1766    0.5385   14.7110 H         1 62R         0.0287
     79 H27       -13.8187    2.8505   12.1947 H         1 62R         0.0230
     80 H28       -13.5321    3.4410   13.8667 H         1 62R         0.0230
     81 H29       -14.5085    1.9583   13.5928 H         1 62R         0.0230
     82 H30       -15.2707    1.6812   16.8915 H         1 62R         0.0543
     83 H31       -15.1166    3.4567   16.6663 H         1 62R         0.0543
     84 H32       -16.1059    1.9411   19.1418 H         1 62R         0.0529
     85 H33       -17.0212    3.1005   18.1198 H         1 62R         0.0529
     86 H34       -14.5518    9.5787   20.2621 H         1 62R         0.0308
     87 H35       -15.1317    8.6470   18.8401 H         1 62R         0.0308
     88 H36       -13.4739    6.8216   19.4588 H         1 62R         0.0431
     89 H37       -12.7300    8.3794   18.9624 H         1 62R         0.0431
@<TRIPOS>BOND
     1    1    2 ar 
     2    1   47 ar 
     3   48    1 1  
     4    2    3 ar 
     5    3    4 ar 
     6    5    4 ar 
     7   47    5 ar 
     8    6   48 1  
     9   49    6 1  
    10   50    7 1  
    11    7   51 ar 
    12    7   52 ar 
    13    8    9 1  
    14   46    8 1  
    15    9   43 1  
    16   10   11 1  
    17   10   42 2  
    18   43   10 am 
    19   11   25 1  
    20   11   26 1  
    21   11   39 1  
    22   27   12 1  
    23   28   12 1  
    24   28   13 am 
    25   13   29 1  
    26   13   38 2  
    27   30   14 ar 
    28   14   35 ar 
    29   40   15 1  
    30   15   41 1  
    31   17   16 1  
    32   17   18 1  
    33   17   19 1  
    34   20   17 1  
    35   20   21 1  
    36   23   20 2  
    37   22   21 1  
    38   24   22 2  
    39   24   23 1  
    40   25   24 1  
    41   26   27 1  
    42   39   28 1  
    43   29   30 ar 
    44   29   37 ar 
    45   30   31 1  
    46   31   32 1  
    47   31   33 1  
    48   31   34 1  
    49   36   35 ar 
    50   37   36 ar 
    51   39   40 1  
    52   44   43 1  
    53   45   44 1  
    54   46   45 1  
    55   47   46 1  
    56   49   50 1  
    57    2   53 1  
    58    3   54 1  
    59    4   55 1  
    60    5   56 1  
    61    6   57 1  
    62    6   58 1  
    63    8   59 1  
    64    8   60 1  
    65    9   61 1  
    66    9   62 1  
    67   12   63 1  
    68   12   64 1  
    69   14   65 1  
    70   15   66 1  
    71   15   67 1  
    72   22   68 1  
    73   23   69 1  
    74   26   70 1  
    75   26   71 1  
    76   27   72 1  
    77   27   73 1  
    78   35   74 1  
    79   37   75 1  
    80   39   76 1  
    81   40   77 1  
    82   40   78 1  
    83   41   79 1  
    84   41   80 1  
    85   41   81 1  
    86   44   82 1  
    87   44   83 1  
    88   45   84 1  
    89   45   85 1  
    90   49   86 1  
    91   49   87 1  
    92   50   88 1  
    93   50   89 1  
@<TRIPOS>SUBSTRUCTURE
     1 62R         1

