### 
### Created by X-TOOL on Mon Sep 10 21:13:29 2018
### 

@<TRIPOS>MOLECULE
5hmi_ligand
   85    89     1     0     0
SMALL
GAST_HUCK


@<TRIPOS>ATOM
      1 C1        -12.8600    0.4540   17.1710 C.3       1 62T         0.1900
      2 C2        -12.6000    1.8290   17.8550 C.2       1 62T         0.2368
      3 C3        -13.1630    4.0560   18.7670 C.3       1 62T         0.0533
      4 C4        -14.1100    4.1480   19.9970 C.3       1 62T         0.0452
      5 C7        -18.1770    3.5000   22.3660 C.ar      1 62T        -0.0850
      6 C8        -18.1730    4.7530   22.9980 C.ar      1 62T        -0.0842
      7 C9        -17.3620    5.7880   22.5210 C.ar      1 62T        -0.0444
      8 C11       -15.8860    7.9150   21.4010 C.3       1 62T         0.0905
      9 C12       -14.4630    8.5010   21.1960 C.3       1 62T         0.0715
     10 C13       -15.9340    2.9020   18.7730 C.3       1 62T         0.0452
     11 C14       -15.0010    2.8540   17.5240 C.3       1 62T         0.0533
     12 C15       -14.4480   -0.3210   18.9500 C.2       1 62T         0.1480
     13 C16       -13.5760   -0.0320   20.0210 C.2       1 62T         0.0829
     14 C17       -15.6860   -0.8540   20.7670 C.2       1 62T         0.0851
     15 C18       -16.9010   -1.3450   21.5040 C.3       1 62T         0.3422
     16 C19       -15.7050   -0.8080   19.4070 C.2       1 62T         0.0150
     17 C20       -13.1000    0.6720   15.6230 C.3       1 62T         0.0850
     18 C22       -12.2990    1.9210   13.4090 C.3       1 62T        -0.0539
     19 C23       -13.6530    2.6430   13.3230 C.3       1 62T        -0.0652
     20 C24       -14.5340   -0.8260   14.2800 C.2       1 62T         0.2334
     21 C25       -14.6440   -2.1030   13.4610 C.ar      1 62T         0.1055
     22 C26       -15.5130   -3.1740   13.7790 C.ar      1 62T         0.0864
     23 C29       -14.8240   -4.2820   11.7090 C.ar      1 62T         0.0448
     24 C30       -13.8610   -2.1500   12.2650 C.ar      1 62T         0.0599
     25 C32       -11.9460   -1.9140   16.6770 C.3       1 62T        -0.0304
     26 F5        -16.8920   -4.2860   15.4190 F         1 62T        -0.2120
     27 C27       -16.3880   -3.1160   15.0670 C.3       1 62T         0.3908
     28 F3        -17.4290   -2.2930   14.9620 F         1 62T        -0.2120
     29 F4        -15.6970   -2.6980   16.1110 F         1 62T        -0.2120
     30 C28       -15.6050   -4.2750   12.8930 C.ar      1 62T        -0.0010
     31 N3        -13.9700   -3.2310   11.4200 N.ar      1 62T        -0.2590
     32 O4        -15.4960   -0.0700   14.3030 O.2       1 62T        -0.3698
     33 N2        -13.3080   -0.6320   14.9310 N.am      1 62T        -0.2628
     34 C31       -12.3270   -1.7560   15.1880 C.3       1 62T         0.0341
     35 C         -11.6610   -0.5480   17.3190 C.3       1 62T        -0.0088
     36 C21       -11.9690    1.4680   14.8610 C.3       1 62T        -0.0277
     37 O3        -14.1100   -0.1590   17.6330 O.3       1 62T        -0.3001
     38 F2        -16.5790   -1.9610   22.6040 F         1 62T        -0.2658
     39 F1        -17.7270   -0.3940   21.8500 F         1 62T        -0.2658
     40 F         -17.6500   -2.2010   20.8540 F         1 62T        -0.2658
     41 S         -14.2630   -0.3570   21.5190 S.3       1 62T        -0.0016
     42 O         -11.4570    2.0370   18.3100 O.2       1 62T        -0.3411
     43 N         -13.5670    2.8360   18.0010 N.am      1 62T        -0.2660
     44 N1        -15.5980    4.1090   19.5960 N.pl3     1 62T        -0.3081
     45 C5        -16.5040    4.2960   20.7240 C.ar      1 62T         0.0707
     46 C10       -16.5320    5.5730   21.3680 C.ar      1 62T         0.1091
     47 O1        -15.7880    6.6090   20.8340 O.3       1 62T        -0.3215
     48 O2        -13.5250    7.6880   21.8570 O.3       1 62T        -0.3924
     49 C6        -17.3500    3.2800   21.2480 C.ar      1 62T        -0.0525
     50 H1        -12.1183    3.9658   19.0993 H         1 62T         0.0543
     51 H2        -13.2716    4.9515   18.1376 H         1 62T         0.0543
     52 H3        -13.9113    5.0916   20.5263 H         1 62T         0.0529
     53 H4        -13.9023    3.3008   20.6672 H         1 62T         0.0529
     54 H5        -18.8139    2.7051   22.7369 H         1 62T         0.0489
     55 H6        -18.8040    4.9202   23.8634 H         1 62T         0.0477
     56 H7        -17.3597    6.7503   23.0201 H         1 62T         0.0501
     57 H8        -16.6401    8.5178   20.8739 H         1 62T         0.0631
     58 H9        -16.1403    7.8624   22.4699 H         1 62T         0.0631
     59 H10       -14.4221    9.5195   21.6094 H         1 62T         0.0584
     60 H11       -14.2297    8.5318   20.1215 H         1 62T         0.0584
     61 H12       -15.7878    1.9938   19.3761 H         1 62T         0.0529
     62 H13       -16.9827    2.9604   18.4463 H         1 62T         0.0529
     63 H14       -15.1730    3.7415   16.8973 H         1 62T         0.0543
     64 H15       -15.2094    1.9460   16.9391 H         1 62T         0.0543
     65 H16       -12.5680    0.3589   19.8907 H         1 62T         0.1223
     66 H17       -16.5427   -1.0959   18.7736 H         1 62T         0.0930
     67 H18       -14.0258    1.2584   15.5285 H         1 62T         0.0577
     68 H19       -11.5098    2.6045   13.0626 H         1 62T         0.0263
     69 H20       -12.3277    1.0343   12.7586 H         1 62T         0.0263
     70 H21       -13.8428    2.9434   12.2820 H         1 62T         0.0230
     71 H22       -13.6337    3.5362   13.9647 H         1 62T         0.0230
     72 H23       -14.4516    1.9661   13.6607 H         1 62T         0.0230
     73 H24       -14.8964   -5.1186   11.0234 H         1 62T         0.0930
     74 H25       -13.1845   -1.3377   12.0251 H         1 62T         0.0952
     75 H26       -11.0464   -2.5424   16.7536 H         1 62T         0.0284
     76 H27       -12.7771   -2.3967   17.2120 H         1 62T         0.0284
     77 H28       -16.2659   -5.1044   13.1175 H         1 62T         0.0952
     78 H29       -12.7784   -2.6977   14.8424 H         1 62T         0.0522
     79 H30       -11.4105   -1.5561   14.6135 H         1 62T         0.0522
     80 H31       -11.4581   -0.6981   18.3897 H         1 62T         0.0285
     81 H32       -10.7751   -0.1103   16.8357 H         1 62T         0.0285
     82 H33       -11.0786    0.8237   14.8162 H         1 62T         0.0287
     83 H34       -11.7402    2.3692   15.4487 H         1 62T         0.0287
     84 H35       -13.7280    7.6622   22.7847 H         1 62T         0.2095
     85 H36       -17.3584    2.3062   20.7719 H         1 62T         0.0480
@<TRIPOS>BOND
     1    2    1 1  
     2    1   17 1  
     3    1   35 1  
     4    1   37 1  
     5    2   42 2  
     6   43    2 am 
     7    4    3 1  
     8    3   43 1  
     9   44    4 1  
    10    6    5 ar 
    11   49    5 ar 
    12    7    6 ar 
    13   46    7 ar 
    14    8    9 1  
    15   47    8 1  
    16    9   48 1  
    17   10   11 1  
    18   44   10 1  
    19   11   43 1  
    20   12   13 2  
    21   12   16 1  
    22   37   12 1  
    23   13   41 1  
    24   14   15 1  
    25   16   14 2  
    26   14   41 1  
    27   15   38 1  
    28   15   39 1  
    29   15   40 1  
    30   17   33 1  
    31   17   36 1  
    32   18   19 1  
    33   36   18 1  
    34   20   21 1  
    35   20   32 2  
    36   33   20 am 
    37   21   22 ar 
    38   21   24 ar 
    39   22   27 1  
    40   22   30 ar 
    41   30   23 ar 
    42   31   23 ar 
    43   24   31 ar 
    44   25   34 1  
    45   35   25 1  
    46   27   26 1  
    47   27   28 1  
    48   27   29 1  
    49   33   34 1  
    50   45   44 1  
    51   46   45 ar 
    52   45   49 ar 
    53   46   47 1  
    54    3   50 1  
    55    3   51 1  
    56    4   52 1  
    57    4   53 1  
    58    5   54 1  
    59    6   55 1  
    60    7   56 1  
    61    8   57 1  
    62    8   58 1  
    63    9   59 1  
    64    9   60 1  
    65   10   61 1  
    66   10   62 1  
    67   11   63 1  
    68   11   64 1  
    69   13   65 1  
    70   16   66 1  
    71   17   67 1  
    72   18   68 1  
    73   18   69 1  
    74   19   70 1  
    75   19   71 1  
    76   19   72 1  
    77   23   73 1  
    78   24   74 1  
    79   25   75 1  
    80   25   76 1  
    81   30   77 1  
    82   34   78 1  
    83   34   79 1  
    84   35   80 1  
    85   35   81 1  
    86   36   82 1  
    87   36   83 1  
    88   48   84 1  
    89   49   85 1  
@<TRIPOS>SUBSTRUCTURE
     1 62T         1

