### 
### Created by X-TOOL on Mon Sep 10 21:13:29 2018
### 

@<TRIPOS>MOLECULE
5hmk_ligand
   88    92     1     0     0
SMALL
GAST_HUCK


@<TRIPOS>ATOM
      1 F1         17.4520    4.7330   23.1450 F         1 62Q        -0.2324
      2 F2         19.0890    3.2310   22.9000 F         1 62Q        -0.2324
      3 F3         17.0020    2.7330   23.5990 F         1 62Q        -0.2324
      4 F4         20.1200    4.9160   15.3680 F         1 62Q        -0.2120
      5 F5         18.1160    5.3230   16.1750 F         1 62Q        -0.2120
      6 F6         19.3720    6.9650   15.4470 F         1 62Q        -0.2120
      7 C1         14.2650    2.7170   16.7690 C.3       1 62Q        -0.0065
      8 C2         14.5710    4.1020   16.2130 C.3       1 62Q        -0.0302
      9 C3         15.1300    4.0480   14.7790 C.3       1 62Q         0.0341
     10 N1         16.2060    3.0090   14.6330 N.am      1 62Q        -0.2626
     11 C4         15.9070    1.6080   15.1690 C.3       1 62Q         0.0872
     12 C5         15.4810    1.7050   16.6860 C.3       1 62Q         0.2015
     13 C6         15.1710    0.2610   17.2130 C.2       1 62Q         0.2392
     14 N2         16.1620   -0.7240   17.3130 N.am      1 62Q        -0.2659
     15 O1         13.9900    0.0010   17.5080 O.2       1 62Q        -0.3408
     16 O2         16.5960    2.3820   17.3400 O.3       1 62Q        -0.2783
     17 C7         16.7540    2.5790   18.6220 C.ar      1 62Q         0.1284
     18 C8         17.8960    3.3520   18.8960 C.ar      1 62Q         0.0014
     19 C9         18.2140    3.6150   20.2600 C.ar      1 62Q        -0.0383
     20 C10        17.3720    3.1810   21.3060 C.ar      1 62Q         0.0326
     21 C11        16.2350    2.4230   20.9910 C.ar      1 62Q        -0.0383
     22 C12        15.9060    2.1260   19.6510 C.ar      1 62Q         0.0014
     23 C13        17.4260    3.2820   14.0420 C.2       1 62Q         0.2334
     24 O3         18.4430    2.5250   14.0720 O.2       1 62Q        -0.3698
     25 C14        17.6170    4.5780   13.3010 C.ar      1 62Q         0.1055
     26 C15        17.0770    4.7210   12.0160 C.ar      1 62Q         0.0599
     27 N3         17.2510    5.8100   11.2370 N.ar      1 62Q        -0.2590
     28 C16        17.9860    6.8120   11.6590 C.ar      1 62Q         0.0448
     29 C17        18.5430    6.7980   12.9540 C.ar      1 62Q        -0.0010
     30 C18        18.3880    5.6700   13.7890 C.ar      1 62Q         0.0864
     31 C19        15.7880   -2.0920   17.8150 C.3       1 62Q         0.0533
     32 C20        16.3650   -2.1920   19.2670 C.3       1 62Q         0.0452
     33 N4         17.8440   -2.0940   19.2160 N.pl3     1 62Q        -0.3081
     34 C21        18.2410   -0.7900   18.5360 C.3       1 62Q         0.0452
     35 C22        17.6300   -0.6360   17.0760 C.3       1 62Q         0.0533
     36 C23        18.4390   -2.4990   20.5040 C.ar      1 62Q         0.0707
     37 C24        19.1180   -1.5050   21.2970 C.ar      1 62Q        -0.0525
     38 C25        19.6760   -1.8170   22.5340 C.ar      1 62Q        -0.0850
     39 C26        19.5460   -3.0870   23.0710 C.ar      1 62Q        -0.0842
     40 C27        18.8820   -4.0900   22.3030 C.ar      1 62Q        -0.0444
     41 C28        18.3070   -3.8170   21.0100 C.ar      1 62Q         0.1091
     42 O4         17.6000   -4.8370   20.3360 O.3       1 62Q        -0.3215
     43 C32        17.9790   -5.7530   19.2960 C.3       1 62Q         0.0905
     44 C33        16.7690   -6.4430   18.5600 C.3       1 62Q         0.0715
     45 O5         16.4060   -5.9540   17.2320 O.3       1 62Q        -0.3924
     46 C35        17.7400    3.4870   22.7420 C.3       1 62Q         0.3627
     47 C36        19.0110    5.6860   15.1840 C.3       1 62Q         0.3908
     48 C37        15.0070    0.7750   14.2430 C.3       1 62Q        -0.0276
     49 C38        15.5070    0.7000   12.7890 C.3       1 62Q        -0.0539
     50 C39        14.8610   -0.4100   11.9220 C.3       1 62Q        -0.0652
     51 H1         13.4239    2.2941   16.2000 H         1 62Q         0.0287
     52 H2         13.9762    2.8244   17.8249 H         1 62Q         0.0287
     53 H3         15.3132    4.5879   16.8635 H         1 62Q         0.0284
     54 H4         13.6438    4.6938   16.2087 H         1 62Q         0.0284
     55 H5         15.5499    5.0323   14.5242 H         1 62Q         0.0522
     56 H6         14.3093    3.8090   14.0867 H         1 62Q         0.0522
     57 H7         16.8685    1.0737   15.1717 H         1 62Q         0.0579
     58 H8         18.5158    3.7363   18.0940 H         1 62Q         0.0651
     59 H9         19.1206    4.1592   20.4988 H         1 62Q         0.0825
     60 H10        15.5985    2.0593   21.7896 H         1 62Q         0.0825
     61 H11        15.0133    1.5573   19.4172 H         1 62Q         0.0651
     62 H12        16.4815    3.9053   11.6222 H         1 62Q         0.0952
     63 H13        18.1665    7.6581   11.0059 H         1 62Q         0.0930
     64 H14        19.0946    7.6600   13.3115 H         1 62Q         0.0952
     65 H15        16.2304   -2.8685   17.1737 H         1 62Q         0.0543
     66 H16        14.6942   -2.2078   17.8297 H         1 62Q         0.0543
     67 H17        16.0760   -3.1558   19.7114 H         1 62Q         0.0529
     68 H18        15.9635   -1.3709   19.8790 H         1 62Q         0.0529
     69 H19        19.3379   -0.7537   18.4619 H         1 62Q         0.0529
     70 H20        17.8872    0.0487   19.1536 H         1 62Q         0.0529
     71 H21        17.9013    0.3344   16.6348 H         1 62Q         0.0543
     72 H22        17.9729   -1.4472   16.4169 H         1 62Q         0.0543
     73 H23        19.1960   -0.4911   20.9216 H         1 62Q         0.0480
     74 H24        20.2189   -1.0565   23.0835 H         1 62Q         0.0489
     75 H25        19.9406   -3.3145   24.0547 H         1 62Q         0.0477
     76 H26        18.8075   -5.0933   22.7067 H         1 62Q         0.0501
     77 H27        18.6036   -6.5406   19.7427 H         1 62Q         0.0631
     78 H28        18.5658   -5.1998   18.5479 H         1 62Q         0.0631
     79 H29        15.8850   -6.3272   19.2043 H         1 62Q         0.0584
     80 H30        17.0126   -7.5110   18.4601 H         1 62Q         0.0584
     81 H31        15.6666   -6.4519   16.9036 H         1 62Q         0.2095
     82 H32        14.0026    1.2235   14.2411 H         1 62Q         0.0287
     83 H33        14.9510   -0.2481   14.6431 H         1 62Q         0.0287
     84 H34        16.5927    0.5245   12.8118 H         1 62Q         0.0263
     85 H35        15.3021    1.6683   12.3090 H         1 62Q         0.0263
     86 H36        15.2856   -0.3768   10.9078 H         1 62Q         0.0230
     87 H37        13.7742   -0.2487   11.8699 H         1 62Q         0.0230
     88 H38        15.0647   -1.3925   12.3727 H         1 62Q         0.0230
@<TRIPOS>BOND
     1   46    1 1  
     2   46    2 1  
     3   46    3 1  
     4   47    4 1  
     5   47    5 1  
     6   47    6 1  
     7    8    7 1  
     8   12    7 1  
     9    9    8 1  
    10   10    9 1  
    11   10   11 1  
    12   23   10 am 
    13   11   12 1  
    14   11   48 1  
    15   12   13 1  
    16   12   16 1  
    17   13   14 am 
    18   13   15 2  
    19   14   31 1  
    20   14   35 1  
    21   16   17 1  
    22   17   18 ar 
    23   17   22 ar 
    24   18   19 ar 
    25   19   20 ar 
    26   21   20 ar 
    27   20   46 1  
    28   22   21 ar 
    29   23   24 2  
    30   25   23 1  
    31   25   26 ar 
    32   30   25 ar 
    33   26   27 ar 
    34   28   27 ar 
    35   29   28 ar 
    36   30   29 ar 
    37   30   47 1  
    38   31   32 1  
    39   32   33 1  
    40   33   34 1  
    41   33   36 1  
    42   34   35 1  
    43   36   37 ar 
    44   36   41 ar 
    45   37   38 ar 
    46   38   39 ar 
    47   39   40 ar 
    48   40   41 ar 
    49   41   42 1  
    50   42   43 1  
    51   43   44 1  
    52   44   45 1  
    53   48   49 1  
    54   49   50 1  
    55    7   51 1  
    56    7   52 1  
    57    8   53 1  
    58    8   54 1  
    59    9   55 1  
    60    9   56 1  
    61   11   57 1  
    62   18   58 1  
    63   19   59 1  
    64   21   60 1  
    65   22   61 1  
    66   26   62 1  
    67   28   63 1  
    68   29   64 1  
    69   31   65 1  
    70   31   66 1  
    71   32   67 1  
    72   32   68 1  
    73   34   69 1  
    74   34   70 1  
    75   35   71 1  
    76   35   72 1  
    77   37   73 1  
    78   38   74 1  
    79   39   75 1  
    80   40   76 1  
    81   43   77 1  
    82   43   78 1  
    83   44   79 1  
    84   44   80 1  
    85   45   81 1  
    86   48   82 1  
    87   48   83 1  
    88   49   84 1  
    89   49   85 1  
    90   50   86 1  
    91   50   87 1  
    92   50   88 1  
@<TRIPOS>SUBSTRUCTURE
     1 62Q         1

