### 
### Created by X-TOOL on Mon Sep 10 21:13:28 2018
### 

@<TRIPOS>MOLECULE
5hmy_ligand
   35    36     1     0     0
SMALL
GAST_HUCK


@<TRIPOS>ATOM
      1 C1         18.0910   60.3600   13.3730 C.3       1 LNY         0.0316
      2 C2         18.0700   61.5180   12.4040 C.ar      1 LNY        -0.0379
      3 C3         17.8170   62.7980   12.8920 C.ar      1 LNY        -0.0572
      4 O1         20.4620   60.0360   13.5210 O.co2     1 LNY        -0.5664
      5 O2         18.4370   67.2990   13.2440 O.co2     1 LNY        -0.5664
      6 O3         19.7950   65.7330   12.6480 O.co2     1 LNY        -0.5664
      7 C11        18.0690   62.3810    6.3160 C.2       1 LNY        -0.0558
      8 C12        18.9550   61.3220    6.4190 C.2       1 LNY         0.0795
      9 C13        19.3400   60.5450    5.4040 C.1       1 LNY        -0.0558
     10 C14        19.6520   59.7580    4.5820 C.1       1 LNY        -0.0724
     11 C15        20.0100   58.6840    3.6470 C.3       1 LNY         0.1036
     12 C16        18.2390   61.3110   11.0220 C.ar      1 LNY        -0.0595
     13 O          19.3620   60.2450   15.3650 O.co2     1 LNY        -0.5664
     14 C          19.3950   60.2140   14.1290 C.2       1 LNY         0.0461
     15 C8         18.2400   62.4080   10.1360 C.ar      1 LNY        -0.0237
     16 C7         17.9610   63.6860   10.6430 C.ar      1 LNY        -0.0595
     17 C4         17.7880   63.8880   12.0200 C.ar      1 LNY        -0.0379
     18 C5         17.4340   65.2650   12.5580 C.3       1 LNY         0.0316
     19 C6         18.6380   66.1460   12.8280 C.2       1 LNY         0.0461
     20 C9         18.3630   62.2310    8.6520 C.2       1 LNY         0.0338
     21 C10        17.7600   62.9130    7.5810 C.2       1 LNY        -0.0635
     22 S          19.2890   60.8890    8.0420 S.3       1 LNY        -0.0240
     23 O4         21.2780   58.9550    3.0680 O.3       1 LNY        -0.3829
     24 H1         17.9128   59.4330   12.8083 H         1 LNY         0.0586
     25 H2         17.2818   60.5056   14.1038 H         1 LNY         0.0586
     26 H3         17.6422   62.9481   13.9512 H         1 LNY         0.0491
     27 H4         17.6636   62.7540    5.3766 H         1 LNY         0.0463
     28 H5         19.2513   58.6228    2.8529 H         1 LNY         0.0690
     29 H6         20.0524   57.7273    4.1882 H         1 LNY         0.0690
     30 H7         18.3687   60.3057   10.6378 H         1 LNY         0.0493
     31 H8         17.8783   64.5263    9.9632 H         1 LNY         0.0493
     32 H9         16.8800   65.1373   13.4996 H         1 LNY         0.0586
     33 H10        16.7929   65.7707   11.8210 H         1 LNY         0.0586
     34 H11        17.1111   63.7767    7.7184 H         1 LNY         0.0461
     35 H12        21.5048   58.2575    2.4642 H         1 LNY         0.2107
@<TRIPOS>BOND
     1    2    1 1  
     2    1   14 1  
     3    2    3 ar 
     4   12    2 ar 
     5   17    3 ar 
     6   14    4 ar 
     7   19    5 ar 
     8   19    6 ar 
     9    7    8 2  
    10   21    7 1  
    11    8    9 1  
    12    8   22 1  
    13    9   10 3  
    14   10   11 1  
    15   11   23 1  
    16   15   12 ar 
    17   14   13 ar 
    18   15   16 ar 
    19   20   15 1  
    20   16   17 ar 
    21   17   18 1  
    22   18   19 1  
    23   20   21 2  
    24   20   22 1  
    25    1   24 1  
    26    1   25 1  
    27    3   26 1  
    28    7   27 1  
    29   11   28 1  
    30   11   29 1  
    31   12   30 1  
    32   16   31 1  
    33   18   32 1  
    34   18   33 1  
    35   21   34 1  
    36   23   35 1  
@<TRIPOS>SUBSTRUCTURE
     1 LNY         1

