### 
### Created by X-TOOL on Mon Sep 10 21:13:27 2018
### 

@<TRIPOS>MOLECULE
5hn0_ligand
   28    29     1     0     0
SMALL
GAST_HUCK


@<TRIPOS>ATOM
      1 C1         18.0060   64.0090   10.4810 C.ar      1 LNN         0.0915
      2 C2         17.8990   64.2040   11.8640 C.ar      1 LNN        -0.0373
      3 C3         17.8710   63.0990   12.7230 C.ar      1 LNN        -0.0663
      4 O1         19.0240   59.6920   15.0580 O.co2     1 LNN        -0.5667
      5 O2         20.3170   60.4910   13.4640 O.co2     1 LNN        -0.5667
      6 C11        17.6200   62.9180    6.1650 C.ar      1 LNN        -0.0631
      7 C12        18.5530   61.9860    5.7000 C.ar      1 LNN        -0.0634
      8 C13        19.3150   61.2560    6.6190 C.ar      1 LNN        -0.0631
      9 C14        19.1840   61.4620    7.9940 C.ar      1 LNN        -0.0570
     10 C6         19.1820   60.2630   13.9500 C.2       1 LNN         0.0447
     11 C5         17.9200   60.6250   13.1820 C.3       1 LNN         0.0287
     12 C4         17.9850   61.7910   12.2270 C.ar      1 LNN        -0.0399
     13 C7         18.0530   61.5440   10.8470 C.ar      1 LNN        -0.0585
     14 C8         18.0890   62.6140    9.9380 C.ar      1 LNN         0.0062
     15 O          18.0120   65.0790    9.6280 O.3       1 LNN        -0.3346
     16 C9         18.2410   62.3840    8.4660 C.ar      1 LNN        -0.0231
     17 C10        17.4660   63.1130    7.5420 C.ar      1 LNN        -0.0570
     18 H1         17.8380   65.2080   12.2681 H         1 LNN         0.0527
     19 H2         17.7593   63.2563   13.7897 H         1 LNN         0.0539
     20 H3         17.0199   63.4858    5.4632 H         1 LNN         0.0613
     21 H4         18.6850   61.8301    4.6354 H         1 LNN         0.0603
     22 H5         20.0202   60.5167    6.2568 H         1 LNN         0.0613
     23 H6         19.8071   60.9128    8.6905 H         1 LNN         0.0607
     24 H7         17.1392   60.8516   13.9230 H         1 LNN         0.0568
     25 H8         17.6262   59.7399   12.5987 H         1 LNN         0.0568
     26 H9         18.0778   60.5238   10.4815 H         1 LNN         0.0535
     27 H10        17.9538   65.8833   10.1303 H         1 LNN         0.2476
     28 H11        16.7413   63.8340    7.9026 H         1 LNN         0.0607
@<TRIPOS>BOND
     1    1    2 ar 
     2   14    1 ar 
     3    1   15 1  
     4    2    3 ar 
     5   12    3 ar 
     6   10    4 ar 
     7   10    5 ar 
     8    7    6 ar 
     9    6   17 ar 
    10    8    7 ar 
    11    9    8 ar 
    12   16    9 ar 
    13   11   10 1  
    14   12   11 1  
    15   13   12 ar 
    16   14   13 ar 
    17   14   16 1  
    18   16   17 ar 
    19    2   18 1  
    20    3   19 1  
    21    6   20 1  
    22    7   21 1  
    23    8   22 1  
    24    9   23 1  
    25   11   24 1  
    26   11   25 1  
    27   13   26 1  
    28   15   27 1  
    29   17   28 1  
@<TRIPOS>SUBSTRUCTURE
     1 LNN         1

