### 
### Created by X-TOOL on Mon Sep 10 21:13:28 2018
### 

@<TRIPOS>MOLECULE
5hn7_ligand
   69    71     1     0     0
SMALL
GAST_HUCK


@<TRIPOS>ATOM
      1 CAA       -12.9000   15.2700  -24.9700 C.3       1 04M        -0.0653
      2 OAB       -19.9700   13.2880  -13.5060 O.co2     1 04M        -0.5643
      3 OAC       -21.9250    9.0630  -11.0060 O.2       1 04M        -0.1515
      4 OAD       -19.7880    9.0950   -9.7760 O.2       1 04M        -0.1515
      5 OAE       -19.4260   12.7520  -15.5840 O.co2     1 04M        -0.5643
      6 CAF       -16.7020   14.1930  -17.4990 C.ar      1 04M        -0.0771
      7 CAG       -16.9510   12.9700  -16.8910 C.ar      1 04M        -0.0689
      8 CAH       -17.4090   14.5410  -18.6450 C.ar      1 04M        -0.0401
      9 CAI       -18.6290    8.4850  -12.9480 C.ar      1 04M        -0.0413
     10 CAJ       -17.9260    8.9990  -14.0240 C.ar      1 04M        -0.0270
     11 CAK       -18.5950   12.4480  -18.5700 C.ar      1 04M        -0.0297
     12 CAL       -19.9190   10.5070  -12.8290 C.ar      1 04M        -0.0295
     13 CAM       -13.8760   15.0150  -23.8180 C.3       1 04M        -0.0559
     14 CAN       -15.3090   15.3960  -24.2150 C.3       1 04M        -0.0533
     15 CAO       -16.3460   14.4080  -23.6550 C.3       1 04M        -0.0531
     16 CAP       -17.6650   14.4550  -24.4450 C.3       1 04M        -0.0530
     17 CAQ       -18.8500   14.7330  -23.5200 C.3       1 04M        -0.0506
     18 CAR       -19.1440   13.5040  -22.6690 C.3       1 04M        -0.0251
     19 CAS       -18.2330   13.4510  -21.4460 C.3       1 04M         0.0703
     20 CAT       -21.3130    5.2310  -12.2800 C.3       1 04M         0.0647
     21 CAU       -22.6730    6.0350  -10.7670 C.3       1 04M         0.0647
     22 CAV       -18.1390   10.9090  -16.7780 C.3       1 04M         0.1030
     23 CAW       -20.2770    6.3170  -12.2270 C.3       1 04M         0.0530
     24 CAX       -21.3990    6.3680  -10.0280 C.3       1 04M         0.0530
     25 OAY       -22.3010    6.1800  -12.1180 O.3       1 04M        -0.3766
     26 OAZ       -18.9730   13.9830  -20.3430 O.3       1 04M        -0.3198
     27 OBA       -17.4510   10.7270  -15.5390 O.3       1 04M        -0.3021
     28 CBB       -19.5410   12.4800  -14.3650 C.2       1 04M         0.0582
     29 CBC       -17.8850   12.0970  -17.4350 C.ar      1 04M        -0.0216
     30 CBD       -18.3400   13.6640  -19.1870 C.ar      1 04M         0.0845
     31 CBE       -19.6700    9.2140  -12.3930 C.ar      1 04M         0.1008
     32 CBF       -18.2370   10.2530  -14.5340 C.ar      1 04M         0.1093
     33 CBG       -19.2010   11.0440  -13.8950 C.ar      1 04M         0.0409
     34 NBH       -20.4100    6.9790  -10.9360 N.am      1 04M        -0.2308
     35 SBI       -20.4980    8.5970  -11.0000 S.o2      1 04M         0.0664
     36 H1        -11.8833   14.9888  -24.6582 H         1 04M         0.0230
     37 H2        -12.9195   16.3367  -25.2378 H         1 04M         0.0230
     38 H3        -13.1960   14.6677  -25.8415 H         1 04M         0.0230
     39 H4        -15.9638   14.8700  -17.0846 H         1 04M         0.0572
     40 H5        -16.4153   12.6955  -15.9895 H         1 04M         0.0465
     41 H6        -17.2328   15.5007  -19.1173 H         1 04M         0.0486
     42 H7        -18.3665    7.5154  -12.5404 H         1 04M         0.0630
     43 H8        -17.1272    8.4188  -14.4717 H         1 04M         0.0550
     44 H9        -19.3449   11.7775  -18.9739 H         1 04M         0.0479
     45 H10       -20.6780   11.1040  -12.3365 H         1 04M         0.0642
     46 H11       -13.5717   15.6169  -22.9490 H         1 04M         0.0263
     47 H12       -13.8482   13.9478  -23.5528 H         1 04M         0.0263
     48 H13       -15.3830   15.4037  -25.3125 H         1 04M         0.0265
     49 H14       -15.5298   16.4007  -23.8255 H         1 04M         0.0265
     50 H15       -16.5507   14.6639  -22.6049 H         1 04M         0.0265
     51 H16       -15.9338   13.3897  -23.7107 H         1 04M         0.0265
     52 H17       -17.8189   13.4876  -24.9454 H         1 04M         0.0265
     53 H18       -17.6036   15.2527  -25.1999 H         1 04M         0.0265
     54 H19       -19.7354   14.9777  -24.1252 H         1 04M         0.0266
     55 H20       -18.6087   15.5818  -22.8633 H         1 04M         0.0266
     56 H21       -18.9837   12.6005  -23.2755 H         1 04M         0.0291
     57 H22       -20.1915   13.5405  -22.3352 H         1 04M         0.0291
     58 H23       -17.3312   14.0560  -21.6214 H         1 04M         0.0614
     59 H24       -17.9420   12.4108  -21.2377 H         1 04M         0.0614
     60 H25       -21.2468    4.5043  -11.4569 H         1 04M         0.0576
     61 H26       -21.3557    4.6952  -13.2397 H         1 04M         0.0576
     62 H27       -23.4790    6.7348  -10.5013 H         1 04M         0.0576
     63 H28       -22.9963    5.0054  -10.5540 H         1 04M         0.0576
     64 H29       -19.2190   10.8591  -16.5754 H         1 04M         0.0779
     65 H30       -17.8530   10.0846  -17.4477 H         1 04M         0.0779
     66 H31       -20.4463    7.0389  -13.0395 H         1 04M         0.0501
     67 H32       -19.2711    5.8830  -12.3257 H         1 04M         0.0501
     68 H33       -20.9768    5.4452   -9.6036 H         1 04M         0.0501
     69 H34       -21.6273    7.0741   -9.2161 H         1 04M         0.0501
@<TRIPOS>BOND
     1   13    1 1  
     2   28    2 ar 
     3   35    3 2  
     4   35    4 2  
     5   28    5 ar 
     6    7    6 ar 
     7    6    8 ar 
     8   29    7 ar 
     9   30    8 ar 
    10    9   10 ar 
    11   31    9 ar 
    12   10   32 ar 
    13   29   11 ar 
    14   11   30 ar 
    15   31   12 ar 
    16   12   33 ar 
    17   14   13 1  
    18   15   14 1  
    19   16   15 1  
    20   17   16 1  
    21   18   17 1  
    22   19   18 1  
    23   26   19 1  
    24   23   20 1  
    25   20   25 1  
    26   24   21 1  
    27   21   25 1  
    28   27   22 1  
    29   22   29 1  
    30   34   23 1  
    31   34   24 1  
    32   30   26 1  
    33   32   27 1  
    34   33   28 1  
    35   35   31 1  
    36   33   32 ar 
    37   34   35 am 
    38    1   36 1  
    39    1   37 1  
    40    1   38 1  
    41    6   39 1  
    42    7   40 1  
    43    8   41 1  
    44    9   42 1  
    45   10   43 1  
    46   11   44 1  
    47   12   45 1  
    48   13   46 1  
    49   13   47 1  
    50   14   48 1  
    51   14   49 1  
    52   15   50 1  
    53   15   51 1  
    54   16   52 1  
    55   16   53 1  
    56   17   54 1  
    57   17   55 1  
    58   18   56 1  
    59   18   57 1  
    60   19   58 1  
    61   19   59 1  
    62   20   60 1  
    63   20   61 1  
    64   21   62 1  
    65   21   63 1  
    66   22   64 1  
    67   22   65 1  
    68   23   66 1  
    69   23   67 1  
    70   24   68 1  
    71   24   69 1  
@<TRIPOS>SUBSTRUCTURE
     1 04M         1

