### 
### Created by X-TOOL on Mon Sep 10 21:13:30 2018
### 

@<TRIPOS>MOLECULE
5hn8_ligand
   54    55     1     0     0
SMALL
GAST_HUCK


@<TRIPOS>ATOM
      1 CAA        -5.7500  -62.9740  -82.5440 C.3       1 HXK        -0.0653
      2 OAB         3.1960  -51.7530  -74.8090 O.co2     1 HXK        -0.5629
      3 OAC         4.6420  -53.3470  -74.2730 O.co2     1 HXK        -0.5629
      4 OAD         4.6240  -60.3810  -76.1600 O.3       1 HXK        -0.3376
      5 CAE         0.4530  -54.2850  -71.3690 C.ar      1 HXK        -0.0651
      6 CAF         0.5560  -52.9580  -71.7370 C.ar      1 HXK        -0.0650
      7 CAG         1.3420  -55.1780  -71.9210 C.ar      1 HXK        -0.0458
      8 CAH         1.5110  -52.5320  -72.6160 C.ar      1 HXK        -0.0534
      9 CAI         3.5450  -58.9580  -74.5640 C.ar      1 HXK        -0.0426
     10 CAJ         2.2490  -60.5100  -75.9120 C.ar      1 HXK        -0.0127
     11 CAK         1.1420  -59.0670  -74.3070 C.ar      1 HXK        -0.0423
     12 CAL        -4.5910  -63.8550  -82.0750 C.3       1 HXK        -0.0559
     13 CAM        -4.3020  -63.5810  -80.5940 C.3       1 HXK        -0.0533
     14 CAN        -2.9650  -62.8090  -80.4210 C.3       1 HXK        -0.0531
     15 CAO        -2.2520  -63.0620  -79.0700 C.3       1 HXK        -0.0530
     16 CAP        -0.9240  -62.3020  -79.0000 C.3       1 HXK        -0.0506
     17 CAQ        -0.4280  -62.2040  -77.5640 C.3       1 HXK        -0.0251
     18 CAR        -0.4270  -60.7460  -77.0690 C.3       1 HXK         0.0700
     19 CAS         2.4300  -57.4380  -72.8670 C.3       1 HXK         0.0367
     20 OAT        -0.1670  -60.6050  -75.6240 O.3       1 HXK        -0.3225
     21 SAU         3.3720  -55.9630  -73.4410 S.3       1 HXK        -0.0845
     22 CAV         3.4910  -52.8100  -74.1770 C.2       1 HXK         0.0594
     23 CAW         3.4820  -59.9540  -75.5500 C.ar      1 HXK         0.0725
     24 CAX         2.3680  -58.5130  -73.9440 C.ar      1 HXK        -0.0483
     25 CAY         1.0650  -60.0680  -75.2920 C.ar      1 HXK         0.0760
     26 CAZ         2.3040  -54.7430  -72.8150 C.ar      1 HXK         0.0322
     27 CBA         2.3970  -53.4040  -73.1780 C.ar      1 HXK         0.0223
     28 H1         -5.9550  -63.1727  -83.6063 H         1 HXK         0.0230
     29 H2         -5.4816  -61.9152  -82.4142 H         1 HXK         0.0230
     30 H3         -6.6470  -63.2006  -81.9489 H         1 HXK         0.0230
     31 H4          4.4094  -61.0523  -76.7970 H         1 HXK         0.2477
     32 H5         -0.3050  -54.6129  -70.6668 H         1 HXK         0.0621
     33 H6         -0.1373  -52.2374  -71.3185 H         1 HXK         0.0566
     34 H7          1.2885  -56.2273  -71.6542 H         1 HXK         0.0572
     35 H8          1.5659  -51.4801  -72.8721 H         1 HXK         0.0633
     36 H9          4.5015  -58.5331  -74.2818 H         1 HXK         0.0390
     37 H10         2.2061  -61.2825  -76.6713 H         1 HXK         0.0407
     38 H11         0.2352  -58.7218  -73.8236 H         1 HXK         0.0390
     39 H12        -3.6946  -63.6282  -82.6708 H         1 HXK         0.0263
     40 H13        -4.8599  -64.9136  -82.2056 H         1 HXK         0.0263
     41 H14        -4.2363  -64.5388  -80.0571 H         1 HXK         0.0265
     42 H15        -5.1214  -62.9800  -80.1728 H         1 HXK         0.0265
     43 H16        -3.1759  -61.7325  -80.5026 H         1 HXK         0.0265
     44 H17        -2.2852  -63.1119  -81.2310 H         1 HXK         0.0265
     45 H18        -2.0562  -64.1391  -78.9626 H         1 HXK         0.0265
     46 H19        -2.9034  -62.7242  -78.2505 H         1 HXK         0.0265
     47 H20        -1.0680  -61.2879  -79.4010 H         1 HXK         0.0266
     48 H21        -0.1735  -62.8322  -79.6046 H         1 HXK         0.0266
     49 H22         0.5966  -62.6006  -77.5113 H         1 HXK         0.0291
     50 H23        -1.0863  -62.8015  -76.9162 H         1 HXK         0.0291
     51 H24        -1.4106  -60.3052  -77.2884 H         1 HXK         0.0613
     52 H25         0.3521  -60.1951  -77.6163 H         1 HXK         0.0613
     53 H26         1.4058  -57.1303  -72.6095 H         1 HXK         0.0562
     54 H27         2.9233  -57.8528  -71.9757 H         1 HXK         0.0562
@<TRIPOS>BOND
     1   12    1 1  
     2   22    2 ar 
     3   22    3 ar 
     4   23    4 1  
     5    6    5 ar 
     6    5    7 ar 
     7    8    6 ar 
     8    7   26 ar 
     9   27    8 ar 
    10    9   23 ar 
    11   24    9 ar 
    12   23   10 ar 
    13   25   10 ar 
    14   24   11 ar 
    15   11   25 ar 
    16   13   12 1  
    17   14   13 1  
    18   15   14 1  
    19   16   15 1  
    20   17   16 1  
    21   18   17 1  
    22   20   18 1  
    23   21   19 1  
    24   19   24 1  
    25   25   20 1  
    26   26   21 1  
    27   22   27 1  
    28   26   27 ar 
    29    1   28 1  
    30    1   29 1  
    31    1   30 1  
    32    4   31 1  
    33    5   32 1  
    34    6   33 1  
    35    7   34 1  
    36    8   35 1  
    37    9   36 1  
    38   10   37 1  
    39   11   38 1  
    40   12   39 1  
    41   12   40 1  
    42   13   41 1  
    43   13   42 1  
    44   14   43 1  
    45   14   44 1  
    46   15   45 1  
    47   15   46 1  
    48   16   47 1  
    49   16   48 1  
    50   17   49 1  
    51   17   50 1  
    52   18   51 1  
    53   18   52 1  
    54   19   53 1  
    55   19   54 1  
@<TRIPOS>SUBSTRUCTURE
     1 HXK         1

