### 
### Created by X-TOOL on Mon Sep 10 21:13:27 2018
### 

@<TRIPOS>MOLECULE
5hn9_ligand
   61    62     1     0     0
SMALL
GAST_HUCK


@<TRIPOS>ATOM
      1 CAA        34.4830   12.4240    8.9220 C.3       1 04W        -0.0653
      2 OAB        35.3410    4.5670   22.4860 O.co2     1 04W        -0.2581
      3 OAC        30.2960    4.3300   24.7100 O.2       1 04W        -0.1543
      4 OAD        36.1510    5.7890   24.1780 O.co2     1 04W        -0.2581
      5 OAE        31.5620    3.7750   22.8000 O.2       1 04W        -0.1543
      6 CAF        34.0810    7.4680   19.2410 C.ar      1 04W        -0.0771
      7 CAG        34.2040    7.7180   20.6190 C.ar      1 04W        -0.0688
      8 CAH        34.4940    8.4190   18.3030 C.ar      1 04W        -0.0401
      9 CAI        31.3450    7.0520   23.8790 C.ar      1 04W        -0.0296
     10 CAJ        32.3750    7.9820   23.8740 C.ar      1 04W        -0.0199
     11 CAK        35.1660    9.8600   20.1080 C.ar      1 04W        -0.0297
     12 CAL        32.9250    5.3200   23.4470 C.ar      1 04W        -0.0124
     13 CAM        33.3130   12.2810    9.8920 C.3       1 04W        -0.0559
     14 CAN        33.0530   13.6060   10.6470 C.3       1 04W        -0.0533
     15 CAO        33.9740   13.7720   11.8670 C.3       1 04W        -0.0531
     16 CAP        35.0600   12.6910   11.8870 C.3       1 04W        -0.0531
     17 CAQ        35.0100   11.8530   13.1760 C.3       1 04W        -0.0531
     18 CAR        34.6150   12.7080   14.3720 C.3       1 04W        -0.0530
     19 CAS        35.4090   12.3180   15.6140 C.3       1 04W        -0.0506
     20 CAT        34.6550   12.7250   16.8750 C.3       1 04W        -0.0251
     21 CAU        34.2590   11.4810   17.6610 C.3       1 04W         0.0703
     22 CAV        34.8660    9.2750   22.4310 C.3       1 04W         0.1046
     23 OAW        35.4030   10.5930   17.8380 O.3       1 04W        -0.3198
     24 OAX        34.7270    8.4010   23.6240 O.3       1 04W        -0.2977
     25 CAY        35.3030    5.5620   23.2790 C.2       1 04W         0.3730
     26 CAZ        34.7750    8.9090   21.0570 C.ar      1 04W        -0.0213
     27 CBA        35.0490    9.6190   18.7380 C.ar      1 04W         0.0845
     28 CBB        31.6880    5.7100   23.6480 C.ar      1 04W         0.1301
     29 CBC        33.6720    7.5460   23.6060 C.ar      1 04W         0.1212
     30 CBD        33.9270    6.1860   23.4730 C.ar      1 04W         0.1118
     31 NBE        30.9370    4.7350   23.5600 N.2       1 04W         0.0350
     32 H1         34.6453   11.4694    8.4000 H         1 04W         0.0230
     33 H2         35.3911   12.6956    9.4802 H         1 04W         0.0230
     34 H3         34.2558   13.2099    8.1867 H         1 04W         0.0230
     35 H4         33.6614    6.5277   18.9021 H         1 04W         0.0572
     36 H5         33.8552    6.9854   21.3379 H         1 04W         0.0465
     37 H6         34.3826    8.2228   17.2427 H         1 04W         0.0486
     38 H7         30.3174    7.3494   24.0541 H         1 04W         0.0685
     39 H8         32.1749    9.0283   24.0748 H         1 04W         0.0569
     40 H9         35.5699   10.8078   20.4451 H         1 04W         0.0479
     41 H10        33.1299    4.2727   23.2567 H         1 04W         0.0702
     42 H11        33.5451   11.4911   10.6215 H         1 04W         0.0263
     43 H12        32.4098   12.0054    9.3279 H         1 04W         0.0263
     44 H13        32.0075   13.6194   10.9885 H         1 04W         0.0265
     45 H14        33.2243   14.4457    9.9575 H         1 04W         0.0265
     46 H15        33.3726   13.6946   12.7848 H         1 04W         0.0265
     47 H16        34.4524   14.7616   11.8245 H         1 04W         0.0265
     48 H17        36.0452   13.1750   11.8153 H         1 04W         0.0265
     49 H18        34.9150   12.0249   11.0237 H         1 04W         0.0265
     50 H19        36.0029   11.4164   13.3591 H         1 04W         0.0265
     51 H20        34.2721   11.0468   13.0517 H         1 04W         0.0265
     52 H21        33.5425   12.5697   14.5736 H         1 04W         0.0265
     53 H22        34.8108   13.7648   14.1381 H         1 04W         0.0265
     54 H23        36.3846   12.8258   15.5950 H         1 04W         0.0266
     55 H24        35.5626   11.2288   15.6190 H         1 04W         0.0266
     56 H25        33.7500   13.2842   16.5954 H         1 04W         0.0291
     57 H26        35.3011   13.3608   17.4981 H         1 04W         0.0291
     58 H27        33.4685   10.9458   17.1146 H         1 04W         0.0614
     59 H28        33.8815   11.7837   18.6488 H         1 04W         0.0614
     60 H29        35.8637    9.7270   22.5325 H         1 04W         0.0782
     61 H30        34.0969   10.0502   22.5634 H         1 04W         0.0782
@<TRIPOS>BOND
     1   13    1 1  
     2   25    2 ar 
     3   31    3 2  
     4   25    4 ar 
     5   31    5 2  
     6    7    6 ar 
     7    6    8 ar 
     8   26    7 ar 
     9   27    8 ar 
    10    9   10 ar 
    11   28    9 ar 
    12   10   29 ar 
    13   26   11 ar 
    14   11   27 ar 
    15   28   12 ar 
    16   12   30 ar 
    17   14   13 1  
    18   15   14 1  
    19   16   15 1  
    20   17   16 1  
    21   18   17 1  
    22   19   18 1  
    23   20   19 1  
    24   21   20 1  
    25   23   21 1  
    26   24   22 1  
    27   22   26 1  
    28   27   23 1  
    29   29   24 1  
    30   30   25 1  
    31   28   31 1  
    32   29   30 ar 
    33    1   32 1  
    34    1   33 1  
    35    1   34 1  
    36    6   35 1  
    37    7   36 1  
    38    8   37 1  
    39    9   38 1  
    40   10   39 1  
    41   11   40 1  
    42   12   41 1  
    43   13   42 1  
    44   13   43 1  
    45   14   44 1  
    46   14   45 1  
    47   15   46 1  
    48   15   47 1  
    49   16   48 1  
    50   16   49 1  
    51   17   50 1  
    52   17   51 1  
    53   18   52 1  
    54   18   53 1  
    55   19   54 1  
    56   19   55 1  
    57   20   56 1  
    58   20   57 1  
    59   21   58 1  
    60   21   59 1  
    61   22   60 1  
    62   22   61 1  
@<TRIPOS>SUBSTRUCTURE
     1 04W         1

