### 
### Created by X-TOOL on Mon Sep 10 21:13:28 2018
### 

@<TRIPOS>MOLECULE
5hna_ligand
   65    66     1     0     0
SMALL
GAST_HUCK


@<TRIPOS>ATOM
      1 OAC       -33.1110   -5.6030   19.7940 O.co2     1 63D        -0.5643
      2 CAZ       -33.9260   -6.4620   20.2160 C.2       1 63D         0.0583
      3 OAF       -35.1390   -6.4080   19.8690 O.co2     1 63D        -0.5643
      4 CBF       -33.5960   -7.0810   21.3920 C.ar      1 63D         0.0409
      5 CAM       -32.8660   -6.1190   22.0150 C.ar      1 63D        -0.0290
      6 CBG       -32.3900   -6.1550   23.2550 C.ar      1 63D         0.1142
      7 SBH       -31.4310   -4.6740   23.4030 S.o2      1 63D         0.0621
      8 OAD       -32.3200   -3.5110   22.9690 O.2       1 63D        -0.1518
      9 OAE       -30.8060   -4.4120   24.7890 O.2       1 63D        -0.1518
     10 NAB       -30.2740   -4.7420   22.3640 N.am      1 63D        -0.2620
     11 CBD       -32.7080   -7.2760   24.0090 C.ar      1 63D         0.0611
     12 CL1       -32.1230   -7.4100   25.5610 Cl        1 63D        -0.0691
     13 CAL       -33.5290   -8.2750   23.4270 C.ar      1 63D        -0.0132
     14 CBE       -34.0880   -8.1520   22.1290 C.ar      1 63D         0.1096
     15 OAY       -34.8190   -9.1740   21.4880 O.3       1 63D        -0.3024
     16 CAW       -35.0920   -9.1770   20.0160 C.3       1 63D         0.1007
     17 CBB       -35.4920  -10.3790   19.4230 C.ar      1 63D        -0.0302
     18 CAK       -35.0740  -10.7840   18.1350 C.ar      1 63D        -0.0407
     19 CAI       -36.3660  -11.1650   20.1640 C.ar      1 63D        -0.0410
     20 CBA       -36.8180  -12.3810   19.6800 C.ar      1 63D         0.0725
     21 OAG       -37.6730  -13.1480   20.4250 O.3       1 63D        -0.3376
     22 CAJ       -36.3740  -12.7920   18.4280 C.ar      1 63D        -0.0127
     23 CBC       -35.4570  -12.0540   17.6840 C.ar      1 63D         0.0760
     24 OAX       -35.2190  -12.5930   16.4630 O.3       1 63D        -0.3225
     25 CAV       -34.5510  -11.9210   15.4150 C.3       1 63D         0.0700
     26 CAU       -35.1500  -12.6340   14.2000 C.3       1 63D        -0.0251
     27 CAT       -34.6890  -12.1240   12.8540 C.3       1 63D        -0.0506
     28 CAS       -35.3790  -13.0260   11.8320 C.3       1 63D        -0.0530
     29 CAR       -35.0600  -12.6240   10.3990 C.3       1 63D        -0.0531
     30 CAQ       -33.5620  -12.6840   10.2870 C.3       1 63D        -0.0531
     31 CAP       -33.1390  -12.3430    8.8870 C.3       1 63D        -0.0531
     32 CAO       -31.6080  -12.3720    8.9110 C.3       1 63D        -0.0533
     33 CAN       -31.1030  -11.2830    9.8510 C.3       1 63D        -0.0559
     34 CAA       -29.5690  -11.2870    9.8510 C.3       1 63D        -0.0653
     35 H1        -32.6488   -5.2269   21.4388 H         1 63D         0.0642
     36 H2        -29.6190   -3.9895   22.2951 H         1 63D         0.1634
     37 H3        -30.1857   -5.5382   21.7654 H         1 63D         0.1634
     38 H4        -33.7386   -9.1717   23.9988 H         1 63D         0.0555
     39 H5        -34.1688   -8.8554   19.5118 H         1 63D         0.0777
     40 H6        -35.8873   -8.4403   19.8297 H         1 63D         0.0777
     41 H7        -34.4735  -10.1299   17.5131 H         1 63D         0.0390
     42 H8        -36.6992  -10.8208   21.1364 H         1 63D         0.0390
     43 H9        -37.2585  -13.3720   21.2500 H         1 63D         0.2477
     44 H10       -36.7552  -13.7197   18.0166 H         1 63D         0.0407
     45 H11       -33.4615  -12.0614   15.4719 H         1 63D         0.0613
     46 H12       -34.7823  -10.8456   15.4096 H         1 63D         0.0613
     47 H13       -36.2435  -12.5243   14.2476 H         1 63D         0.0291
     48 H14       -34.8851  -13.6995   14.2676 H         1 63D         0.0291
     49 H15       -33.5956  -12.2038   12.7641 H         1 63D         0.0266
     50 H16       -34.9931  -11.0764   12.7126 H         1 63D         0.0266
     51 H17       -36.4668  -12.9642   11.9829 H         1 63D         0.0265
     52 H18       -35.0449  -14.0618   11.9916 H         1 63D         0.0265
     53 H19       -35.4197  -11.6043   10.1970 H         1 63D         0.0265
     54 H20       -35.5264  -13.3245    9.6907 H         1 63D         0.0265
     55 H21       -33.2183  -13.6992   10.5346 H         1 63D         0.0265
     56 H22       -33.1149  -11.9642   10.9884 H         1 63D         0.0265
     57 H23       -33.5013  -11.3427    8.6075 H         1 63D         0.0265
     58 H24       -33.5276  -13.0860    8.1750 H         1 63D         0.0265
     59 H25       -31.2202  -12.1925    7.8974 H         1 63D         0.0265
     60 H26       -31.2637  -13.3543    9.2667 H         1 63D         0.0265
     61 H27       -31.4712  -11.4763   10.8693 H         1 63D         0.0263
     62 H28       -31.4682  -10.3034    9.5088 H         1 63D         0.0263
     63 H29       -29.2003  -10.5025   10.5282 H         1 63D         0.0230
     64 H30       -29.2018  -11.0942    8.8322 H         1 63D         0.0230
     65 H31       -29.2049  -12.2671   10.1927 H         1 63D         0.0230
@<TRIPOS>BOND
     1    1    2 ar 
     2    2    3 ar 
     3    2    4 1  
     4    4    5 ar 
     5    4   14 ar 
     6    5    6 ar 
     7    6    7 1  
     8    6   11 ar 
     9    7    8 2  
    10    7    9 2  
    11    7   10 am 
    12   11   12 1  
    13   11   13 ar 
    14   13   14 ar 
    15   14   15 1  
    16   15   16 1  
    17   16   17 1  
    18   17   18 ar 
    19   17   19 ar 
    20   18   23 ar 
    21   19   20 ar 
    22   20   21 1  
    23   20   22 ar 
    24   22   23 ar 
    25   23   24 1  
    26   24   25 1  
    27   25   26 1  
    28   26   27 1  
    29   27   28 1  
    30   28   29 1  
    31   29   30 1  
    32   30   31 1  
    33   31   32 1  
    34   32   33 1  
    35   33   34 1  
    36    5   35 1  
    37   10   36 1  
    38   10   37 1  
    39   13   38 1  
    40   16   39 1  
    41   16   40 1  
    42   18   41 1  
    43   19   42 1  
    44   21   43 1  
    45   22   44 1  
    46   25   45 1  
    47   25   46 1  
    48   26   47 1  
    49   26   48 1  
    50   27   49 1  
    51   27   50 1  
    52   28   51 1  
    53   28   52 1  
    54   29   53 1  
    55   29   54 1  
    56   30   55 1  
    57   30   56 1  
    58   31   57 1  
    59   31   58 1  
    60   32   59 1  
    61   32   60 1  
    62   33   61 1  
    63   33   62 1  
    64   34   63 1  
    65   34   64 1  
    66   34   65 1  
@<TRIPOS>SUBSTRUCTURE
     1 63D         1

