### 
### Created by X-TOOL on Mon Sep 10 21:13:27 2018
### 

@<TRIPOS>MOLECULE
5hng_ligand
   26    28     1     0     0
SMALL
GAST_HUCK


@<TRIPOS>ATOM
      1 C1         31.4290   24.4900    5.9150 C.ar      1 62O         0.0731
      2 C2         32.8340   24.3570    5.9830 C.ar      1 62O         0.0244
      3 C7         32.3840   26.3250    5.1600 C.2       1 62O         0.1637
      4 C8         31.1650   22.2790    6.8370 C.ar      1 62O         0.0794
      5 C9         32.5660   22.1370    6.8950 C.ar      1 62O        -0.0443
      6 C10        32.5320   27.6770    4.6000 C.2       1 62O         0.1371
      7 C12        33.7370   28.3900    4.4460 C.2       1 62O        -0.0286
      8 C14        29.7850   20.3280    6.3950 C.3       1 62O         0.0583
      9 C15        33.4450   29.5930    3.9070 C.2       1 62O         0.0045
     10 N3         31.1770   25.7430    5.4030 N.pl3     1 62O        -0.2521
     11 C4         30.6050   23.4550    6.3540 C.ar      1 62O        -0.0119
     12 N5         33.3580   25.5140    5.4990 N.2       1 62O        -0.3095
     13 C6         33.3920   23.1590    6.4750 C.ar      1 62O        -0.0657
     14 O11        30.3350   21.3000    7.3010 O.3       1 62O        -0.3264
     15 N13        31.5490   28.4280    4.1570 N.pl3     1 62O        -0.2070
     16 N16        32.1120   29.6340    3.7110 N.2       1 62O        -0.2107
     17 H1         32.9980   21.2173    7.2727 H         1 62O         0.0475
     18 H2         34.7303   28.0334    4.7147 H         1 62O         0.0433
     19 H3         29.1459   19.6275    6.9525 H         1 62O         0.0576
     20 H4         30.6027   19.7731    5.9118 H         1 62O         0.0576
     21 H5         29.1856   20.8398    5.6277 H         1 62O         0.0576
     22 H6         34.1556   30.3845    3.6736 H         1 62O         0.0683
     23 H7         30.2507   26.1611    5.2354 H         1 62O         0.2283
     24 H8         29.5275   23.5677    6.3185 H         1 62O         0.0452
     25 H9         34.4685   23.0413    6.5231 H         1 62O         0.0540
     26 H10        30.5499   28.1780    4.1401 H         1 62O         0.2566
@<TRIPOS>BOND
     1    1    2 ar 
     2    1   10 1  
     3   11    1 ar 
     4    2   12 1  
     5    2   13 ar 
     6    3    6 1  
     7   10    3 1  
     8    3   12 2  
     9    4    5 ar 
    10    4   11 ar 
    11    4   14 1  
    12    5   13 ar 
    13    6    7 2  
    14    6   15 1  
    15    7    9 1  
    16   14    8 1  
    17    9   16 2  
    18   15   16 1  
    19    5   17 1  
    20    7   18 1  
    21    8   19 1  
    22    8   20 1  
    23    8   21 1  
    24    9   22 1  
    25   10   23 1  
    26   11   24 1  
    27   13   25 1  
    28   15   26 1  
@<TRIPOS>SUBSTRUCTURE
     1 62O         1

