### 
### Created by X-TOOL on Mon Sep 10 21:13:30 2018
### 

@<TRIPOS>MOLECULE
5ho6_ligand
   62    67     1     0     0
SMALL
GAST_HUCK


@<TRIPOS>ATOM
      1 C6         14.4690   -9.6600   60.7880 C.ar      1 63K        -0.0512
      2 C10        16.2020  -11.3170   60.4570 C.ar      1 63K        -0.0512
      3 C20        21.9190  -11.3730   59.2310 C.ar      1 63K        -0.0687
      4 C7         13.7970  -10.5620   61.5870 C.ar      1 63K        -0.0250
      5 C9         15.5330  -12.2070   61.2620 C.ar      1 63K        -0.0250
      6 C19        21.3500  -10.9320   58.0620 C.ar      1 63K        -0.0606
      7 C2         16.3560   -7.7360   59.7260 C.2       1 63K        -0.0178
      8 C1         17.1730   -6.9670   59.0020 C.2       1 63K         0.0064
      9 C21        19.4120  -12.3250   58.3720 C.ar      1 63K        -0.0393
     10 C5         15.6680  -10.0650   60.2320 C.ar      1 63K         0.0033
     11 C23        21.2210  -12.3050   59.9790 C.ar      1 63K         0.0007
     12 C8         14.3320  -11.8190   61.8230 C.ar      1 63K         0.1352
     13 C22        19.9860  -12.7650   59.5470 C.ar      1 63K         0.0423
     14 C18        20.1230  -11.3920   57.6330 C.ar      1 63K         0.0235
     15 C3         16.4800   -9.1770   59.4000 C.2       1 63K         0.0937
     16 C11        18.0400   -7.5240   58.0370 C.2       1 63K         0.1794
     17 C13        18.9790   -9.1560   56.8310 C.2       1 63K         0.2460
     18 C25        20.7760  -13.6710   61.6510 C.2       1 63K         0.2092
     19 C28        19.8600  -15.1130   63.3500 C.2       1 63K         0.3019
     20 C34        16.6780  -16.5910   67.3380 C.3       1 63K        -0.0078
     21 C38        18.7340  -17.6730   68.3070 C.3       1 63K        -0.0078
     22 C35        15.9050  -17.8170   67.7640 C.3       1 63K         0.0878
     23 C37        17.7900  -18.7970   68.7090 C.3       1 63K         0.0878
     24 C31        19.4470  -16.5830   65.2000 C.3       1 63K         0.0720
     25 C32        18.8720  -15.9890   66.4550 C.3       1 63K        -0.0112
     26 N24        21.6560  -12.8300   61.1700 N.2       1 63K        -0.3144
     27 N4         17.2610   -9.7330   58.5180 N.2       1 63K        -0.1339
     28 N14        19.4910   -7.9850   56.5010 N.2       1 63K        -0.2560
     29 N15        18.9160   -6.9730   57.2370 N.2       1 63K        -0.2774
     30 N12        18.0380   -8.8810   57.8170 N.pl3     1 63K        -0.0883
     31 N27        20.8830  -14.3740   62.8250 N.am      1 63K        -0.1755
     32 N29        20.2260  -15.5600   64.5720 N.am      1 63K        -0.2604
     33 N33        18.0780  -17.0390   67.1160 N.4       1 63K         0.2399
     34 O30        18.7910  -15.3820   62.8300 O.2       1 63K        -0.3852
     35 O36        16.5020  -18.2290   68.9820 O.3       1 63K        -0.3693
     36 F17        13.6820  -12.7060   62.6160 F         1 63K        -0.1811
     37 S26        19.3740  -13.8940   60.7040 S.3       1 63K         0.0269
     38 S16        19.4610  -10.7330   56.1190 S.3       1 63K         0.0088
     39 H1         14.0709   -8.6689   60.6028 H         1 63K         0.0633
     40 H2         17.1447  -11.5971   60.0010 H         1 63K         0.0633
     41 H3         22.8841  -11.0030   59.5577 H         1 63K         0.0517
     42 H4         12.8475  -10.2869   62.0317 H         1 63K         0.0611
     43 H5         15.9395  -13.1936   61.4529 H         1 63K         0.0611
     44 H6         21.8796  -10.2025   57.4600 H         1 63K         0.0504
     45 H7         15.6707   -7.3457   60.4770 H         1 63K         0.0716
     46 H8         17.1705   -5.8894   59.1589 H         1 63K         0.0749
     47 H9         18.4474  -12.6927   58.0412 H         1 63K         0.0504
     48 H10        16.6434  -15.8253   68.1270 H         1 63K         0.0837
     49 H11        16.2577  -16.1792   66.4086 H         1 63K         0.0837
     50 H12        19.7230  -18.0731   68.0389 H         1 63K         0.0837
     51 H13        18.8422  -16.9451   69.1245 H         1 63K         0.0837
     52 H14        15.9899  -18.6092   67.0056 H         1 63K         0.0613
     53 H15        14.8444  -17.5697   67.9187 H         1 63K         0.0613
     54 H16        18.1728  -19.2998   69.6093 H         1 63K         0.0613
     55 H17        17.7087  -19.5254   67.8887 H         1 63K         0.0613
     56 H18        18.6371  -16.9063   64.5295 H         1 63K         0.0571
     57 H19        20.0842  -17.4448   65.4474 H         1 63K         0.0571
     58 H20        18.2286  -15.1325   66.2050 H         1 63K         0.0834
     59 H21        19.6831  -15.6567   67.1195 H         1 63K         0.0834
     60 H22        21.7513  -14.3441   63.3201 H         1 63K         0.2442
     61 H23        21.0298  -15.1812   65.0307 H         1 63K         0.1858
     62 H24        18.0121  -17.7838   66.4400 H         1 63K         0.2036
@<TRIPOS>BOND
     1    1    4 ar 
     2   10    1 ar 
     3    2    5 ar 
     4   10    2 ar 
     5    3    6 ar 
     6   11    3 ar 
     7    4   12 ar 
     8    5   12 ar 
     9   14    6 ar 
    10    8    7 2  
    11    7   15 1  
    12   16    8 1  
    13   13    9 ar 
    14    9   14 ar 
    15   15   10 1  
    16   13   11 ar 
    17   26   11 1  
    18   12   36 1  
    19   37   13 1  
    20   14   38 1  
    21   15   27 2  
    22   16   29 2  
    23   30   16 1  
    24   17   28 2  
    25   17   30 1  
    26   38   17 1  
    27   18   26 2  
    28   31   18 1  
    29   18   37 1  
    30   19   31 am 
    31   32   19 am 
    32   19   34 2  
    33   20   22 1  
    34   33   20 1  
    35   21   23 1  
    36   33   21 1  
    37   22   35 1  
    38   23   35 1  
    39   25   24 1  
    40   24   32 1  
    41   25   33 1  
    42   27   30 1  
    43   28   29 1  
    44    1   39 1  
    45    2   40 1  
    46    3   41 1  
    47    4   42 1  
    48    5   43 1  
    49    6   44 1  
    50    7   45 1  
    51    8   46 1  
    52    9   47 1  
    53   20   48 1  
    54   20   49 1  
    55   21   50 1  
    56   21   51 1  
    57   22   52 1  
    58   22   53 1  
    59   23   54 1  
    60   23   55 1  
    61   24   56 1  
    62   24   57 1  
    63   25   58 1  
    64   25   59 1  
    65   31   60 1  
    66   32   61 1  
    67   33   62 1  
@<TRIPOS>SUBSTRUCTURE
     1 63K         1

