### 
### Created by X-TOOL on Mon Sep 10 21:13:27 2018
### 

@<TRIPOS>MOLECULE
5ho7_ligand
   23    23     1     0     0
SMALL
GAST_HUCK


@<TRIPOS>ATOM
      1 C1         41.0060   14.9350    2.9950 C.2       1 63L         0.0881
      2 C2         42.1030   14.3910    3.6370 C.2       1 63L         0.2044
      3 C3         41.3310   16.3590    2.8270 C.2       1 63L         0.0643
      4 N6         42.2200   13.0740    4.0140 N.pl3     1 63L        -0.3029
      5 C11        44.2190   15.3430    4.3920 C.2       1 63L         0.3488
      6 C12        40.1740   18.7970    3.4110 C.3       1 63L        -0.0062
      7 C4         39.8040   14.1930    2.5840 C.2       1 63L         0.1646
      8 N5         43.0060   15.4030    3.8200 N.am      1 63L        -0.0802
      9 N7         42.5040   16.5830    3.3100 N.2       1 63L        -0.2053
     10 S8         40.4370   17.6280    2.0430 S.3       1 63L        -0.1093
     11 N9         38.8230   14.8040    1.8840 N.am      1 63L        -0.3090
     12 O10        39.6970   13.0070    2.8630 O.2       1 63L        -0.4135
     13 N13        44.9770   16.4630    4.4790 N.am      1 63L        -0.2702
     14 O14        44.6300   14.2900    4.8380 O.2       1 63L        -0.3668
     15 H1         41.4578   12.4111    3.8129 H         1 63L         0.1797
     16 H2         43.0699   12.7503    4.4976 H         1 63L         0.1797
     17 H3         39.6076   19.6666    3.0464 H         1 63L         0.0363
     18 H4         41.1471   19.1304    3.8007 H         1 63L         0.0363
     19 H5         39.6081   18.3011    4.2134 H         1 63L         0.0363
     20 H6         38.0101   14.2902    1.6096 H         1 63L         0.1789
     21 H7         38.9098   15.7700    1.6403 H         1 63L         0.1789
     22 H8         45.8812   16.4230    4.9043 H         1 63L         0.1835
     23 H9         44.6321   17.3294    4.1179 H         1 63L         0.1835
@<TRIPOS>BOND
     1    1    2 2  
     2    1    3 1  
     3    1    7 1  
     4    2    4 1  
     5    2    8 1  
     6    3    9 2  
     7    3   10 1  
     8    8    5 am 
     9    5   13 am 
    10    5   14 2  
    11   10    6 1  
    12    7   11 am 
    13    7   12 2  
    14    8    9 1  
    15    4   15 1  
    16    4   16 1  
    17    6   17 1  
    18    6   18 1  
    19    6   19 1  
    20   11   20 1  
    21   11   21 1  
    22   13   22 1  
    23   13   23 1  
@<TRIPOS>SUBSTRUCTURE
     1 63L         1

