### 
### Created by X-TOOL on Mon Sep 10 21:13:28 2018
### 

@<TRIPOS>MOLECULE
5ho8_ligand
   37    39     1     0     0
SMALL
GAST_HUCK


@<TRIPOS>ATOM
      1 C1         38.0770   15.4610    2.5740 C.ar      1 63E        -0.0495
      2 C2         37.8430   14.0940    2.6810 C.ar      1 63E        -0.0044
      3 C8         42.1100   13.9490    4.1590 C.2       1 63E         0.0546
      4 C9         41.6920   15.2130    3.8660 C.2       1 63E         0.0168
      5 C10        42.5350   16.4340    3.9680 C.ar      1 63E         0.0225
      6 C11        42.1380   17.6950    3.4560 C.ar      1 63E        -0.0293
      7 C12        43.0600   18.7520    3.5470 C.ar      1 63E         0.0201
      8 C14        44.6170   17.3270    4.5640 C.ar      1 63E         0.1661
      9 C19        42.4320   22.4910    4.0410 C.3       1 63E        -0.0537
     10 C20        43.2960   23.2680    5.0490 C.3       1 63E        -0.0651
     11 N3         38.7880   13.2700    3.1060 N.ar      1 63E        -0.2837
     12 C4         39.3170   15.9720    2.9460 C.ar      1 63E        -0.0528
     13 C5         40.3020   15.0820    3.3920 C.ar      1 63E         0.0169
     14 C6         40.0000   13.7030    3.4570 C.ar      1 63E         0.1430
     15 N7         41.1120   13.0610    3.9350 N.pl3     1 63E        -0.2529
     16 N13        44.2630   18.5310    4.0980 N.ar      1 63E        -0.2677
     17 N15        43.7770   16.2980    4.4850 N.ar      1 63E        -0.2761
     18 N16        45.8860   17.1260    5.0830 N.pl3     1 63E        -0.3068
     19 C17        42.7060   20.1550    3.1020 C.3       1 63E        -0.0034
     20 C18        42.3600   20.9860    4.3550 C.3       1 63E        -0.0403
     21 H1         37.3012   16.1218    2.2045 H         1 63E         0.0606
     22 H2         36.8709   13.6969    2.4120 H         1 63E         0.0754
     23 H3         43.1039   13.6902    4.5212 H         1 63E         0.1121
     24 H4         41.1600   17.8386    3.0110 H         1 63E         0.0536
     25 H5         42.8611   22.6205    3.0365 H         1 63E         0.0264
     26 H6         41.4124   22.9034    4.0602 H         1 63E         0.0264
     27 H7         43.3104   24.3332    4.7750 H         1 63E         0.0230
     28 H8         44.3221   22.8718    5.0345 H         1 63E         0.0230
     29 H9         42.8734   23.1547    6.0582 H         1 63E         0.0230
     30 H10        39.5161   17.0362    2.8917 H         1 63E         0.0674
     31 H11        41.1795   12.0466    4.1006 H         1 63E         0.2372
     32 H12        46.5459   17.9140    5.1497 H         1 63E         0.1823
     33 H13        46.1694   16.1886    5.4021 H         1 63E         0.1823
     34 H14        41.8393   20.1234    2.4254 H         1 63E         0.0473
     35 H15        43.5623   20.6072    2.5802 H         1 63E         0.0473
     36 H16        41.3420   20.7338    4.6867 H         1 63E         0.0292
     37 H17        43.0760   20.7487    5.1557 H         1 63E         0.0292
@<TRIPOS>BOND
     1    1    2 ar 
     2   12    1 ar 
     3   11    2 ar 
     4    4    3 2  
     5    3   15 1  
     6    5    4 1  
     7    4   13 1  
     8    6    5 ar 
     9    5   17 ar 
    10    7    6 ar 
    11    7   16 ar 
    12   19    7 1  
    13   16    8 ar 
    14    8   17 ar 
    15    8   18 1  
    16    9   10 1  
    17   20    9 1  
    18   14   11 ar 
    19   13   12 ar 
    20   13   14 ar 
    21   14   15 1  
    22   19   20 1  
    23    1   21 1  
    24    2   22 1  
    25    3   23 1  
    26    6   24 1  
    27    9   25 1  
    28    9   26 1  
    29   10   27 1  
    30   10   28 1  
    31   10   29 1  
    32   12   30 1  
    33   15   31 1  
    34   18   32 1  
    35   18   33 1  
    36   19   34 1  
    37   19   35 1  
    38   20   36 1  
    39   20   37 1  
@<TRIPOS>SUBSTRUCTURE
     1 63E         1

