### 
### Created by X-TOOL on Mon Sep 10 21:13:30 2018
### 

@<TRIPOS>MOLECULE
5hoa_ligand
   61    66     1     0     0
SMALL
GAST_HUCK


@<TRIPOS>ATOM
      1 C6         13.7630   -9.3780   59.1090 C.ar      1 63K        -0.0512
      2 C10        15.4720  -11.0280   58.9360 C.ar      1 63K        -0.0512
      3 C20        21.6910  -11.3790   57.4560 C.ar      1 63K        -0.0687
      4 C7         12.9690  -10.2670   59.7990 C.ar      1 63K        -0.0250
      5 C9         14.6860  -11.9290   59.6200 C.ar      1 63K        -0.0250
      6 C19        20.9660  -10.8080   56.4330 C.ar      1 63K        -0.0606
      7 C2         15.8660   -7.4670   58.2420 C.2       1 63K        -0.0178
      8 C1         16.7150   -6.5950   57.5910 C.2       1 63K         0.0064
      9 C21        18.9790  -12.0410   56.9660 C.ar      1 63K        -0.0393
     10 C5         15.0200   -9.7480   58.6700 C.ar      1 63K         0.0033
     11 C23        21.0340  -12.3040   58.2510 C.ar      1 63K         0.0007
     12 C8         13.4350  -11.5380   60.0480 C.ar      1 63K         0.1352
     13 C22        19.7050  -12.6090   57.9880 C.ar      1 63K         0.0423
     14 C18        19.6460  -11.1240   56.1880 C.ar      1 63K         0.0235
     15 C3         15.8750   -8.8170   57.9590 C.2       1 63K         0.0937
     16 C11        17.5420   -7.2090   56.6780 C.2       1 63K         0.1794
     17 C13        18.4290   -8.7700   55.5020 C.2       1 63K         0.2460
     18 C25        20.6840  -13.7800   59.8510 C.2       1 63K         0.2092
     19 C28        19.8550  -15.3150   61.5230 C.2       1 63K         0.3018
     20 C34        16.1950  -17.2160   65.0560 C.3       1 63K         0.0225
     21 C38        18.3700  -17.0250   66.3020 C.3       1 63K         0.0225
     22 C35        15.7390  -18.1380   66.1670 C.3       1 63K         0.0604
     23 C37        17.7980  -18.0720   67.2250 C.3       1 63K         0.0604
     24 C31        19.4310  -16.8120   63.3940 C.3       1 63K         0.0448
     25 C32        18.1590  -16.2540   63.9770 C.3       1 63K         0.0191
     26 N24        21.5810  -12.9800   59.3140 N.2       1 63K        -0.3144
     27 N4         16.6920   -9.3600   57.0510 N.2       1 63K        -0.1339
     28 N14        19.0720   -7.6560   55.1160 N.2       1 63K        -0.2560
     29 N15        18.5040   -6.6840   55.8640 N.2       1 63K        -0.2774
     30 N12        17.4860   -8.5010   56.4670 N.pl3     1 63K        -0.0883
     31 N27        20.8860  -14.6080   60.9380 N.am      1 63K        -0.1755
     32 N29        20.1950  -15.7590   62.7770 N.am      1 63K        -0.2643
     33 N33        17.6870  -17.2160   64.9920 N.3       1 63K        -0.2961
     34 O30        18.7620  -15.5470   61.0190 O.2       1 63K        -0.3852
     35 O36        16.4140  -17.7630   67.3650 O.3       1 63K        -0.3772
     36 F17        12.6560  -12.4070   60.7140 F         1 63K        -0.1811
     37 S26        19.1350  -13.7760   59.1100 S.3       1 63K         0.0269
     38 S16        18.7420  -10.3720   54.8610 S.3       1 63K         0.0088
     39 H1         13.3980   -8.3773   58.9081 H         1 63K         0.0633
     40 H2         16.4590  -11.3263   58.6014 H         1 63K         0.0633
     41 H3         22.7281  -11.1165   57.6308 H         1 63K         0.0517
     42 H4         11.9854   -9.9683   60.1431 H         1 63K         0.0611
     43 H5         15.0461  -12.9319   59.8191 H         1 63K         0.0611
     44 H6         21.4532  -10.0802   55.7942 H         1 63K         0.0504
     45 H7         15.1768   -7.0824   58.9924 H         1 63K         0.0716
     46 H8         16.7292   -5.5229   57.7816 H         1 63K         0.0749
     47 H9         17.9424  -12.3012   56.7850 H         1 63K         0.0504
     48 H10        15.8363  -16.1955   65.2556 H         1 63K         0.0449
     49 H11        15.7866  -17.5672   64.0969 H         1 63K         0.0449
     50 H12        19.4554  -17.1649   66.1912 H         1 63K         0.0449
     51 H13        18.1683  -16.0176   66.6949 H         1 63K         0.0449
     52 H14        15.9858  -19.1790   65.9113 H         1 63K         0.0572
     53 H15        14.6521  -18.0426   66.3070 H         1 63K         0.0572
     54 H16        18.2986  -18.0326   68.2037 H         1 63K         0.0572
     55 H17        17.9230  -19.0742   66.7893 H         1 63K         0.0572
     56 H18        19.1825  -17.5720   62.6386 H         1 63K         0.0531
     57 H19        20.0273  -17.2727   64.1953 H         1 63K         0.0531
     58 H20        17.4019  -16.1369   63.1876 H         1 63K         0.0446
     59 H21        18.3550  -15.2780   64.4449 H         1 63K         0.0446
     60 H22        21.8086  -14.6981   61.3131 H         1 63K         0.2442
     61 H23        20.9705  -15.3525   63.2601 H         1 63K         0.1857
@<TRIPOS>BOND
     1    1    4 ar 
     2   10    1 ar 
     3    2    5 ar 
     4   10    2 ar 
     5    3    6 ar 
     6   11    3 ar 
     7    4   12 ar 
     8    5   12 ar 
     9   14    6 ar 
    10    8    7 2  
    11    7   15 1  
    12   16    8 1  
    13   13    9 ar 
    14    9   14 ar 
    15   15   10 1  
    16   13   11 ar 
    17   26   11 1  
    18   12   36 1  
    19   37   13 1  
    20   14   38 1  
    21   15   27 2  
    22   16   29 2  
    23   30   16 1  
    24   17   28 2  
    25   17   30 1  
    26   38   17 1  
    27   18   26 2  
    28   31   18 1  
    29   18   37 1  
    30   19   31 am 
    31   32   19 am 
    32   19   34 2  
    33   20   22 1  
    34   33   20 1  
    35   21   23 1  
    36   33   21 1  
    37   22   35 1  
    38   23   35 1  
    39   25   24 1  
    40   24   32 1  
    41   25   33 1  
    42   27   30 1  
    43   28   29 1  
    44    1   39 1  
    45    2   40 1  
    46    3   41 1  
    47    4   42 1  
    48    5   43 1  
    49    6   44 1  
    50    7   45 1  
    51    8   46 1  
    52    9   47 1  
    53   20   48 1  
    54   20   49 1  
    55   21   50 1  
    56   21   51 1  
    57   22   52 1  
    58   22   53 1  
    59   23   54 1  
    60   23   55 1  
    61   24   56 1  
    62   24   57 1  
    63   25   58 1  
    64   25   59 1  
    65   31   60 1  
    66   32   61 1  
@<TRIPOS>SUBSTRUCTURE
     1 63K         1

