### 
### Created by X-TOOL on Mon Sep 10 21:13:30 2018
### 

@<TRIPOS>MOLECULE
5hor_ligand
   62    67     1     0     0
SMALL
GAST_HUCK


@<TRIPOS>ATOM
      1 C6         13.8810   -9.4020   60.1900 C.ar      1 63K        -0.0512
      2 C10        15.6320  -11.0720   60.1270 C.ar      1 63K        -0.0512
      3 C20        21.8550  -11.2520   58.6750 C.ar      1 63K        -0.0687
      4 C7         13.1120  -10.2650   60.9420 C.ar      1 63K        -0.0250
      5 C9         14.8590  -11.9250   60.8820 C.ar      1 63K        -0.0250
      6 C19        21.1550  -10.6970   57.6270 C.ar      1 63K        -0.0606
      7 C2         15.8870   -7.5130   59.3430 C.2       1 63K        -0.0178
      8 C1         16.7190   -6.6950   58.6920 C.2       1 63K         0.0064
      9 C21        19.2040  -12.0270   58.0590 C.ar      1 63K        -0.0393
     10 C5         15.1340   -9.8270   59.7920 C.ar      1 63K         0.0033
     11 C23        21.2080  -12.2210   59.4280 C.ar      1 63K         0.0007
     12 C8         13.6050  -11.5120   61.2810 C.ar      1 63K         0.1352
     13 C22        19.9060  -12.5790   59.1020 C.ar      1 63K         0.0423
     14 C18        19.8610  -11.0710   57.3260 C.ar      1 63K         0.0235
     15 C3         16.0120   -8.9510   59.0060 C.2       1 63K         0.0937
     16 C11        17.6250   -7.2160   57.7580 C.2       1 63K         0.1794
     17 C13        18.5780   -8.7810   56.6090 C.2       1 63K         0.2460
     18 C25        20.8400  -13.7390   60.9940 C.2       1 63K         0.2092
     19 C28        19.9120  -15.1220   62.7520 C.2       1 63K         0.3019
     20 C34        16.4960  -17.0510   65.9320 C.3       1 63K        -0.0078
     21 C38        18.1280  -16.8970   67.8370 C.3       1 63K        -0.0078
     22 C35        15.8140  -18.1330   66.7410 C.3       1 63K         0.0878
     23 C37        17.3100  -17.9900   68.4870 C.3       1 63K         0.0878
     24 C31        19.4480  -16.6730   64.5770 C.3       1 63K         0.0720
     25 C32        18.6670  -15.9580   65.6430 C.3       1 63K        -0.0112
     26 N24        21.7260  -12.8960   60.5090 N.2       1 63K        -0.3144
     27 N4         16.8330   -9.4760   58.1460 N.2       1 63K        -0.1339
     28 N14        19.1400   -7.6420   56.2680 N.2       1 63K        -0.2560
     29 N15        18.5360   -6.6520   56.9980 N.2       1 63K        -0.2774
     30 N12        17.6080   -8.5630   57.5410 N.pl3     1 63K        -0.0883
     31 N27        20.9940  -14.5840   62.0740 N.am      1 63K        -0.1755
     32 N29        20.3090  -15.7390   63.9120 N.am      1 63K        -0.2604
     33 N33        17.9180  -16.9970   66.3680 N.4       1 63K         0.2399
     34 O30        18.7420  -15.0860   62.3950 O.2       1 63K        -0.3852
     35 O36        15.9500  -17.7900   68.1160 O.3       1 63K        -0.3693
     36 F17        12.8540  -12.3540   62.0190 F         1 63K        -0.1811
     37 S26        19.3330  -13.7870   60.1780 S.3       1 63K         0.0269
     38 S16        18.9490  -10.3660   55.9830 S.3       1 63K         0.0088
     39 H1         13.5132   -8.4190   59.9191 H         1 63K         0.0633
     40 H2         16.6202  -11.3734   59.7989 H         1 63K         0.0633
     41 H3         22.8694  -10.9445   58.9021 H         1 63K         0.0517
     42 H4         12.1220   -9.9663   61.2672 H         1 63K         0.0611
     43 H5         15.2299  -12.9054   61.1584 H         1 63K         0.0611
     44 H6         21.6366   -9.9407   57.0178 H         1 63K         0.0504
     45 H7         15.1654   -7.1477   60.0723 H         1 63K         0.0716
     46 H8         16.6932   -5.6239   58.8870 H         1 63K         0.0749
     47 H9         18.1889  -12.3291   57.8279 H         1 63K         0.0504
     48 H10        16.0097  -16.0816   66.1156 H         1 63K         0.0837
     49 H11        16.4406  -17.2919   64.8601 H         1 63K         0.0837
     50 H12        19.1934  -17.0332   68.0744 H         1 63K         0.0837
     51 H13        17.7947  -15.9129   68.1981 H         1 63K         0.0837
     52 H14        16.2923  -19.1044   66.5473 H         1 63K         0.0613
     53 H15        14.7490  -18.1884   66.4715 H         1 63K         0.0613
     54 H16        17.4122  -17.9346   69.5808 H         1 63K         0.0613
     55 H17        17.6534  -18.9743   68.1360 H         1 63K         0.0613
     56 H18        18.7537  -17.1159   63.8478 H         1 63K         0.0571
     57 H19        20.0537  -17.4680   65.0364 H         1 63K         0.0571
     58 H20        17.9737  -15.2352   65.1881 H         1 63K         0.0834
     59 H21        19.3487  -15.4316   66.3272 H         1 63K         0.0834
     60 H22        21.9181  -14.8160   62.3777 H         1 63K         0.2442
     61 H23        21.2088  -15.5349   64.2977 H         1 63K         0.1858
     62 H24        18.3200  -17.8801   66.0951 H         1 63K         0.2036
@<TRIPOS>BOND
     1    1    4 ar 
     2   10    1 ar 
     3    2    5 ar 
     4   10    2 ar 
     5    3    6 ar 
     6   11    3 ar 
     7    4   12 ar 
     8    5   12 ar 
     9   14    6 ar 
    10    8    7 2  
    11    7   15 1  
    12   16    8 1  
    13   13    9 ar 
    14    9   14 ar 
    15   15   10 1  
    16   13   11 ar 
    17   26   11 1  
    18   12   36 1  
    19   37   13 1  
    20   14   38 1  
    21   15   27 2  
    22   16   29 2  
    23   30   16 1  
    24   17   28 2  
    25   17   30 1  
    26   38   17 1  
    27   18   26 2  
    28   31   18 1  
    29   18   37 1  
    30   19   31 am 
    31   32   19 am 
    32   19   34 2  
    33   20   22 1  
    34   33   20 1  
    35   21   23 1  
    36   33   21 1  
    37   22   35 1  
    38   23   35 1  
    39   25   24 1  
    40   24   32 1  
    41   25   33 1  
    42   27   30 1  
    43   28   29 1  
    44    1   39 1  
    45    2   40 1  
    46    3   41 1  
    47    4   42 1  
    48    5   43 1  
    49    6   44 1  
    50    7   45 1  
    51    8   46 1  
    52    9   47 1  
    53   20   48 1  
    54   20   49 1  
    55   21   50 1  
    56   21   51 1  
    57   22   52 1  
    58   22   53 1  
    59   23   54 1  
    60   23   55 1  
    61   24   56 1  
    62   24   57 1  
    63   25   58 1  
    64   25   59 1  
    65   31   60 1  
    66   32   61 1  
    67   33   62 1  
@<TRIPOS>SUBSTRUCTURE
     1 63K         1

