### 
### Created by X-TOOL on Mon Sep 10 21:13:27 2018
### 

@<TRIPOS>MOLECULE
5hrv_ligand
   26    28     1     0     0
SMALL
GAST_HUCK


@<TRIPOS>ATOM
      1 CAG        21.4280   30.0940   10.5560 C.2       1 64C         0.0455
      2 CAD        20.8430   28.8380   10.4850 C.ar      1 64C        -0.0183
      3 CAC        21.3180   27.6860   11.2210 C.ar      1 64C        -0.0605
      4 CAB        20.6860   26.4330   11.1300 C.ar      1 64C        -0.0656
      5 CAA        19.5530   26.2850   10.3100 C.ar      1 64C        -0.0638
      6 CAF        19.0590   27.3700    9.5920 C.ar      1 64C        -0.0488
      7 CAE        19.6730   28.6500    9.7020 C.ar      1 64C         0.0600
      8 CAJ        19.1820   29.7790    8.9630 C.2       1 64C         0.2748
      9 OAK        18.1780   29.7380    8.2710 O.2       1 64C        -0.3619
     10 OAI        19.7850   30.9890    9.0300 O.3       1 64C        -0.2127
     11 CAH        20.8660   31.1350    9.8140 C.2       1 64C         0.1742
     12 NAN        21.5610   32.2270    9.9520 N.2       1 64C        -0.2089
     13 NAM        22.6260   31.9660   10.8290 N.pl3     1 64C        -0.2234
     14 CAL        22.5430   30.6710   11.1530 C.2       1 64C         0.0821
     15 CAO        23.5630   30.0540   12.1410 C.3       1 64C         0.0113
     16 CAP        24.4820   31.1600   12.6350 C.3       1 64C        -0.0502
     17 H1         22.1863   27.7921   11.8612 H         1 64C         0.0560
     18 H2         21.0696   25.5867   11.6883 H         1 64C         0.0632
     19 H3         19.0622   25.3212   10.2369 H         1 64C         0.0564
     20 H4         18.2000   27.2396    8.9438 H         1 64C         0.0650
     21 H5         23.3324   32.6395   11.1582 H         1 64C         0.2496
     22 H6         24.1545   29.2804   11.6295 H         1 64C         0.0493
     23 H7         23.0306   29.6053   12.9926 H         1 64C         0.0493
     24 H8         25.2151   30.7402   13.3395 H         1 64C         0.0258
     25 H9         23.8860   31.9324   13.1431 H         1 64C         0.0258
     26 H10        25.0098   31.6075   11.7799 H         1 64C         0.0258
@<TRIPOS>BOND
     1    1    2 1  
     2    1   11 1  
     3    1   14 2  
     4    2    3 ar 
     5    2    7 ar 
     6    3    4 ar 
     7    4    5 ar 
     8    5    6 ar 
     9    6    7 ar 
    10    7    8 1  
    11    8    9 2  
    12    8   10 1  
    13   10   11 1  
    14   11   12 2  
    15   12   13 1  
    16   13   14 1  
    17   14   15 1  
    18   15   16 1  
    19    3   17 1  
    20    4   18 1  
    21    5   19 1  
    22    6   20 1  
    23   13   21 1  
    24   15   22 1  
    25   15   23 1  
    26   16   24 1  
    27   16   25 1  
    28   16   26 1  
@<TRIPOS>SUBSTRUCTURE
     1 64C         1

