### 
### Created by X-TOOL on Mon Sep 10 21:13:29 2018
### 

@<TRIPOS>MOLECULE
5hrw_ligand
   29    31     1     0     0
SMALL
GAST_HUCK


@<TRIPOS>ATOM
      1 CAG        14.8500   -9.5440   -7.7270 C.2       1 64E         0.0470
      2 CAD        14.2900   -9.5950   -9.0090 C.ar      1 64E        -0.0200
      3 CAC        14.5330   -8.6220   -9.9920 C.ar      1 64E        -0.0615
      4 CAB        13.9360   -8.6570  -11.2670 C.ar      1 64E        -0.0664
      5 CAA        13.0490   -9.6780  -11.5620 C.ar      1 64E        -0.0645
      6 CAF        12.7710  -10.6580  -10.6010 C.ar      1 64E        -0.0496
      7 CAE        13.3900  -10.6340   -9.3300 C.ar      1 64E         0.0599
      8 CAJ        13.1110  -11.6470   -8.3910 C.2       1 64E         0.2830
      9 OAK        12.3560  -12.6010   -8.6070 O.2       1 64E        -0.3646
     10 OAI        13.6780  -11.5820   -7.1450 O.3       1 64E        -0.1706
     11 CAH        14.5300  -10.5040   -6.8300 C.2       1 64E         0.2556
     12 NAN        15.1960  -10.2880   -5.6850 N.pl3     1 64E        -0.1918
     13 NAM        15.8560   -9.2610   -5.8050 N.2       1 64E        -0.2395
     14 CAL        15.7140   -8.7680   -7.0270 C.2       1 64E         0.0107
     15 CAO        16.4060   -7.4920   -7.4600 C.3       1 64E        -0.0171
     16 CAP        17.2240   -7.0090   -6.2750 C.3       1 64E        -0.0467
     17 CAQ        17.9500   -5.6880   -6.6290 C.3       1 64E        -0.0636
     18 H1         15.2100   -7.8081   -9.7591 H         1 64E         0.0555
     19 H2         14.1671   -7.8973  -12.0049 H         1 64E         0.0630
     20 H3         12.5710   -9.7188  -12.5341 H         1 64E         0.0559
     21 H4         12.0684  -11.4494  -10.8359 H         1 64E         0.0647
     22 H5         15.1591  -10.8846   -4.8461 H         1 64E         0.2515
     23 H6         15.6601   -6.7332   -7.7390 H         1 64E         0.0415
     24 H7         17.0648   -7.6915   -8.3180 H         1 64E         0.0415
     25 H8         17.9694   -7.7740   -6.0121 H         1 64E         0.0283
     26 H9         16.5560   -6.8380   -5.4179 H         1 64E         0.0283
     27 H10        18.5381   -5.3495   -5.7633 H         1 64E         0.0231
     28 H11        17.2072   -4.9200   -6.8905 H         1 64E         0.0231
     29 H12        18.6205   -5.8560   -7.4846 H         1 64E         0.0231
@<TRIPOS>BOND
     1    1    2 1  
     2    1   11 2  
     3    1   14 1  
     4    2    3 ar 
     5    2    7 ar 
     6    3    4 ar 
     7    4    5 ar 
     8    5    6 ar 
     9    6    7 ar 
    10    7    8 1  
    11    8    9 2  
    12    8   10 1  
    13   10   11 1  
    14   11   12 1  
    15   12   13 1  
    16   13   14 2  
    17   14   15 1  
    18   15   16 1  
    19   16   17 1  
    20    3   18 1  
    21    4   19 1  
    22    5   20 1  
    23    6   21 1  
    24   12   22 1  
    25   15   23 1  
    26   15   24 1  
    27   16   25 1  
    28   16   26 1  
    29   17   27 1  
    30   17   28 1  
    31   17   29 1  
@<TRIPOS>SUBSTRUCTURE
     1 64E         1

