### 
### Created by X-TOOL on Mon Sep 10 21:13:29 2018
### 

@<TRIPOS>MOLECULE
5hrx_ligand
   32    34     1     0     0
SMALL
GAST_HUCK


@<TRIPOS>ATOM
      1 CAG        14.8720   -9.3030   -7.6140 C.2       1 64F         0.0470
      2 CAD        14.3780   -9.3520   -8.8970 C.ar      1 64F        -0.0200
      3 CAC        14.6350   -8.3890   -9.9220 C.ar      1 64F        -0.0615
      4 CAB        14.0960   -8.4720  -11.2090 C.ar      1 64F        -0.0664
      5 CAA        13.2060   -9.5090  -11.5310 C.ar      1 64F        -0.0645
      6 CAF        12.9260  -10.4430  -10.5380 C.ar      1 64F        -0.0496
      7 CAE        13.4630  -10.3990   -9.2440 C.ar      1 64F         0.0599
      8 CAJ        13.1660  -11.3780   -8.2870 C.2       1 64F         0.2830
      9 OAK        12.3940  -12.3350   -8.4760 O.2       1 64F        -0.3646
     10 OAI        13.6580  -11.2930   -7.0770 O.3       1 64F        -0.1706
     11 CAH        14.4860  -10.2600   -6.7250 C.2       1 64F         0.2556
     12 NAN        15.0920  -10.0810   -5.5760 N.pl3     1 64F        -0.1918
     13 NAM        15.8100   -9.0210   -5.6530 N.2       1 64F        -0.2395
     14 CAL        15.7140   -8.5240   -6.8620 C.2       1 64F         0.0107
     15 CAO        16.4940   -7.2790   -7.2510 C.3       1 64F        -0.0169
     16 CAP        17.1750   -6.7470   -5.9800 C.3       1 64F        -0.0441
     17 CAQ        18.0920   -5.5860   -6.3710 C.3       1 64F        -0.0542
     18 CAR        18.6890   -4.9750   -5.0910 C.3       1 64F        -0.0651
     19 H1         15.2816   -7.5508   -9.6889 H         1 64F         0.0555
     20 H2         14.3650   -7.7361  -11.9581 H         1 64F         0.0630
     21 H3         12.7548   -9.5794  -12.5141 H         1 64F         0.0559
     22 H4         12.2504  -11.2553  -10.7804 H         1 64F         0.0647
     23 H5         15.0058  -10.6899   -4.7497 H         1 64F         0.2515
     24 H6         15.8106   -6.5189   -7.6575 H         1 64F         0.0416
     25 H7         17.2527   -7.5315   -8.0064 H         1 64F         0.0416
     26 H8         17.7681   -7.5476   -5.5138 H         1 64F         0.0286
     27 H9         16.4123   -6.3946   -5.2700 H         1 64F         0.0286
     28 H10        17.5125   -4.8221   -6.9101 H         1 64F         0.0264
     29 H11        18.9019   -5.9556   -7.0171 H         1 64F         0.0264
     30 H12        19.3510   -4.1382   -5.3584 H         1 64F         0.0230
     31 H13        19.2661   -5.7417   -4.5533 H         1 64F         0.0230
     32 H14        17.8767   -4.6082   -4.4463 H         1 64F         0.0230
@<TRIPOS>BOND
     1    1    2 1  
     2    1   11 2  
     3    1   14 1  
     4    2    3 ar 
     5    2    7 ar 
     6    3    4 ar 
     7    4    5 ar 
     8    5    6 ar 
     9    6    7 ar 
    10    7    8 1  
    11    8    9 2  
    12    8   10 1  
    13   10   11 1  
    14   11   12 1  
    15   12   13 1  
    16   13   14 2  
    17   14   15 1  
    18   15   16 1  
    19   16   17 1  
    20   17   18 1  
    21    3   19 1  
    22    4   20 1  
    23    5   21 1  
    24    6   22 1  
    25   12   23 1  
    26   15   24 1  
    27   15   25 1  
    28   16   26 1  
    29   16   27 1  
    30   17   28 1  
    31   17   29 1  
    32   18   30 1  
    33   18   31 1  
    34   18   32 1  
@<TRIPOS>SUBSTRUCTURE
     1 64F         1

