### 
### Created by X-TOOL on Mon Sep 10 21:13:26 2018
### 

@<TRIPOS>MOLECULE
5htb_ligand
   63    65     1     0     0
SMALL
GAST_HUCK


@<TRIPOS>ATOM
      1 N1         31.0550   32.4380    5.5230 N.ar      1 6L5        -0.2714
      2 C2         32.4520   30.3800    6.8740 C.ar      1 6L5         0.1298
      3 N3         29.7360   32.5100    7.5580 N.pl3     1 6L5        -0.1918
      4 C4         29.8180   31.7860    8.7170 C.2       1 6L5         0.1123
      5 C5         28.8110   33.6080    7.2300 C.3       1 6L5         0.2035
      6 C6         27.5930   33.2000    6.3940 C.3       1 6L5         0.1408
      7 C8         26.8930   33.8870    8.5500 C.3       1 6L5         0.1788
      8 C11        26.4100   33.9070   13.1050 C.3       1 6L5        -0.0326
      9 C12        25.9880   33.3050   14.4290 C.3       1 6L5        -0.0492
     10 C14        26.5100   33.0160   16.8920 C.3       1 6L5         0.0374
     11 C15        25.0400   32.9870   17.2430 C.2       1 6L5         0.1783
     12 C16        23.0330   31.6060   17.4120 C.3       1 6L5         0.1459
     13 C17        22.7130   30.1190   17.2910 C.3       1 6L5         0.0593
     14 C18        21.4250   29.6530   17.9000 C.2       1 6L5         0.1036
     15 C7         26.6160   32.8000    7.4940 C.3       1 6L5         0.1295
     16 N2         33.1110   29.3650    7.4300 N.pl3     1 6L5        -0.3152
     17 C9         26.5970   33.3800    9.9450 C.2       1 6L5         0.2080
     18 C10        25.3730   33.6780   12.0190 C.3       1 6L5         0.0310
     19 C13        26.7680   33.8390   15.6310 C.3       1 6L5        -0.0360
     20 N4         30.7700   30.8900    8.7240 N.2       1 6L5        -0.2958
     21 O13        24.4570   33.9930   17.6350 O.2       1 6L5        -0.3969
     22 N5         25.8110   34.1340   10.7090 N.am      1 6L5        -0.2847
     23 O1         27.1110   32.3410   10.3470 O.2       1 6L5        -0.3941
     24 O          28.2970   34.1830    8.4260 O.3       1 6L5        -0.3181
     25 O14        25.2510   32.7840    7.0560 O.3       1 6L5        -0.3840
     26 O15        27.1200   34.3110    5.6390 O.3       1 6L5        -0.3834
     27 C1         31.3650   31.0330    7.4830 C.ar      1 6L5         0.1045
     28 C          30.7390   32.0310    6.7530 C.ar      1 6L5         0.1613
     29 C3         32.0990   31.7470    5.0480 C.ar      1 6L5         0.0533
     30 N          32.8060   30.7760    5.6440 N.ar      1 6L5        -0.2698
     31 N6         24.4170   31.8270   17.0400 N.am      1 6L5        -0.2635
     32 C52        22.0920   32.4580   16.5630 C.2       1 6L5         0.2016
     33 N21        21.0720   33.0410   17.1910 N.am      1 6L5        -0.2988
     34 O12        22.3160   32.6090   15.3630 O.2       1 6L5        -0.3946
     35 O11        20.9170   30.2390   18.8610 O.2       1 6L5        -0.3747
     36 H1         29.1477   31.9430    9.5608 H         1 6L5         0.1349
     37 H2         29.3776   34.3679    6.6718 H         1 6L5         0.0998
     38 H3         27.8156   32.3586    5.7213 H         1 6L5         0.0678
     39 H4         26.2871   34.7826    8.3479 H         1 6L5         0.0869
     40 H5         27.3591   33.4471   12.7923 H         1 6L5         0.0285
     41 H6         26.5530   34.9897   13.2367 H         1 6L5         0.0285
     42 H7         26.1356   32.2162   14.3768 H         1 6L5         0.0267
     43 H8         24.9211   33.5234   14.5841 H         1 6L5         0.0267
     44 H9         26.8579   31.9861   16.7241 H         1 6L5         0.0502
     45 H10        27.0688   33.4599   17.7291 H         1 6L5         0.0502
     46 H11        22.9034   31.9032   18.4631 H         1 6L5         0.0827
     47 H12        23.5298   29.5625   17.7738 H         1 6L5         0.0541
     48 H13        22.6834   29.8711   16.2197 H         1 6L5         0.0541
     49 H14        20.9261   28.7781   17.4857 H         1 6L5         0.1351
     50 H15        26.8643   31.8037    7.8885 H         1 6L5         0.0673
     51 H16        33.8999   28.9286    6.9319 H         1 6L5         0.1820
     52 H17        32.8318   29.0164    8.3581 H         1 6L5         0.1820
     53 H18        24.4556   34.2209   12.2903 H         1 6L5         0.0520
     54 H19        25.1581   32.6008   11.9612 H         1 6L5         0.0520
     55 H20        26.4641   34.8796   15.8177 H         1 6L5         0.0290
     56 H21        27.8429   33.8067   15.3997 H         1 6L5         0.0290
     57 H22        25.5161   35.0300   10.3768 H         1 6L5         0.1851
     58 H23        25.0332   33.6248    6.6711 H         1 6L5         0.2102
     59 H24        26.2908   34.0867    5.2331 H         1 6L5         0.2101
     60 H25        32.4158   32.0082    4.0448 H         1 6L5         0.0996
     61 H26        24.9245   31.0782   16.6137 H         1 6L5         0.1884
     62 H27        20.4281   33.6090   16.6784 H         1 6L5         0.1815
     63 H28        20.9503   32.9106   18.1750 H         1 6L5         0.1815
@<TRIPOS>BOND
     1   28    1 ar 
     2    1   29 ar 
     3    2   16 1  
     4   27    2 ar 
     5    2   30 ar 
     6    4    3 1  
     7    3    5 1  
     8    3   28 1  
     9   20    4 2  
    10    5    6 1  
    11    5   24 1  
    12    6   15 1  
    13    6   26 1  
    14    7   15 1  
    15    7   17 1  
    16   24    7 1  
    17    8    9 1  
    18   18    8 1  
    19    9   19 1  
    20   10   11 1  
    21   19   10 1  
    22   11   21 2  
    23   11   31 am 
    24   12   13 1  
    25   31   12 1  
    26   12   32 1  
    27   13   14 1  
    28   14   35 2  
    29   15   25 1  
    30   17   22 am 
    31   17   23 2  
    32   22   18 1  
    33   20   27 1  
    34   27   28 ar 
    35   29   30 ar 
    36   32   33 am 
    37   32   34 2  
    38    4   36 1  
    39    5   37 1  
    40    6   38 1  
    41    7   39 1  
    42    8   40 1  
    43    8   41 1  
    44    9   42 1  
    45    9   43 1  
    46   10   44 1  
    47   10   45 1  
    48   12   46 1  
    49   13   47 1  
    50   13   48 1  
    51   14   49 1  
    52   15   50 1  
    53   16   51 1  
    54   16   52 1  
    55   18   53 1  
    56   18   54 1  
    57   19   55 1  
    58   19   56 1  
    59   22   57 1  
    60   25   58 1  
    61   26   59 1  
    62   29   60 1  
    63   31   61 1  
    64   33   62 1  
    65   33   63 1  
@<TRIPOS>SUBSTRUCTURE
     1 6L5         1

