### 
### Created by X-TOOL on Mon Sep 10 21:13:26 2018
### 

@<TRIPOS>MOLECULE
5htc_ligand
   61    63     1     0     0
SMALL
GAST_HUCK


@<TRIPOS>ATOM
      1 N1         31.2740   32.4940    5.3020 N.ar      1 66M        -0.2714
      2 C2         32.6080   30.4380    6.7120 C.ar      1 66M         0.1298
      3 N3         29.9170   32.6400    7.3200 N.pl3     1 66M        -0.1918
      4 C4         29.9750   31.9460    8.5000 C.2       1 66M         0.1123
      5 C5         28.9930   33.7390    6.9540 C.3       1 66M         0.2035
      6 C6         27.8110   33.3280    6.0910 C.3       1 66M         0.1408
      7 C8         27.0240   34.0410    8.2070 C.3       1 66M         0.1788
      8 C11        26.6100   34.2070   12.7230 C.3       1 66M        -0.0326
      9 C12        26.2080   33.5950   14.0500 C.3       1 66M        -0.0492
     10 C14        26.7280   33.3150   16.5380 C.3       1 66M         0.0373
     11 C15        25.2580   33.2020   16.8530 C.2       1 66M         0.1778
     12 C16        23.2830   31.7240   16.6680 C.3       1 66M         0.1097
     13 C17        23.1220   30.3380   17.2840 C.3       1 66M         0.0538
     14 C18        21.7370   30.0140   17.7220 C.2       1 66M         0.1030
     15 C7         26.7880   32.9450    7.1550 C.3       1 66M         0.1295
     16 N2         33.2440   29.4150    7.3010 N.pl3     1 66M        -0.3152
     17 C9         26.6930   33.5340    9.5910 C.2       1 66M         0.2080
     18 C10        25.5370   33.9310   11.6970 C.3       1 66M         0.0310
     19 C13        27.0030   34.0840   15.2530 C.3       1 66M        -0.0360
     20 N4         30.9130   31.0260    8.5390 N.2       1 66M        -0.2958
     21 O14        24.6020   34.1750   17.2380 O.2       1 66M        -0.3970
     22 N5         25.9000   34.3000   10.3450 N.am      1 66M        -0.2847
     23 O1         27.2150   32.5100   10.0150 O.2       1 66M        -0.3941
     24 O          28.4310   34.3000    8.1330 O.3       1 66M        -0.3181
     25 O15        25.4410   32.9310    6.6640 O.3       1 66M        -0.3840
     26 O16        27.3920   34.4500    5.3100 O.3       1 66M        -0.3834
     27 C1         31.5310   31.1350    7.3030 C.ar      1 66M         0.1045
     28 C          30.9300   32.1260    6.5390 C.ar      1 66M         0.1613
     29 C3         32.3100   31.7760    4.8510 C.ar      1 66M         0.0533
     30 N          32.9770   30.7920    5.4610 N.ar      1 66M        -0.2698
     31 N6         24.7070   32.0100   16.6170 N.am      1 66M        -0.2692
     32 C52        22.6270   31.7770   15.2870 C.2       1 66M         0.0625
     33 O13        22.3920   32.9790   14.8280 O.co2     1 66M        -0.5664
     34 O12        22.3700   30.7500   14.6520 O.co2     1 66M        -0.5664
     35 O11        21.1360   30.7350   18.5230 O.2       1 66M        -0.3747
     36 H1         29.3019   32.1399    9.3338 H         1 66M         0.1349
     37 H2         29.5725   34.5040    6.4165 H         1 66M         0.0998
     38 H3         28.0488   32.4786    5.4338 H         1 66M         0.0678
     39 H4         26.4348   34.9420    7.9809 H         1 66M         0.0869
     40 H5         27.5601   33.7653   12.3881 H         1 66M         0.0285
     41 H6         26.7327   35.2936   12.8423 H         1 66M         0.0285
     42 H7         26.3374   32.5052   13.9760 H         1 66M         0.0267
     43 H8         25.1472   33.8273   14.2252 H         1 66M         0.0267
     44 H9         27.1437   32.3017   16.4360 H         1 66M         0.0502
     45 H10        27.2261   33.8336   17.3704 H         1 66M         0.0502
     46 H11        22.7921   32.4682   17.3123 H         1 66M         0.0753
     47 H12        23.7835   30.2726   18.1604 H         1 66M         0.0534
     48 H13        23.4291   29.5920   16.5363 H         1 66M         0.0534
     49 H14        21.2455   29.1253   17.3288 H         1 66M         0.1350
     50 H15        27.0155   31.9522    7.5704 H         1 66M         0.0673
     51 H16        34.0237   28.9465    6.8178 H         1 66M         0.1820
     52 H17        32.9529   29.0977    8.2367 H         1 66M         0.1820
     53 H18        24.6365   34.4963   11.9789 H         1 66M         0.0520
     54 H19        25.3137   32.8540   11.7125 H         1 66M         0.0520
     55 H20        26.7540   35.1417   15.4241 H         1 66M         0.0290
     56 H21        28.0739   33.9926   15.0189 H         1 66M         0.0290
     57 H22        25.5463   35.1543    9.9640 H         1 66M         0.1851
     58 H23        25.2429   33.7687    6.2621 H         1 66M         0.2102
     59 H24        26.5756   34.2417    4.8710 H         1 66M         0.2101
     60 H25        32.6549   32.0273    3.8546 H         1 66M         0.0996
     61 H26        25.3213   31.2551   16.3873 H         1 66M         0.1876
@<TRIPOS>BOND
     1   28    1 ar 
     2    1   29 ar 
     3    2   16 1  
     4   27    2 ar 
     5    2   30 ar 
     6    4    3 1  
     7    3    5 1  
     8    3   28 1  
     9   20    4 2  
    10    5    6 1  
    11    5   24 1  
    12    6   15 1  
    13    6   26 1  
    14    7   15 1  
    15    7   17 1  
    16   24    7 1  
    17    8    9 1  
    18   18    8 1  
    19    9   19 1  
    20   10   11 1  
    21   19   10 1  
    22   11   21 2  
    23   11   31 am 
    24   12   13 1  
    25   31   12 1  
    26   12   32 1  
    27   13   14 1  
    28   14   35 2  
    29   15   25 1  
    30   17   22 am 
    31   17   23 2  
    32   22   18 1  
    33   20   27 1  
    34   27   28 ar 
    35   29   30 ar 
    36   32   33 ar 
    37   32   34 ar 
    38    4   36 1  
    39    5   37 1  
    40    6   38 1  
    41    7   39 1  
    42    8   40 1  
    43    8   41 1  
    44    9   42 1  
    45    9   43 1  
    46   10   44 1  
    47   10   45 1  
    48   12   46 1  
    49   13   47 1  
    50   13   48 1  
    51   14   49 1  
    52   15   50 1  
    53   16   51 1  
    54   16   52 1  
    55   18   53 1  
    56   18   54 1  
    57   19   55 1  
    58   19   56 1  
    59   22   57 1  
    60   25   58 1  
    61   26   59 1  
    62   29   60 1  
    63   31   61 1  
@<TRIPOS>SUBSTRUCTURE
     1 66M         1

