### 
### Created by X-TOOL on Mon Sep 10 21:13:28 2018
### 

@<TRIPOS>MOLECULE
5htz_ligand
   44    46     1     0     0
SMALL
GAST_HUCK


@<TRIPOS>ATOM
      1 C1         26.4160   10.7780   19.8250 C.ar      1 66J         0.0624
      2 C11        22.2270    9.8980   23.7700 C.cat     1 66J         0.3047
      3 C14        20.4220    9.5370   20.5590 C.3       1 66J        -0.0690
      4 C17        23.2590   11.8860   24.9900 C.3       1 66J         0.0196
      5 C21        24.0990   11.7140   19.2150 C.2       1 66J         0.0172
      6 C20        24.9770   10.9010   19.9030 C.2       1 66J         0.0996
      7 C24        29.2180    9.5310   21.8840 C.1       1 66J        -0.0553
      8 C22        22.7410   11.6280   19.6310 C.2       1 66J         0.0846
      9 C26        30.5380    8.3470   23.8640 C.3       1 66J        -0.0012
     10 C13        21.3430   10.3480   21.4520 C.3       1 66J         0.0864
     11 C2         27.1300   10.1830   20.8450 C.ar      1 66J        -0.0019
     12 C4         29.1480   10.7410   19.7480 C.ar      1 66J         0.0370
     13 C6         27.1540   11.3290   18.7930 C.ar      1 66J         0.0375
     14 C7         22.5740   10.7430   20.6860 C.2       1 66J         0.0469
     15 C8         20.5420   11.5340   21.9520 C.3       1 66J         0.0798
     16 C3         28.5050   10.1420   20.8110 C.ar      1 66J         0.0641
     17 N5         28.4940   11.3330   18.7320 N.ar      1 66J        -0.2811
     18 S9         21.4840   12.5120   23.0880 S.o2      1 66J         0.0320
     19 N10        22.3660   11.3100   23.9600 N.am      1 66J        -0.1796
     20 N12        21.5710    9.5070   22.6230 N.pl3     1 66J        -0.3075
     21 N15        22.7110    9.0740   24.6390 N.pl3     1 66J        -0.2589
     22 O16        20.5560   13.1420   24.0110 O.2       1 66J        -0.1569
     23 O18        22.4530   13.3010   22.3580 O.2       1 66J        -0.1569
     24 S19        24.0960   10.0520   21.1010 S.3       1 66J         0.0017
     25 CL23       21.4950   12.5720   18.9050 Cl        1 66J        -0.0299
     26 C25        29.7990    9.0050   22.7940 C.1       1 66J        -0.0969
     27 H1         19.5227    9.2503   21.1238 H         1 66J         0.0086
     28 H2         20.9453    8.6314   20.2185 H         1 66J         0.0086
     29 H3         20.1304   10.1415   19.6875 H         1 66J         0.0086
     30 H4         23.7911   11.0751   25.5090 H         1 66J         0.0438
     31 H5         22.6612   12.4560   25.7164 H         1 66J         0.0438
     32 H6         23.9886   12.5550   24.5102 H         1 66J         0.0438
     33 H7         24.4224   12.3740   18.4114 H         1 66J         0.0688
     34 H8         30.0576    8.5651   24.8292 H         1 66J         0.0364
     35 H9         31.5731    8.7190   23.8773 H         1 66J         0.0364
     36 H10        30.5410    7.2604   23.6932 H         1 66J         0.0364
     37 H11        26.6015    9.7428   21.6828 H         1 66J         0.0853
     38 H12        30.2318   10.7345   19.7302 H         1 66J         0.0919
     39 H13        26.6112   11.7901   17.9758 H         1 66J         0.0933
     40 H14        19.6373   11.1675   22.4591 H         1 66J         0.0373
     41 H15        20.2537   12.1592   21.0941 H         1 66J         0.0373
     42 H16        21.2121    8.5421   22.5892 H         1 66J         0.3022
     43 H17        23.1911    9.4323   25.4769 H         1 66J         0.3194
     44 H18        22.6169    8.0586   24.4941 H         1 66J         0.3194
@<TRIPOS>BOND
     1    1    6 1  
     2   11    1 ar 
     3    1   13 ar 
     4    2   19 ar 
     5   20    2 ar 
     6    2   21 ar 
     7   10    3 1  
     8   19    4 1  
     9    6    5 2  
    10    5    8 1  
    11    6   24 1  
    12   16    7 1  
    13    7   26 3  
    14    8   14 2  
    15    8   25 1  
    16   26    9 1  
    17   14   10 1  
    18   10   15 1  
    19   10   20 1  
    20   11   16 ar 
    21   16   12 ar 
    22   12   17 ar 
    23   13   17 ar 
    24   14   24 1  
    25   15   18 1  
    26   18   19 am 
    27   18   22 2  
    28   18   23 2  
    29    3   27 1  
    30    3   28 1  
    31    3   29 1  
    32    4   30 1  
    33    4   31 1  
    34    4   32 1  
    35    5   33 1  
    36    9   34 1  
    37    9   35 1  
    38    9   36 1  
    39   11   37 1  
    40   12   38 1  
    41   13   39 1  
    42   15   40 1  
    43   15   41 1  
    44   20   42 1  
    45   21   43 1  
    46   21   44 1  
@<TRIPOS>SUBSTRUCTURE
     1 66J         1

