### 
### Created by X-TOOL on Mon Sep 10 21:13:27 2018
### 

@<TRIPOS>MOLECULE
5hu0_ligand
   47    50     1     0     0
SMALL
GAST_HUCK


@<TRIPOS>ATOM
      1 C1         21.5200   10.4850   21.8930 C.3       1 66H         0.1821
      2 C2         21.7180   11.6250   22.8620 C.2       1 66H         0.1977
      3 N3         22.1940   11.0880   24.0470 N.am      1 66H        -0.2212
      4 C4         22.1960    9.7140   23.9940 C.cat     1 66H         0.3178
      5 N5         21.7760    9.3340   22.7530 N.pl3     1 66H        -0.2779
      6 C7         22.5100   11.9040   25.2120 C.3       1 66H         0.0234
      7 C9         22.6430   10.6010   20.8880 C.ar      1 66H        -0.0283
      8 C10        20.1120   10.3860   21.3180 C.ar      1 66H        -0.0144
      9 C11        19.6860    9.2010   20.7360 C.ar      1 66H        -0.0454
     10 C12        18.4220    9.0640   20.1960 C.ar      1 66H        -0.0391
     11 C13        17.5530   10.1370   20.2190 C.ar      1 66H        -0.0398
     12 C14        17.9450   11.3380   20.7890 C.ar      1 66H        -0.0391
     13 C15        19.2190   11.4520   21.3220 C.ar      1 66H        -0.0454
     14 C16        23.9370   10.2410   21.2470 C.ar      1 66H        -0.0261
     15 C17        25.0010   10.3540   20.3810 C.ar      1 66H         0.0877
     16 C18        24.7780   10.8350   19.1040 C.ar      1 66H        -0.0172
     17 C19        23.4970   11.2000   18.7290 C.ar      1 66H        -0.0503
     18 C20        22.4390   11.0870   19.6100 C.ar      1 66H        -0.0589
     19 N6         22.5860    8.9330   24.9480 N.pl3     1 66H        -0.2550
     20 O8         21.5190   12.8070   22.6000 O.2       1 66H        -0.3724
     21 N21        26.2560    9.9560   20.8700 N.am      1 66H        -0.2287
     22 C22        27.5150   10.3720   20.4590 C.2       1 66H         0.2560
     23 O23        27.7380   11.0020   19.4430 O.2       1 66H        -0.3785
     24 C24        28.5790    9.9620   21.3400 C.2       1 66H         0.1903
     25 O25        28.3030    9.0630   22.3190 O.3       1 66H        -0.2500
     26 C26        29.4340    8.8280   23.0380 C.2       1 66H         0.0866
     27 C27        30.4630    9.5680   22.5100 C.2       1 66H        -0.0557
     28 C28        29.9180   10.2990   21.4180 C.2       1 66H        -0.0431
     29 H1         21.6544    8.3544   22.4589 H         1 66H         0.3067
     30 H2         22.4232   12.9684   24.9485 H         1 66H         0.0484
     31 H3         23.5375   11.6905   25.5415 H         1 66H         0.0484
     32 H4         21.8078   11.6693   26.0255 H         1 66H         0.0484
     33 H5         20.3656    8.3571   20.7040 H         1 66H         0.0794
     34 H6         18.1146    8.1215   19.7576 H         1 66H         0.0681
     35 H7         16.5621   10.0397   19.7903 H         1 66H         0.0805
     36 H8         17.2621   12.1794   20.8176 H         1 66H         0.0681
     37 H9         19.5277   12.3973   21.7535 H         1 66H         0.0794
     38 H10        24.1145    9.8574   22.2452 H         1 66H         0.0656
     39 H11        25.5996   10.9254   18.4027 H         1 66H         0.0708
     40 H12        23.3211   11.5802   17.7292 H         1 66H         0.0647
     41 H13        21.4435   11.3810   19.2975 H         1 66H         0.0682
     42 H14        22.8837    9.3310   25.8502 H         1 66H         0.3198
     43 H15        22.5989    7.9130   24.8057 H         1 66H         0.3198
     44 H16        26.2406    9.2851   21.6114 H         1 66H         0.2249
     45 H17        29.5108    8.1602   23.8948 H         1 66H         0.1039
     46 H18        31.4944    9.5909   22.8588 H         1 66H         0.0364
     47 H19        30.4523   10.9908   20.7685 H         1 66H         0.0434
@<TRIPOS>BOND
     1    1    2 1  
     2    1    5 1  
     3    1    7 1  
     4    1    8 1  
     5    2    3 am 
     6    2   20 2  
     7    3    4 ar 
     8    3    6 1  
     9    4    5 ar 
    10    4   19 ar 
    11    7   14 ar 
    12    7   18 ar 
    13    8    9 ar 
    14    8   13 ar 
    15    9   10 ar 
    16   10   11 ar 
    17   11   12 ar 
    18   12   13 ar 
    19   14   15 ar 
    20   15   16 ar 
    21   15   21 1  
    22   16   17 ar 
    23   17   18 ar 
    24   21   22 am 
    25   22   23 2  
    26   22   24 1  
    27   24   25 1  
    28   24   28 2  
    29   25   26 1  
    30   26   27 2  
    31   27   28 1  
    32    5   29 1  
    33    6   30 1  
    34    6   31 1  
    35    6   32 1  
    36    9   33 1  
    37   10   34 1  
    38   11   35 1  
    39   12   36 1  
    40   13   37 1  
    41   14   38 1  
    42   16   39 1  
    43   17   40 1  
    44   18   41 1  
    45   19   42 1  
    46   19   43 1  
    47   21   44 1  
    48   26   45 1  
    49   27   46 1  
    50   28   47 1  
@<TRIPOS>SUBSTRUCTURE
     1 66H         1

