### 
### Created by X-TOOL on Mon Sep 10 21:13:28 2018
### 

@<TRIPOS>MOLECULE
5hu1_ligand
   46    48     1     0     0
SMALL
GAST_HUCK


@<TRIPOS>ATOM
      1 C1         22.7360   10.3830   20.7720 C.ar      1 66F         0.0180
      2 C2         21.5330    9.9810   21.6110 C.3       1 66F         0.1147
      3 C3         20.6500    9.0380   20.7890 C.3       1 66F        -0.0428
      4 C4         20.6560   11.1270   22.0640 C.3       1 66F         0.1051
      5 S5         21.5520   12.2130   23.1450 S.o2      1 66F         0.0389
      6 N6         22.4280   11.0730   24.0920 N.am      1 66F        -0.1785
      7 C7         22.3680    9.6820   23.8530 C.cat     1 66F         0.3119
      8 N8         21.9140    9.1570   22.7570 N.pl3     1 66F        -0.2745
      9 N9         22.8110    8.9190   24.9000 N.pl3     1 66F        -0.2584
     10 C10        23.0610   11.6570   25.2910 C.3       1 66F         0.0196
     11 O11        20.5700   12.8320   24.0170 O.2       1 66F        -0.1563
     12 O12        22.5710   12.9310   22.4450 O.2       1 66F        -0.1563
     13 C13        24.0310   10.0450   21.1620 C.ar      1 66F        -0.0186
     14 C14        25.1380   10.3980   20.4240 C.ar      1 66F         0.0908
     15 C15        24.9950   11.0970   19.2320 C.ar      1 66F        -0.0112
     16 C16        23.7170   11.4440   18.8310 C.ar      1 66F        -0.0061
     17 C17        22.6180   11.1110   19.5980 C.ar      1 66F         0.1528
     18 F18        21.3770   11.4890   19.1970 F         1 66F        -0.1644
     19 N19        26.3820    9.9940   20.9260 N.am      1 66F        -0.2279
     20 C20        31.0160   10.0770   22.0860 C.ar      1 66F        -0.0026
     21 C21        30.7510    9.0820   23.0070 C.ar      1 66F         0.1658
     22 C22        29.4780    8.5610   23.0580 C.ar      1 66F         0.0508
     23 N23        28.4820    8.9760   22.2580 N.ar      1 66F        -0.2780
     24 C24        28.7600    9.9480   21.3830 C.ar      1 66F         0.1240
     25 C25        30.0090   10.5300   21.2520 C.ar      1 66F        -0.0154
     26 C26        27.6420   10.3910   20.5150 C.2       1 66F         0.2476
     27 O27        27.8770   11.0830   19.5330 O.2       1 66F        -0.3697
     28 F28        31.6990    8.6040   23.8310 F         1 66F        -0.1702
     29 H1         19.7757    8.7404   21.3866 H         1 66F         0.0172
     30 H2         21.2270    8.1432   20.5126 H         1 66F         0.0172
     31 H3         20.3128    9.5530   19.8773 H         1 66F         0.0172
     32 H4         19.7833   10.7243   22.5990 H         1 66F         0.0460
     33 H5         20.3174   11.6926   21.1834 H         1 66F         0.0460
     34 H6         21.8195    8.1334   22.6925 H         1 66F         0.3109
     35 H7         23.1646    9.3726   25.7544 H         1 66F         0.3194
     36 H8         22.7906    7.8914   24.8332 H         1 66F         0.3194
     37 H9         23.5990   10.8710   25.8412 H         1 66F         0.0438
     38 H10        22.2865   12.0934   25.9388 H         1 66F         0.0438
     39 H11        23.7692   12.4416   24.9864 H         1 66F         0.0438
     40 H12        24.1712    9.4842   22.0790 H         1 66F         0.0676
     41 H13        25.8590   11.3627   18.6338 H         1 66F         0.0762
     42 H14        23.5765   11.9847   17.9020 H         1 66F         0.0657
     43 H15        26.3559    9.3345   21.6773 H         1 66F         0.2248
     44 H16        32.0108   10.5020   22.0168 H         1 66F         0.0735
     45 H17        29.2692    7.7783   23.7783 H         1 66F         0.0830
     46 H18        30.1915   11.3115   20.5233 H         1 66F         0.0752
@<TRIPOS>BOND
     1    1    2 1  
     2   13    1 ar 
     3    1   17 ar 
     4    2    3 1  
     5    2    4 1  
     6    2    8 1  
     7    4    5 1  
     8    5    6 am 
     9    5   11 2  
    10    5   12 2  
    11    7    6 ar 
    12    6   10 1  
    13    8    7 ar 
    14    7    9 ar 
    15   14   13 ar 
    16   14   15 ar 
    17   19   14 1  
    18   15   16 ar 
    19   16   17 ar 
    20   17   18 1  
    21   26   19 am 
    22   20   21 ar 
    23   25   20 ar 
    24   22   21 ar 
    25   21   28 1  
    26   23   22 ar 
    27   24   23 ar 
    28   24   25 ar 
    29   24   26 1  
    30   26   27 2  
    31    3   29 1  
    32    3   30 1  
    33    3   31 1  
    34    4   32 1  
    35    4   33 1  
    36    8   34 1  
    37    9   35 1  
    38    9   36 1  
    39   10   37 1  
    40   10   38 1  
    41   10   39 1  
    42   13   40 1  
    43   15   41 1  
    44   16   42 1  
    45   19   43 1  
    46   20   44 1  
    47   22   45 1  
    48   25   46 1  
@<TRIPOS>SUBSTRUCTURE
     1 66F         1

