### 
### Created by X-TOOL on Mon Sep 10 21:13:28 2018
### 

@<TRIPOS>MOLECULE
5hu9_ligand
   81    85     1     0     0
SMALL
GAST_HUCK


@<TRIPOS>ATOM
      1 CAX        -9.5130  -22.4140  -12.3560 C.3       1 66K         0.0116
      2 CAV        -9.5020  -22.0520  -10.8820 C.3       1 66K         0.0092
      3 NBN       -10.5100  -21.0510  -10.6030 N.4       1 66K         0.2405
      4 CAB       -10.4890  -20.6870   -9.1870 C.3       1 66K        -0.0427
      5 CAW       -11.8040  -21.4930  -11.0370 C.3       1 66K         0.0092
      6 CAY       -11.7990  -21.7950  -12.5000 C.3       1 66K         0.0116
      7 NBO       -10.7960  -22.7840  -12.8270 N.4       1 66K         0.2605
      8 CAZ       -10.8850  -23.2120  -14.2260 C.3       1 66K         0.0190
      9 CBJ       -10.0740  -24.2980  -14.5740 C.ar      1 66K         0.0395
     10 CBL        -9.4030  -24.3610  -15.7840 C.ar      1 66K         0.0603
     11 CBQ        -9.5560  -23.2980  -16.7280 C.3       1 66K         0.3722
     12 FAF        -9.0010  -23.6630  -17.8780 F         1 66K        -0.2259
     13 FAG        -8.9590  -22.2000  -16.2760 F         1 66K        -0.2259
     14 FAE       -10.8490  -23.0530  -16.9170 F         1 66K        -0.2259
     15 CAQ        -8.5860  -25.4470  -16.0570 C.ar      1 66K        -0.0166
     16 CAN        -9.9070  -25.3590  -13.7020 C.ar      1 66K        -0.0192
     17 CAM        -9.0860  -26.4320  -14.0010 C.ar      1 66K        -0.0206
     18 CBI        -8.3960  -26.5280  -15.1850 C.ar      1 66K         0.0778
     19 CBD        -7.5560  -27.6280  -15.4930 C.2       1 66K         0.2333
     20 OAC        -6.7040  -27.5270  -16.3220 O.2       1 66K        -0.3756
     21 NBB        -7.6420  -28.7400  -14.7430 N.am      1 66K        -0.2395
     22 CBG        -6.9550  -29.8590  -15.0270 C.ar      1 66K         0.0503
     23 CAP        -5.7110  -29.9800  -15.6340 C.ar      1 66K        -0.0194
     24 CAL        -7.5860  -31.0480  -14.7400 C.ar      1 66K        -0.0585
     25 CAK        -6.9950  -32.2520  -15.0120 C.ar      1 66K        -0.0816
     26 CBF        -5.7740  -32.3520  -15.5820 C.ar      1 66K        -0.0312
     27 CAA        -5.2170  -33.5510  -15.8590 C.3       1 66K        -0.0398
     28 CBK        -5.1120  -31.2090  -15.8940 C.ar      1 66K         0.0803
     29 OBC        -3.9250  -31.4310  -16.4240 O.3       1 66K        -0.3219
     30 CBM        -3.2460  -30.3720  -17.0680 C.3       1 66K         0.0830
     31 CAS        -3.8400  -30.0390  -18.3980 C.3       1 66K        -0.0020
     32 CAU        -3.6400  -31.1250  -19.4260 C.3       1 66K         0.0362
     33 CAR        -1.8390  -30.6910  -17.2400 C.3       1 66K        -0.0020
     34 CAT        -1.6210  -31.7570  -18.2770 C.3       1 66K         0.0362
     35 NBP        -2.2840  -31.5050  -19.5320 N.am      1 66K        -0.2711
     36 CBE        -1.6810  -31.6380  -20.7230 C.2       1 66K         0.2154
     37 OAD        -2.2950  -31.4810  -21.7440 O.2       1 66K        -0.3814
     38 CBH        -0.3120  -31.8670  -20.8330 C.ar      1 66K         0.0781
     39 CAJ         0.5930  -31.0860  -20.1630 C.ar      1 66K        -0.0224
     40 CAH         1.9320  -31.2180  -20.2350 C.ar      1 66K        -0.0284
     41 CAI         2.4680  -32.1620  -21.0420 C.ar      1 66K         0.0155
     42 NBA         1.5810  -32.9290  -21.7570 N.ar      1 66K        -0.2903
     43 CAO         0.2360  -32.7850  -21.6750 C.ar      1 66K         0.0313
     44 H1         -8.8251  -23.2576  -12.5146 H         1 66K         0.0868
     45 H2         -9.1657  -21.5442  -12.9328 H         1 66K         0.0868
     46 H3         -8.5121  -21.6548  -10.6132 H         1 66K         0.0868
     47 H4         -9.7101  -22.9525  -10.2856 H         1 66K         0.0868
     48 H5        -10.2798  -20.2247  -11.1324 H         1 66K         0.2035
     49 H6        -11.2597  -19.9267   -8.9924 H         1 66K         0.0778
     50 H7         -9.5001  -20.2814   -8.9273 H         1 66K         0.0778
     51 H8        -10.6915  -21.5790   -8.5760 H         1 66K         0.0778
     52 H9        -12.5416  -20.7025  -10.8346 H         1 66K         0.0868
     53 H10       -12.0793  -22.4021  -10.4822 H         1 66K         0.0868
     54 H11       -11.5857  -20.8704  -13.0564 H         1 66K         0.0868
     55 H12       -12.7884  -22.1779  -12.7906 H         1 66K         0.0868
     56 H13       -11.0382  -23.6036  -12.2926 H         1 66K         0.2061
     57 H14       -10.6012  -22.3595  -14.8605 H         1 66K         0.1070
     58 H15       -11.9297  -23.4894  -14.4303 H         1 66K         0.1070
     59 H16        -8.0606  -25.4613  -17.0051 H         1 66K         0.0882
     60 H17       -10.4355  -25.3495  -12.7556 H         1 66K         0.0648
     61 H18        -8.9833  -27.2280  -13.2724 H         1 66K         0.0879
     62 H19        -8.2409  -28.7342  -13.9422 H         1 66K         0.2228
     63 H20        -5.1834  -29.0766  -15.9178 H         1 66K         0.0406
     64 H21        -8.5716  -31.0304  -14.2891 H         1 66K         0.0396
     65 H22        -7.5277  -33.1618  -14.7601 H         1 66K         0.0491
     66 H23        -5.8961  -34.3540  -15.5365 H         1 66K         0.0341
     67 H24        -4.2602  -33.6432  -15.3243 H         1 66K         0.0341
     68 H25        -5.0412  -33.6323  -16.9418 H         1 66K         0.0341
     69 H26        -3.3250  -29.4823  -16.4259 H         1 66K         0.0648
     70 H27        -3.3714  -29.1156  -18.7691 H         1 66K         0.0313
     71 H28        -4.9199  -29.8754  -18.2677 H         1 66K         0.0313
     72 H29        -3.9839  -30.7570  -20.4039 H         1 66K         0.0523
     73 H30        -4.2341  -32.0039  -19.1353 H         1 66K         0.0523
     74 H31        -1.4357  -31.0437  -16.2793 H         1 66K         0.0313
     75 H32        -1.3047  -29.7808  -17.5500 H         1 66K         0.0313
     76 H33        -1.9941  -32.7106  -17.8752 H         1 66K         0.0523
     77 H34        -0.5406  -31.8370  -18.4676 H         1 66K         0.0523
     78 H35         0.2014  -30.3013  -19.5258 H         1 66K         0.0789
     79 H36         2.5759  -30.5715  -19.6497 H         1 66K         0.0722
     80 H37         3.5396  -32.3054  -21.1202 H         1 66K         0.0858
     81 H38        -0.4090  -33.4065  -22.2855 H         1 66K         0.0879
@<TRIPOS>BOND
     1    1    2 1  
     2    1    7 1  
     3    2    3 1  
     4    3    4 1  
     5    3    5 1  
     6    5    6 1  
     7    6    7 1  
     8    7    8 1  
     9    8    9 1  
    10    9   10 ar 
    11    9   16 ar 
    12   10   11 1  
    13   10   15 ar 
    14   11   12 1  
    15   11   13 1  
    16   11   14 1  
    17   15   18 ar 
    18   16   17 ar 
    19   17   18 ar 
    20   18   19 1  
    21   19   20 2  
    22   19   21 am 
    23   21   22 1  
    24   22   23 ar 
    25   22   24 ar 
    26   23   28 ar 
    27   24   25 ar 
    28   25   26 ar 
    29   26   27 1  
    30   26   28 ar 
    31   28   29 1  
    32   29   30 1  
    33   30   31 1  
    34   30   33 1  
    35   31   32 1  
    36   32   35 1  
    37   33   34 1  
    38   34   35 1  
    39   35   36 am 
    40   36   37 2  
    41   36   38 1  
    42   38   39 ar 
    43   38   43 ar 
    44   39   40 ar 
    45   40   41 ar 
    46   41   42 ar 
    47   42   43 ar 
    48    1   44 1  
    49    1   45 1  
    50    2   46 1  
    51    2   47 1  
    52    3   48 1  
    53    4   49 1  
    54    4   50 1  
    55    4   51 1  
    56    5   52 1  
    57    5   53 1  
    58    6   54 1  
    59    6   55 1  
    60    7   56 1  
    61    8   57 1  
    62    8   58 1  
    63   15   59 1  
    64   16   60 1  
    65   17   61 1  
    66   21   62 1  
    67   23   63 1  
    68   24   64 1  
    69   25   65 1  
    70   27   66 1  
    71   27   67 1  
    72   27   68 1  
    73   30   69 1  
    74   31   70 1  
    75   31   71 1  
    76   32   72 1  
    77   32   73 1  
    78   33   74 1  
    79   33   75 1  
    80   34   76 1  
    81   34   77 1  
    82   39   78 1  
    83   40   79 1  
    84   41   80 1  
    85   43   81 1  
@<TRIPOS>SUBSTRUCTURE
     1 66K         1

