### 
### Created by X-TOOL on Mon Sep 10 21:13:27 2018
### 

@<TRIPOS>MOLECULE
5hv0_ligand
   14    13     1     0     0
SMALL
GAST_HUCK


@<TRIPOS>ATOM
      1 C1        -18.4060   74.2100   -5.7860 C.2       1 AKG         0.1249
      2 O1        -19.4780   74.8480   -5.6590 O.co2     1 AKG        -0.5464
      3 O2        -17.8940   73.8360   -4.8280 O.co2     1 AKG        -0.5464
      4 C2        -17.9610   74.0050   -7.1720 C.2       1 AKG         0.1731
      5 O5        -17.0250   73.5000   -7.5220 O.2       1 AKG        -0.3576
      6 C3        -18.8860   74.5560   -8.2750 C.3       1 AKG         0.0423
      7 C4        -18.8740   73.7560   -9.5830 C.3       1 AKG         0.0164
      8 C5        -19.7070   74.3090  -10.7240 C.2       1 AKG         0.0371
      9 O3        -19.8990   75.4850  -10.7440 O.co2     1 AKG        -0.5688
     10 O4        -20.1160   73.5630  -11.5630 O.co2     1 AKG        -0.5688
     11 H1        -18.5732   75.5861   -8.5010 H         1 AKG         0.0516
     12 H2        -19.9153   74.5621   -7.8871 H         1 AKG         0.0516
     13 H3        -19.2439   72.7445   -9.3592 H         1 AKG         0.0456
     14 H4        -17.8315   73.6970   -9.9288 H         1 AKG         0.0456
@<TRIPOS>BOND
     1    1    2 ar 
     2    1    3 ar 
     3    1    4 1  
     4    4    5 2  
     5    4    6 1  
     6    6    7 1  
     7    7    8 1  
     8    8    9 ar 
     9    8   10 ar 
    10    6   11 1  
    11    6   12 1  
    12    7   13 1  
    13    7   14 1  
@<TRIPOS>SUBSTRUCTURE
     1 AKG         1

