### 
### Created by X-TOOL on Mon Sep 10 21:13:30 2018
### 

@<TRIPOS>MOLECULE
5hv1_ligand
  122   126     1     0     0
SMALL
GAST_HUCK


@<TRIPOS>ATOM
      1 C1        -20.7370   30.9660  -10.7180 C.2       1 RFP         0.1919
      2 C2        -20.6610   30.1570  -11.9310 C.2       1 RFP         0.1985
      3 C3        -20.3610   28.7530  -11.8530 C.3       1 RFP         0.1707
      4 C4        -20.0910   28.1490  -10.5810 C.2       1 RFP         0.1724
      5 C5        -19.8570   28.3830   -8.1390 C.2       1 RFP         0.0884
      6 C6        -19.8650   29.1000   -6.9240 C.2       1 RFP         0.1637
      7 C7        -20.1760   30.5230   -6.9230 C.3       1 RFP         0.1333
      8 C8        -20.4600   31.1570   -8.2030 C.2       1 RFP         0.1700
      9 C9        -20.4590   30.3780   -9.4340 C.2       1 RFP         0.1057
     10 C10       -20.1290   28.9710   -9.4050 C.2       1 RFP         0.0772
     11 C11       -19.5310   27.0440   -7.8120 C.2       1 RFP         0.0519
     12 C12       -19.2190   27.0230   -6.3980 C.3       1 RFP         0.1187
     13 C13       -20.1120   26.0380   -5.7730 C.3       1 RFP        -0.0891
     14 C14       -20.1940   31.3160   -5.6780 C.3       1 RFP        -0.0201
     15 C15       -20.9710   31.8100  -13.4870 C.2       1 RFP         0.2551
     16 C16       -21.1550   32.1650  -14.8440 C.2       1 RFP         0.0304
     17 C17       -20.1100   32.4390  -15.5830 C.2       1 RFP        -0.0649
     18 C18       -18.7310   32.3580  -15.1270 C.2       1 RFP        -0.0748
     19 C19       -17.8040   32.3960  -16.0340 C.2       1 RFP        -0.0701
     20 C20       -16.3440   32.3150  -15.7590 C.3       1 RFP         0.0140
     21 C21       -16.0000   31.8580  -14.3460 C.3       1 RFP         0.0739
     22 C22       -14.9470   30.7870  -14.2530 C.3       1 RFP         0.0112
     23 C23       -14.4610   30.5340  -12.8620 C.3       1 RFP         0.0656
     24 C24       -15.4900   29.9920  -11.9040 C.3       1 RFP         0.0137
     25 C25       -14.9300   29.8560  -10.5120 C.3       1 RFP         0.0986
     26 C26       -15.9790   29.4540   -9.5110 C.3       1 RFP         0.0179
     27 C27       -15.3980   28.8670   -8.2510 C.3       1 RFP         0.0760
     28 C28       -16.5110   28.5000   -7.3090 C.2       1 RFP        -0.0533
     29 C29       -16.8050   27.2270   -7.0430 C.2       1 RFP         0.0075
     30 C30       -22.5050   32.2890  -15.3640 C.3       1 RFP        -0.0267
     31 C31       -15.9520   31.3710  -16.8580 C.3       1 RFP        -0.0482
     32 C32       -13.7550   31.2420  -15.0400 C.3       1 RFP        -0.0575
     33 C33       -15.9220   28.6510  -12.3560 C.3       1 RFP        -0.0573
     34 C34       -16.7810   30.6750   -9.1610 C.3       1 RFP        -0.0561
     35 C35       -12.5970   29.4470  -10.2100 C.2       1 RFP         0.2309
     36 C36       -11.4240   28.6070  -10.4850 C.3       1 RFP         0.0372
     37 C37       -14.0260   29.6280   -6.4950 C.3       1 RFP         0.0387
     38 C38       -17.6990   24.4160  -17.1760 C.3       1 RFP        -0.0427
     39 C39       -18.8320   24.5320  -15.1540 C.3       1 RFP         0.0107
     40 C40       -19.5090   25.4580  -14.1780 C.3       1 RFP         0.0363
     41 C41       -18.7910   27.3540  -15.4330 C.3       1 RFP         0.0363
     42 C42       -17.8750   26.4720  -16.2480 C.3       1 RFP         0.0107
     43 C43       -20.3000   27.9260  -13.0270 C.3       1 RFP         0.0331
     44 N1        -20.9370   30.5710  -13.1530 N.am      1 RFP        -0.1799
     45 N2        -19.1530   27.5320  -13.2270 N.4       1 RFP         0.3259
     46 N3        -18.7660   26.7160  -14.1680 N.4       1 RFP         0.3333
     47 N4        -18.5920   25.2360  -16.4050 N.4       1 RFP         0.2406
     48 O1        -21.0300   32.2580  -10.8280 O.3       1 RFP        -0.3190
     49 O2        -20.7470   32.4410   -8.2470 O.2       1 RFP        -0.3770
     50 O3        -19.5500   28.2690   -5.9240 O.3       1 RFP        -0.3395
     51 O4        -19.5630   26.1360   -8.5790 O.2       1 RFP        -0.4534
     52 O5        -17.8860   26.8310   -6.1440 O.3       1 RFP        -0.4268
     53 O6        -14.6330   29.9090   -7.7300 O.3       1 RFP        -0.3732
     54 O7        -13.8890   28.9250  -10.4930 O.3       1 RFP        -0.2729
     55 O8        -12.4460   30.5260   -9.7580 O.2       1 RFP        -0.3707
     56 O9        -14.0920   31.8130  -12.4380 O.3       1 RFP        -0.3911
     57 O10       -15.3870   32.9270  -13.7000 O.3       1 RFP        -0.3885
     58 O11       -20.7930   32.7220  -12.7240 O.2       1 RFP        -0.3633
     59 O12       -19.7790   26.8840  -10.4860 O.2       1 RFP        -0.3730
     60 H1        -21.4329   28.5307  -11.7454 H         1 RFP         0.0916
     61 H2        -21.2434   30.2946   -6.7869 H         1 RFP         0.0924
     62 H3        -19.9071   25.9905   -4.6933 H         1 RFP        -0.0007
     63 H4        -19.9394   25.0491   -6.2228 H         1 RFP        -0.0007
     64 H5        -21.1582   26.3369   -5.9348 H         1 RFP        -0.0007
     65 H6        -19.9568   30.6639   -4.8245 H         1 RFP         0.0305
     66 H7        -21.1927   31.7552   -5.5374 H         1 RFP         0.0305
     67 H8        -19.4460   32.1198   -5.7443 H         1 RFP         0.0305
     68 H9        -20.2853   32.7496  -16.6120 H         1 RFP         0.0541
     69 H10       -18.4871   32.2692  -14.0694 H         1 RFP         0.0437
     70 H11       -18.1174   32.4944  -17.0723 H         1 RFP         0.0719
     71 H12       -15.8678   33.2948  -15.9114 H         1 RFP         0.0523
     72 H13       -16.9186   31.5373  -13.8328 H         1 RFP         0.0629
     73 H14       -15.3502   29.8530  -14.6714 H         1 RFP         0.0350
     74 H15       -13.5989   29.8511  -12.8821 H         1 RFP         0.0600
     75 H16       -16.3539   30.6726  -11.8831 H         1 RFP         0.0352
     76 H17       -14.5280   30.8349  -10.2119 H         1 RFP         0.0658
     77 H18       -16.6372   28.7036   -9.9732 H         1 RFP         0.0368
     78 H19       -14.7774   27.9844   -8.4651 H         1 RFP         0.0691
     79 H20       -17.0894   29.2909   -6.8338 H         1 RFP         0.0358
     80 H21       -16.2120   26.4467   -7.5178 H         1 RFP         0.0823
     81 H22       -23.2263   32.0115  -14.5813 H         1 RFP         0.0384
     82 H23       -22.6276   31.6207  -16.2291 H         1 RFP         0.0384
     83 H24       -22.6839   33.3287  -15.6755 H         1 RFP         0.0384
     84 H25       -16.2451   31.7968  -17.8290 H         1 RFP         0.0262
     85 H26       -16.4607   30.4067  -16.7119 H         1 RFP         0.0262
     86 H27       -14.8629   31.2177  -16.8386 H         1 RFP         0.0262
     87 H28       -14.0566   31.4439  -16.0784 H         1 RFP         0.0234
     88 H29       -12.9857   30.4558  -15.0279 H         1 RFP         0.0234
     89 H30       -13.3481   32.1602  -14.5913 H         1 RFP         0.0234
     90 H31       -16.3360   28.7225  -13.3726 H         1 RFP         0.0234
     91 H32       -16.6925   28.2643  -11.6727 H         1 RFP         0.0234
     92 H33       -15.0588   27.9693  -12.3588 H         1 RFP         0.0234
     93 H34       -17.2080   31.1083  -10.0775 H         1 RFP         0.0235
     94 H35       -16.1286   31.4153   -8.6749 H         1 RFP         0.0235
     95 H36       -17.5937   30.3955   -8.4744 H         1 RFP         0.0235
     96 H37       -10.5093   29.1541  -10.2128 H         1 RFP         0.0483
     97 H38       -11.3959   28.3555  -11.5555 H         1 RFP         0.0483
     98 H39       -11.4881   27.6823   -9.8927 H         1 RFP         0.0483
     99 H40       -13.4467   30.5025   -6.1638 H         1 RFP         0.0525
    100 H41       -13.3546   28.7636   -6.6046 H         1 RFP         0.0525
    101 H42       -14.8012   29.3980   -5.7493 H         1 RFP         0.0525
    102 H43       -18.1628   23.4342  -17.3522 H         1 RFP         0.0778
    103 H44       -16.7562   24.2825  -16.6254 H         1 RFP         0.0778
    104 H45       -17.4944   24.9033  -18.1407 H         1 RFP         0.0778
    105 H46       -19.4776   23.6613  -15.3414 H         1 RFP         0.0868
    106 H47       -17.8732   24.1940  -14.7339 H         1 RFP         0.0868
    107 H48       -19.5029   25.0117  -13.1726 H         1 RFP         0.0883
    108 H49       -20.5474   25.6391  -14.4925 H         1 RFP         0.0883
    109 H50       -19.8078   27.3700  -15.8524 H         1 RFP         0.0883
    110 H51       -18.4042   28.3818  -15.3699 H         1 RFP         0.0883
    111 H52       -16.9265   26.3040  -15.7168 H         1 RFP         0.0868
    112 H53       -17.6707   26.9276  -17.2281 H         1 RFP         0.0868
    113 H54       -20.6370   28.5095  -13.8964 H         1 RFP         0.0901
    114 H55       -20.9605   27.0571  -12.8901 H         1 RFP         0.0901
    115 H56       -21.1294   29.8848  -13.8545 H         1 RFP         0.2719
    116 H57       -18.8741   27.0893  -12.3654 H         1 RFP         0.2332
    117 H58       -18.6090   28.3691  -13.3662 H         1 RFP         0.2332
    118 H59       -17.8050   26.4819  -13.9738 H         1 RFP         0.2356
    119 H60       -19.4654   25.3939  -16.8828 H         1 RFP         0.2035
    120 H61       -21.1831   32.4702  -11.7413 H         1 RFP         0.2523
    121 H62       -14.8572   32.3759  -12.4303 H         1 RFP         0.2098
    122 H63       -15.1849   32.6809  -12.8049 H         1 RFP         0.2101
@<TRIPOS>BOND
     1    2    1 2  
     2    1    9 1  
     3    1   48 1  
     4    3    2 1  
     5    2   44 1  
     6    3    4 1  
     7   43    3 1  
     8    4   10 1  
     9    4   59 2  
    10    5    6 2  
    11   10    5 1  
    12    5   11 1  
    13    6    7 1  
    14    6   50 1  
    15    8    7 1  
    16    7   14 1  
    17    9    8 1  
    18    8   49 2  
    19   10    9 2  
    20   11   12 1  
    21   11   51 2  
    22   12   13 1  
    23   12   50 1  
    24   12   52 1  
    25   15   16 1  
    26   44   15 am 
    27   15   58 2  
    28   16   17 2  
    29   16   30 1  
    30   17   18 1  
    31   18   19 2  
    32   19   20 1  
    33   20   21 1  
    34   20   31 1  
    35   21   22 1  
    36   21   57 1  
    37   22   23 1  
    38   22   32 1  
    39   23   24 1  
    40   23   56 1  
    41   25   24 1  
    42   24   33 1  
    43   26   25 1  
    44   25   54 1  
    45   27   26 1  
    46   26   34 1  
    47   28   27 1  
    48   27   53 1  
    49   29   28 2  
    50   52   29 1  
    51   35   36 1  
    52   54   35 1  
    53   35   55 2  
    54   53   37 1  
    55   47   38 1  
    56   40   39 1  
    57   39   47 1  
    58   46   40 1  
    59   41   42 1  
    60   46   41 1  
    61   42   47 1  
    62   45   43 1  
    63   45   46 1  
    64    3   60 1  
    65    7   61 1  
    66   13   62 1  
    67   13   63 1  
    68   13   64 1  
    69   14   65 1  
    70   14   66 1  
    71   14   67 1  
    72   17   68 1  
    73   18   69 1  
    74   19   70 1  
    75   20   71 1  
    76   21   72 1  
    77   22   73 1  
    78   23   74 1  
    79   24   75 1  
    80   25   76 1  
    81   26   77 1  
    82   27   78 1  
    83   28   79 1  
    84   29   80 1  
    85   30   81 1  
    86   30   82 1  
    87   30   83 1  
    88   31   84 1  
    89   31   85 1  
    90   31   86 1  
    91   32   87 1  
    92   32   88 1  
    93   32   89 1  
    94   33   90 1  
    95   33   91 1  
    96   33   92 1  
    97   34   93 1  
    98   34   94 1  
    99   34   95 1  
   100   36   96 1  
   101   36   97 1  
   102   36   98 1  
   103   37   99 1  
   104   37  100 1  
   105   37  101 1  
   106   38  102 1  
   107   38  103 1  
   108   38  104 1  
   109   39  105 1  
   110   39  106 1  
   111   40  107 1  
   112   40  108 1  
   113   41  109 1  
   114   41  110 1  
   115   42  111 1  
   116   42  112 1  
   117   43  113 1  
   118   43  114 1  
   119   44  115 1  
   120   45  116 1  
   121   45  117 1  
   122   46  118 1  
   123   47  119 1  
   124   48  120 1  
   125   56  121 1  
   126   57  122 1  
@<TRIPOS>SUBSTRUCTURE
     1 RFP         1

