### 
### Created by X-TOOL on Mon Sep 10 21:13:27 2018
### 

@<TRIPOS>MOLECULE
5hvs_ligand
   47    51     1     0     0
SMALL
GAST_HUCK


@<TRIPOS>ATOM
      1 C2        -12.0170   -7.2840   -6.3530 C.ar      1 65V         0.1122
      2 C3        -13.3810   -7.3670   -6.5460 C.ar      1 65V         0.0029
      3 C4        -13.9080   -8.4660   -7.1760 C.ar      1 65V         0.1576
      4 C5        -13.1540   -9.5090   -7.6470 C.ar      1 65V         0.1160
      5 C6        -11.7880   -9.4230   -7.4590 C.ar      1 65V        -0.0366
      6 C7        -11.2220   -8.3260   -6.8120 C.ar      1 65V        -0.0346
      7 O8        -13.7320  -10.5990   -8.2560 O.3       1 65V        -0.3362
      8 F10       -15.2290   -8.5430   -7.3280 F         1 65V        -0.1913
      9 N12       -11.4350   -6.1730   -5.7050 N.pl3     1 65V        -0.1257
     10 C13       -10.3210   -6.1910   -4.9910 C.2       1 65V         0.1079
     11 C14       -10.1680   -4.9180   -4.5180 C.2       1 65V         0.0918
     12 N15       -11.2070   -4.1990   -5.0080 N.2       1 65V        -0.2103
     13 N16       -12.0860   -4.9660   -5.7520 N.2       1 65V        -0.0766
     14 C17        -9.1050   -4.3200   -3.7040 C.ar      1 65V         0.0436
     15 C18        -8.1510   -5.1260   -3.0980 C.ar      1 65V        -0.0333
     16 C19        -7.1440   -4.5290   -2.3560 C.ar      1 65V        -0.0371
     17 C20        -7.1450   -3.1370   -2.2320 C.ar      1 65V         0.0416
     18 C21        -8.1550   -2.3780   -2.8600 C.ar      1 65V         0.0282
     19 N22        -9.1200   -2.9840   -3.5960 N.ar      1 65V        -0.3100
     20 C23        -6.1640   -2.4700   -1.4950 C.ar      1 65V         0.1345
     21 C24        -6.1830   -1.0800   -1.3970 C.ar      1 65V        -0.0260
     22 C25        -7.1780   -0.3410   -2.0360 C.ar      1 65V        -0.0702
     23 C26        -8.1650   -0.9880   -2.7610 C.ar      1 65V        -0.0568
     24 O27        -5.2130   -3.2760   -0.9190 O.3       1 65V        -0.2505
     25 C28        -4.1310   -2.7000   -0.2870 C.ar      1 65V         0.1226
     26 C29        -2.9810   -2.2810   -0.9660 C.ar      1 65V        -0.0251
     27 C30        -1.9170   -1.7150   -0.2640 C.ar      1 65V        -0.0657
     28 C31        -2.0080   -1.5630    1.1190 C.ar      1 65V        -0.0578
     29 C32        -3.1670   -1.9760    1.7920 C.ar      1 65V         0.0028
     30 C33        -4.2180   -2.5460    1.0860 C.ar      1 65V        -0.0136
     31 C34        -3.3070   -1.8510    3.2790 C.2       1 65V         0.0606
     32 O35        -2.3080   -1.4950    3.9450 O.co2     1 65V        -0.5607
     33 O36        -4.4060   -2.1260    3.8150 O.co2     1 65V        -0.5607
     34 H1        -14.0308   -6.5702   -6.2026 H         1 65V         0.0557
     35 H2        -11.1476  -10.2198   -7.8197 H         1 65V         0.0520
     36 H3        -10.1487   -8.2857   -6.6654 H         1 65V         0.0539
     37 H4        -14.6733  -10.4767   -8.2943 H         1 65V         0.2453
     38 H5         -9.6639   -7.0418   -4.8168 H         1 65V         0.1136
     39 H6         -8.1929   -6.2041   -3.2033 H         1 65V         0.0644
     40 H7         -6.3739   -5.1276   -1.8831 H         1 65V         0.0760
     41 H8         -5.4196   -0.5701   -0.8205 H         1 65V         0.0520
     42 H9         -7.1790    0.7407   -1.9653 H         1 65V         0.0611
     43 H10        -8.9437   -0.4143   -3.2504 H         1 65V         0.0501
     44 H11        -2.9171   -2.3969   -2.0419 H         1 65V         0.0576
     45 H12        -1.0249   -1.3953   -0.7903 H         1 65V         0.0598
     46 H13        -1.1847   -1.1265    1.6728 H         1 65V         0.0564
     47 H14        -5.1088   -2.8712    1.6112 H         1 65V         0.0588
@<TRIPOS>BOND
     1    1    2 ar 
     2    1    6 ar 
     3    1    9 1  
     4    2    3 ar 
     5    3    4 ar 
     6    3    8 1  
     7    4    5 ar 
     8    4    7 1  
     9    5    6 ar 
    10    9   10 1  
    11    9   13 1  
    12   10   11 2  
    13   11   12 1  
    14   11   14 1  
    15   12   13 2  
    16   14   15 ar 
    17   14   19 ar 
    18   15   16 ar 
    19   16   17 ar 
    20   17   18 ar 
    21   17   20 ar 
    22   18   19 ar 
    23   18   23 ar 
    24   20   21 ar 
    25   20   24 1  
    26   21   22 ar 
    27   22   23 ar 
    28   24   25 1  
    29   25   26 ar 
    30   25   30 ar 
    31   26   27 ar 
    32   27   28 ar 
    33   28   29 ar 
    34   29   30 ar 
    35   29   31 1  
    36   31   32 ar 
    37   31   33 ar 
    38    2   34 1  
    39    5   35 1  
    40    6   36 1  
    41    7   37 1  
    42   10   38 1  
    43   15   39 1  
    44   16   40 1  
    45   21   41 1  
    46   22   42 1  
    47   23   43 1  
    48   26   44 1  
    49   27   45 1  
    50   28   46 1  
    51   30   47 1  
@<TRIPOS>SUBSTRUCTURE
     1 65V         1

