### 
### Created by X-TOOL on Mon Sep 10 21:13:27 2018
### 

@<TRIPOS>MOLECULE
5hvt_ligand
   33    35     1     0     0
SMALL
GAST_HUCK


@<TRIPOS>ATOM
      1 N8         32.3750  -27.5590  -24.5340 N.am      1 NVS        -0.1896
      2 C9         31.4480  -27.4010  -23.5560 C.2       1 NVS         0.3739
      3 O10        31.4610  -28.3080  -22.5240 O.3       1 NVS        -0.2018
      4 C11        32.5730  -29.0690  -22.2710 C.ar      1 NVS         0.1197
      5 C12        33.5070  -29.2890  -23.2450 C.ar      1 NVS         0.0075
      6 C13        33.3080  -28.6800  -24.6260 C.3       1 NVS         0.0833
      7 O14        30.5800  -26.5360  -23.5710 O.2       1 NVS        -0.3632
      8 C21        32.7250  -29.6280  -21.0000 C.ar      1 NVS        -0.0067
      9 C22        33.8310  -30.4180  -20.7060 C.ar      1 NVS         0.0730
     10 C23        34.7760  -30.6630  -21.6960 C.ar      1 NVS        -0.0502
     11 C24        34.6090  -30.0950  -22.9560 C.ar      1 NVS        -0.0736
     12 O25        33.9610  -30.9260  -19.4420 O.3       1 NVS        -0.3401
     13 C1         32.3950  -26.6010  -25.5570 C.ar      1 NVS         0.0623
     14 C2         31.2870  -26.4460  -26.3860 C.ar      1 NVS        -0.0488
     15 C3         31.2940  -25.5020  -27.4070 C.ar      1 NVS        -0.0459
     16 C4         32.4130  -24.7060  -27.6130 C.ar      1 NVS         0.0754
     17 C5         33.5110  -24.8480  -26.7740 C.ar      1 NVS        -0.0459
     18 C6         33.5010  -25.8000  -25.7490 C.ar      1 NVS        -0.0488
     19 O7         32.3800  -23.7750  -28.6210 O.3       1 NVS        -0.3309
     20 C8         33.6070  -23.2700  -29.1240 C.3       1 NVS         0.0561
     21 H1         34.2741  -28.3224  -25.0117 H         1 NVS         0.0702
     22 H2         32.9004  -29.4414  -25.3072 H         1 NVS         0.0702
     23 H3         31.9761  -29.4448  -20.2380 H         1 NVS         0.0456
     24 H4         35.6351  -31.2907  -21.4886 H         1 NVS         0.0439
     25 H5         35.3482  -30.2822  -23.7264 H         1 NVS         0.0503
     26 H6         33.2211  -30.6506  -18.9136 H         1 NVS         0.2456
     27 H7         30.4113  -27.0667  -26.2341 H         1 NVS         0.0478
     28 H8         30.4241  -25.3873  -28.0435 H         1 NVS         0.0507
     29 H9         34.3812  -24.2170  -26.9144 H         1 NVS         0.0507
     30 H10        34.3653  -25.9084  -25.1037 H         1 NVS         0.0478
     31 H11        33.4037  -22.5396  -29.9210 H         1 NVS         0.0572
     32 H12        34.2057  -24.0987  -29.5301 H         1 NVS         0.0572
     33 H13        34.1628  -22.7802  -28.3109 H         1 NVS         0.0572
@<TRIPOS>BOND
     1    1    2 am 
     2    1    6 1  
     3    1   13 1  
     4    2    3 1  
     5    2    7 2  
     6    3    4 1  
     7    4    5 ar 
     8    4    8 ar 
     9    5    6 1  
    10    5   11 ar 
    11    8    9 ar 
    12    9   10 ar 
    13    9   12 1  
    14   10   11 ar 
    15   13   14 ar 
    16   13   18 ar 
    17   14   15 ar 
    18   15   16 ar 
    19   16   17 ar 
    20   16   19 1  
    21   17   18 ar 
    22   19   20 1  
    23    6   21 1  
    24    6   22 1  
    25    8   23 1  
    26   10   24 1  
    27   11   25 1  
    28   12   26 1  
    29   14   27 1  
    30   15   28 1  
    31   17   29 1  
    32   18   30 1  
    33   20   31 1  
    34   20   32 1  
    35   20   33 1  
@<TRIPOS>SUBSTRUCTURE
     1 NVS         1

