### 
### Created by X-TOOL on Wed Jan  1 15:39:34 2020
### 

@<TRIPOS>MOLECULE
5hvu_ligand
   60    63     1     0     0
SMALL
GAST_HUCK


@<TRIPOS>ATOM
      1 C4         49.9970  104.8480   34.4160 C.ar      1 65R        -0.0298
      2 C5         48.9500  105.1880   35.2600 C.ar      1 65R         0.0849
      3 C6         48.0920  104.2030   35.7300 C.ar      1 65R        -0.0398
      4 C8         49.7930  107.0880   36.4140 C.3       1 65R         0.0703
      5 C10        49.4860  109.5230   36.8830 C.3       1 65R        -0.0474
      6 C13        51.1840  112.9770   36.8230 C.3       1 65R        -0.0334
      7 C15        51.5990  111.9600   38.9830 C.3       1 65R        -0.0334
      8 C17        51.3200  103.1590   33.1280 C.3       1 65R         0.0759
      9 C21        50.8930  102.5340   29.4380 C.2       1 65R         0.2090
     10 C24        50.1970  103.1550   27.1280 C.2       1 65R         0.0133
     11 C26        50.1790  100.8070   26.3350 C.ar      1 65R        -0.0080
     12 C28        49.5400  100.1500   24.1240 C.ar      1 65R         0.0056
     13 C1         48.2830  102.8880   35.3560 C.ar      1 65R        -0.0768
     14 C2         49.3270  102.5510   34.5140 C.ar      1 65R        -0.0690
     15 C3         50.1830  103.5300   34.0450 C.ar      1 65R        -0.0325
     16 O7         48.7650  106.4840   35.6270 O.3       1 65R        -0.3197
     17 C9         50.0640  108.5040   35.8990 C.3       1 65R        -0.0248
     18 C11        50.5370  110.5930   37.1850 C.3       1 65R        -0.0314
     19 C12        50.1630  111.8940   36.4690 C.3       1 65R        -0.0096
     20 N14        51.1970  113.1830   38.2770 N.4       1 65R         0.2270
     21 C16        50.5900  110.8470   38.6940 C.3       1 65R        -0.0096
     22 C18        50.8840  103.3240   31.6950 C.2       1 65R         0.2264
     23 O19        50.1870  104.2690   31.3850 O.2       1 65R        -0.3770
     24 N20        51.2730  102.4190   30.7710 N.am      1 65R        -0.1920
     25 N22        50.7480  101.5460   28.6120 N.2       1 65R        -0.3132
     26 C23        50.3780  101.8440   27.3740 C.2       1 65R         0.0107
     27 S25        50.5320  104.0460   28.6100 S.3       1 65R         0.0234
     28 C27        49.7120  101.1470   25.0610 C.ar      1 65R        -0.0325
     29 N29        49.8100   98.8910   24.4160 N.ar      1 65R        -0.3039
     30 C30        50.2530   98.5280   25.6050 C.ar      1 65R         0.0056
     31 C31        50.4520   99.4610   26.6010 C.ar      1 65R        -0.0325
     32 H1         50.6684  105.6153   34.0479 H         1 65R         0.0482
     33 H2         47.2732  104.4662   36.3898 H         1 65R         0.0488
     34 H3         50.7122  106.4884   36.3392 H         1 65R         0.0614
     35 H4         49.4705  107.1354   37.4646 H         1 65R         0.0614
     36 H5         49.2037  109.0128   37.8157 H         1 65R         0.0269
     37 H6         48.5972  109.9966   36.4406 H         1 65R         0.0269
     38 H7         50.9095  113.9171   36.3222 H         1 65R         0.0814
     39 H8         52.1834  112.6617   36.4887 H         1 65R         0.0814
     40 H9         51.6294  112.1549   40.0652 H         1 65R         0.0814
     41 H10        52.5962  111.6490   38.6383 H         1 65R         0.0814
     42 H11        51.6076  102.1122   33.3055 H         1 65R         0.0665
     43 H12        52.1806  103.8145   33.3272 H         1 65R         0.0665
     44 H13        49.8953  103.5900   26.1763 H         1 65R         0.0699
     45 H14        49.1781  100.4034   23.1341 H         1 65R         0.0807
     46 H15        47.6136  102.1183   35.7229 H         1 65R         0.0573
     47 H16        49.4743  101.5177   34.2213 H         1 65R         0.0468
     48 H17        49.5890  108.6338   34.9154 H         1 65R         0.0291
     49 H18        51.1490  108.6590   35.8056 H         1 65R         0.0291
     50 H19        51.5215  110.2496   36.8346 H         1 65R         0.0304
     51 H20        50.1648  111.7286   35.3815 H         1 65R         0.0319
     52 H21        49.1608  112.2148   36.7895 H         1 65R         0.0319
     53 H22        50.2730  113.4487   38.5797 H         1 65R         0.2013
     54 H23        51.8481  113.9198   38.4989 H         1 65R         0.2013
     55 H24        49.5949  111.1511   39.0508 H         1 65R         0.0319
     56 H25        50.8995  109.9268   39.2110 H         1 65R         0.0319
     57 H26        51.8468  101.6495   31.0514 H         1 65R         0.2413
     58 H27        49.4887  102.1786   24.8140 H         1 65R         0.0682
     59 H28        50.4632   97.4829   25.8013 H         1 65R         0.0807
     60 H29        50.8147   99.1557   27.5759 H         1 65R         0.0682
@<TRIPOS>BOND
     1    1    2 ar 
     2   15    1 ar 
     3    2    3 ar 
     4    2   16 1  
     5   13    3 ar 
     6   16    4 1  
     7    4   17 1  
     8   17    5 1  
     9    5   18 1  
    10   19    6 1  
    11    6   20 1  
    12    7   20 1  
    13   21    7 1  
    14    8   15 1  
    15   22    8 1  
    16   24    9 1  
    17    9   25 2  
    18    9   27 1  
    19   10   26 2  
    20   27   10 1  
    21   26   11 1  
    22   11   28 ar 
    23   11   31 ar 
    24   28   12 ar 
    25   12   29 ar 
    26   14   13 ar 
    27   15   14 ar 
    28   18   19 1  
    29   18   21 1  
    30   22   23 2  
    31   22   24 am 
    32   25   26 1  
    33   29   30 ar 
    34   30   31 ar 
    35    1   32 1  
    36    3   33 1  
    37    4   34 1  
    38    4   35 1  
    39    5   36 1  
    40    5   37 1  
    41    6   38 1  
    42    6   39 1  
    43    7   40 1  
    44    7   41 1  
    45    8   42 1  
    46    8   43 1  
    47   10   44 1  
    48   12   45 1  
    49   13   46 1  
    50   14   47 1  
    51   17   48 1  
    52   17   49 1  
    53   18   50 1  
    54   19   51 1  
    55   19   52 1  
    56   20   53 1  
    57   20   54 1  
    58   21   55 1  
    59   21   56 1  
    60   24   57 1  
    61   28   58 1  
    62   30   59 1  
    63   31   60 1  
@<TRIPOS>SUBSTRUCTURE
     1 65R         1

