### 
### Created by X-TOOL on Mon Sep 10 21:13:27 2018
### 

@<TRIPOS>MOLECULE
5hvy_ligand
   63    66     1     0     0
SMALL
GAST_HUCK


@<TRIPOS>ATOM
      1 C14        -4.9610  -24.5050  151.8690 C.3       1 66X         0.0549
      2 C5         -8.3280  -25.8540  149.6010 C.ar      1 66X        -0.0011
      3 C6         -7.2150  -25.5410  150.3750 C.ar      1 66X        -0.0066
      4 C11        -2.6940  -24.6180  151.1200 C.3       1 66X        -0.0075
      5 C7         -6.0110  -25.2410  149.7370 C.ar      1 66X         0.1157
      6 C10        -3.5300  -24.8550  149.8750 C.3       1 66X         0.0343
      7 C12        -3.6080  -23.8460  152.0560 C.3       1 66X         0.0652
      8 N2         -6.9610  -25.5800  146.3040 N.pl3     1 66X        -0.2954
      9 C3         -7.0590  -25.5710  147.6580 C.ar      1 66X         0.1729
     10 C1         -5.7040  -25.2630  145.6170 C.3       1 66X         0.0192
     11 N4         -8.2290  -25.8670  148.2620 N.ar      1 66X        -0.2737
     12 N8         -5.9690  -25.2640  148.3940 N.ar      1 66X        -0.2421
     13 N9         -4.8650  -24.8860  150.4660 N.pl3     1 66X        -0.2875
     14 N15        -3.0140  -23.9410  153.4010 N.am      1 66X        -0.2630
     15 C16        -3.3770  -23.0780  154.3490 C.2       1 66X         0.2864
     16 O17        -4.2610  -22.2630  154.1090 O.2       1 66X        -0.3910
     17 N18        -2.8090  -23.1620  155.5650 N.am      1 66X        -0.2170
     18 C19        -3.1120  -22.2340  156.5780 C.ar      1 66X         0.0885
     19 C20        -1.9900  -21.7990  157.2720 C.ar      1 66X        -0.0152
     20 C21        -2.0760  -20.8380  158.2740 C.ar      1 66X        -0.0318
     21 C22        -3.3160  -20.2740  158.5940 C.ar      1 66X         0.0245
     22 C23        -3.4370  -19.2210  159.6900 C.3       1 66X         0.0127
     23 N24        -2.2420  -19.1290  160.5200 N.4       1 66X         0.2546
     24 C25        -2.1280  -17.7880  161.1280 C.3       1 66X        -0.0059
     25 C26        -0.9350  -17.7620  162.0810 C.3       1 66X         0.0878
     26 O27        -1.0750  -18.8000  163.0530 O.3       1 66X        -0.3693
     27 C28        -1.0910  -20.0620  162.3880 C.3       1 66X         0.0878
     28 C29        -2.3570  -20.1510  161.5590 C.3       1 66X        -0.0059
     29 C30        -4.4430  -20.6860  157.8910 C.ar      1 66X         0.0384
     30 C31        -4.3500  -21.6470  156.8720 C.ar      1 66X        -0.0206
     31 C32        -5.7540  -20.0580  158.2320 C.3       1 66X         0.3644
     32 F33        -6.6730  -20.5280  157.4230 F         1 66X        -0.2292
     33 F34        -5.6160  -18.7500  158.0580 F         1 66X        -0.2292
     34 F35        -6.1310  -20.3320  159.4690 F         1 66X        -0.2292
     35 H1         -5.7865  -23.7996  152.0448 H         1 66X         0.0548
     36 H2         -5.0821  -25.3814  152.5226 H         1 66X         0.0548
     37 H3         -9.2731  -26.0869  150.0780 H         1 66X         0.0845
     38 H4         -7.2822  -25.5304  151.4569 H         1 66X         0.0566
     39 H5         -1.7976  -24.0279  150.8790 H         1 66X         0.0308
     40 H6         -2.3928  -25.5741  151.5730 H         1 66X         0.0308
     41 H7         -3.2768  -25.8088  149.3891 H         1 66X         0.0526
     42 H8         -3.4238  -24.0346  149.1500 H         1 66X         0.0526
     43 H9         -3.6744  -22.7860  151.7699 H         1 66X         0.0575
     44 H10        -7.7923  -25.8159  145.7434 H         1 66X         0.1857
     45 H11        -5.8534  -25.3310  144.5293 H         1 66X         0.0488
     46 H12        -4.9270  -25.9778  145.9257 H         1 66X         0.0488
     47 H13        -5.3892  -24.2426  145.8808 H         1 66X         0.0488
     48 H14        -2.3398  -24.6517  153.6019 H         1 66X         0.1856
     49 H15        -2.1588  -23.8982  155.7528 H         1 66X         0.2241
     50 H16        -1.0217  -22.2197  157.0262 H         1 66X         0.0761
     51 H17        -1.1842  -20.5266  158.8059 H         1 66X         0.0615
     52 H18        -4.2919  -19.4790  160.3323 H         1 66X         0.1043
     53 H19        -3.6140  -18.2427  159.2194 H         1 66X         0.1043
     54 H20        -1.4242  -19.3056  159.9578 H         1 66X         0.2055
     55 H21        -3.0480  -17.5586  161.6856 H         1 66X         0.0837
     56 H22        -1.9820  -17.0377  160.3370 H         1 66X         0.0837
     57 H23        -0.8939  -16.7875  162.5896 H         1 66X         0.0613
     58 H24        -0.0074  -17.9174  161.5106 H         1 66X         0.0613
     59 H25        -1.0757  -20.8733  163.1306 H         1 66X         0.0613
     60 H26        -0.2115  -20.1478  161.7330 H         1 66X         0.0613
     61 H27        -2.4443  -21.1485  161.1036 H         1 66X         0.0837
     62 H28        -3.2382  -19.9567  162.1881 H         1 66X         0.0837
     63 H29        -5.2337  -21.9343  156.3139 H         1 66X         0.0652
@<TRIPOS>BOND
     1    1    7 1  
     2   13    1 1  
     3    2    3 ar 
     4   11    2 ar 
     5    3    5 ar 
     6    6    4 1  
     7    4    7 1  
     8    5   12 ar 
     9    5   13 1  
    10   13    6 1  
    11    7   14 1  
    12    9    8 1  
    13    8   10 1  
    14    9   11 ar 
    15    9   12 ar 
    16   14   15 am 
    17   15   16 2  
    18   15   17 am 
    19   17   18 1  
    20   18   19 ar 
    21   18   30 ar 
    22   19   20 ar 
    23   20   21 ar 
    24   21   22 1  
    25   21   29 ar 
    26   22   23 1  
    27   23   24 1  
    28   23   28 1  
    29   24   25 1  
    30   25   26 1  
    31   26   27 1  
    32   27   28 1  
    33   29   30 ar 
    34   29   31 1  
    35   31   32 1  
    36   31   33 1  
    37   31   34 1  
    38    1   35 1  
    39    1   36 1  
    40    2   37 1  
    41    3   38 1  
    42    4   39 1  
    43    4   40 1  
    44    6   41 1  
    45    6   42 1  
    46    7   43 1  
    47    8   44 1  
    48   10   45 1  
    49   10   46 1  
    50   10   47 1  
    51   14   48 1  
    52   17   49 1  
    53   19   50 1  
    54   20   51 1  
    55   22   52 1  
    56   22   53 1  
    57   23   54 1  
    58   24   55 1  
    59   24   56 1  
    60   25   57 1  
    61   25   58 1  
    62   27   59 1  
    63   27   60 1  
    64   28   61 1  
    65   28   62 1  
    66   30   63 1  
@<TRIPOS>SUBSTRUCTURE
     1 66X         1

