### 
### Created by X-TOOL on Mon Sep 10 21:13:27 2018
### 

@<TRIPOS>MOLECULE
5hwv_ligand
   15    15     1     0     0
SMALL
GAST_HUCK


@<TRIPOS>ATOM
      1 C          -5.3130    5.2670  -27.1460 C.3       1 MBN        -0.0311
      2 C1         -5.9810    4.9630  -28.4270 C.ar      1 MBN        -0.0461
      3 C2         -5.7040    5.6700  -29.5640 C.ar      1 MBN        -0.0606
      4 C3         -6.3390    5.4130  -30.7760 C.ar      1 MBN        -0.0686
      5 C4         -7.3040    4.3780  -30.8350 C.ar      1 MBN        -0.0687
      6 C5         -7.5540    3.6690  -29.6090 C.ar      1 MBN        -0.0686
      7 C6         -6.9020    3.9520  -28.4150 C.ar      1 MBN        -0.0606
      8 H1         -4.6014    6.0932  -27.2906 H         1 MBN         0.0391
      9 H2         -4.7733    4.3758  -26.7933 H         1 MBN         0.0391
     10 H3         -6.0666    5.5586  -26.3996 H         1 MBN         0.0391
     11 H4         -4.9627    6.4597  -29.5202 H         1 MBN         0.0557
     12 H5         -6.0991    5.9946  -31.6587 H         1 MBN         0.0599
     13 H6         -7.8253    4.1338  -31.7535 H         1 MBN         0.0559
     14 H7         -8.2892    2.8725  -29.6168 H         1 MBN         0.0599
     15 H8         -7.1148    3.3939  -27.5104 H         1 MBN         0.0557
@<TRIPOS>BOND
     1    1    2 1  
     2    2    3 ar 
     3    2    7 ar 
     4    3    4 ar 
     5    4    5 ar 
     6    5    6 ar 
     7    6    7 ar 
     8    1    8 1  
     9    1    9 1  
    10    1   10 1  
    11    3   11 1  
    12    4   12 1  
    13    5   13 1  
    14    6   14 1  
    15    7   15 1  
@<TRIPOS>SUBSTRUCTURE
     1 MBN         1

