### 
### Created by X-TOOL on Mon Sep 10 21:13:29 2018
### 

@<TRIPOS>MOLECULE
5hx6_ligand
   47    50     1     0     0
SMALL
GAST_HUCK


@<TRIPOS>ATOM
      1 C33        16.6960   -2.3350   55.0950 C.ar      1 65U        -0.0268
      2 C38        17.3650   -0.1100   56.6400 C.ar      1 65U        -0.0685
      3 C40        16.2020   -0.8100   56.8960 C.ar      1 65U        -0.0681
      4 C42        15.8850   -1.9310   56.1480 C.ar      1 65U        -0.0579
      5 C36        18.2070   -0.5300   55.6300 C.ar      1 65U        -0.0681
      6 C13        23.6270   -9.3540   60.0470 C.ar      1 65U        -0.0461
      7 C15        22.6140   -9.8650   59.2540 C.ar      1 65U         0.1130
      8 C11        24.9470   -9.6150   59.7140 C.ar      1 65U        -0.0862
      9 C17        20.5520   -8.7500   58.7840 C.3       1 65U         0.1077
     10 C20        20.7080   -8.9150   57.2630 C.3       1 65U         0.1631
     11 C30        16.4050   -3.6160   54.3510 C.3       1 65U         0.0543
     12 C29        17.2390   -4.7690   54.8120 C.2       1 65U         0.1529
     13 C27        18.3210   -4.8730   55.5940 C.2       1 65U        -0.0139
     14 C26        18.6020   -6.2360   55.6600 C.2       1 65U         0.1138
     15 C01        21.8870  -12.5480   56.9390 C.3       1 65U         0.0424
     16 N05        21.8730  -11.1200   57.2570 N.am      1 65U        -0.2237
     17 C06        22.9040  -10.5970   58.0970 C.ar      1 65U         0.0989
     18 C07        24.2390  -10.8420   57.7710 C.ar      1 65U        -0.0491
     19 C09        25.2490  -10.3580   58.5920 C.ar      1 65U        -0.0868
     20 O16        21.3230   -9.5920   59.6550 O.3       1 65U        -0.3195
     21 N22        19.6580   -8.2100   56.5410 N.am      1 65U        -0.2621
     22 C24        19.7260   -6.8750   56.3890 C.2       1 65U         0.2115
     23 O25        20.6480   -6.1910   56.8460 O.2       1 65U        -0.3853
     24 C34        17.8880   -1.6500   54.8780 C.ar      1 65U        -0.0579
     25 O44        16.8470   -6.0000   54.4090 O.3       1 65U        -0.1583
     26 N45        17.7510   -6.9570   54.9540 N.2       1 65U        -0.1321
     27 C46        20.7710  -10.3960   56.8760 C.2       1 65U         0.2314
     28 O47        19.8630  -10.9000   56.2390 O.2       1 65U        -0.3834
     29 H1         17.6152    0.7648   57.2293 H         1 65U         0.0561
     30 H2         15.5356   -0.4806   57.6849 H         1 65U         0.0600
     31 H3         14.9938   -2.5000   56.3867 H         1 65U         0.0561
     32 H4         19.1198    0.0173   55.4244 H         1 65U         0.0600
     33 H5         23.3904   -8.7558   60.9195 H         1 65U         0.0495
     34 H6         25.7462   -9.2331   60.3388 H         1 65U         0.0460
     35 H7         19.4921   -8.9246   59.0209 H         1 65U         0.0658
     36 H8         20.8149   -7.7094   59.0247 H         1 65U         0.0658
     37 H9         21.6668   -8.4582   56.9766 H         1 65U         0.0832
     38 H10        16.5989   -3.4504   53.2810 H         1 65U         0.0641
     39 H11        15.3450   -3.8714   54.4964 H         1 65U         0.0641
     40 H12        18.8662   -4.0632   56.0765 H         1 65U         0.0318
     41 H13        22.8244  -12.9952   57.3015 H         1 65U         0.0545
     42 H14        21.8142  -12.6818   55.8496 H         1 65U         0.0545
     43 H15        21.0331  -13.0407   57.4269 H         1 65U         0.0545
     44 H16        24.4864  -11.4080   56.8802 H         1 65U         0.0466
     45 H17        26.2846  -10.5661   58.3487 H         1 65U         0.0484
     46 H18        18.8865   -8.7182   56.1582 H         1 65U         0.1878
     47 H19        18.5739   -1.9958   54.1132 H         1 65U         0.0561
@<TRIPOS>BOND
     1    1    4 ar 
     2   11    1 1  
     3    1   24 ar 
     4    3    2 ar 
     5    5    2 ar 
     6    4    3 ar 
     7   24    5 ar 
     8    7    6 ar 
     9    6    8 ar 
    10   17    7 ar 
    11   20    7 1  
    12   19    8 ar 
    13   10    9 1  
    14    9   20 1  
    15   21   10 1  
    16   10   27 1  
    17   12   11 1  
    18   13   12 2  
    19   12   25 1  
    20   14   13 1  
    21   22   14 1  
    22   14   26 2  
    23   16   15 1  
    24   16   17 1  
    25   27   16 am 
    26   17   18 ar 
    27   18   19 ar 
    28   21   22 am 
    29   22   23 2  
    30   25   26 1  
    31   27   28 2  
    32    2   29 1  
    33    3   30 1  
    34    4   31 1  
    35    5   32 1  
    36    6   33 1  
    37    8   34 1  
    38    9   35 1  
    39    9   36 1  
    40   10   37 1  
    41   11   38 1  
    42   11   39 1  
    43   13   40 1  
    44   15   41 1  
    45   15   42 1  
    46   15   43 1  
    47   18   44 1  
    48   19   45 1  
    49   21   46 1  
    50   24   47 1  
@<TRIPOS>SUBSTRUCTURE
     1 65U         1

