### 
### Created by X-TOOL on Mon Sep 10 21:13:28 2018
### 

@<TRIPOS>MOLECULE
5hx8_ligand
   46    49     1     0     0
SMALL
GAST_HUCK


@<TRIPOS>ATOM
      1 C2          5.8710   57.8390    0.5870 C.2       1 66P         0.1063
      2 C3          4.6340   58.0020    1.2590 C.2       1 66P        -0.0109
      3 N4          8.4970   57.7730   -0.9650 N.pl3     1 66P        -0.2414
      4 C5          5.9620   55.3520    1.1100 C.3       1 66P         0.0491
      5 C7          7.9730   55.0640    2.6150 C.3       1 66P        -0.0075
      6 C9          7.9350   53.9570    0.3330 C.3       1 66P        -0.0075
      7 C10         6.4100   54.1520    0.2850 C.3       1 66P        -0.0228
      8 C11         7.8260   58.8970   -0.7750 C.2       1 66P         0.1663
      9 C12         9.5440   59.5100   -2.0120 C.ar      1 66P         0.0233
     10 C13         9.5900   58.1420   -1.7540 C.ar      1 66P         0.0795
     11 C15        11.6400   58.0120   -2.9930 C.ar      1 66P        -0.0762
     12 O           6.3580   61.3430   -0.3110 O.2       1 66P        -0.3924
     13 C           5.8920   60.2910    0.1160 C.2       1 66P         0.1871
     14 C1          6.5180   58.9880    0.0010 C.3       1 66P         0.1910
     15 N1          6.4500   56.5940    0.5110 N.pl3     1 66P        -0.2841
     16 C8          8.4170   53.8610    1.7800 C.3       1 66P        -0.0242
     17 N2          9.9060   53.7380    1.8120 N.4       1 66P         0.2207
     18 C6          6.4540   55.2310    2.5480 C.3       1 66P        -0.0228
     19 C4          4.0700   59.2240    1.3380 C.2       1 66P        -0.0159
     20 N           4.6700   60.3150    0.7960 N.2       1 66P        -0.2970
     21 C14        10.6410   57.3730   -2.2570 C.ar      1 66P        -0.0417
     22 C16        11.5870   59.3890   -3.2350 C.ar      1 66P        -0.0781
     23 C17        10.5290   60.1560   -2.7560 C.ar      1 66P        -0.0648
     24 N3          8.4100   59.9700   -1.3740 N.2       1 66P        -0.3100
     25 H1          4.1404   57.1426    1.7103 H         1 66P         0.0324
     26 H2          8.2654   56.8342   -0.6102 H         1 66P         0.2328
     27 H3          4.8623   55.3769    1.1190 H         1 66P         0.0581
     28 H4          8.4546   55.9729    2.2252 H         1 66P         0.0321
     29 H5          8.2744   54.9094    3.6615 H         1 66P         0.0321
     30 H6          8.4249   54.8121   -0.1557 H         1 66P         0.0321
     31 H7          8.1984   53.0306   -0.1985 H         1 66P         0.0321
     32 H8          6.1044   54.3057   -0.7604 H         1 66P         0.0291
     33 H9          5.9238   53.2479    0.6801 H         1 66P         0.0291
     34 H10        12.4692   57.4328   -3.3829 H         1 66P         0.0531
     35 H11         7.0759   59.1505    0.9350 H         1 66P         0.1102
     36 H12         7.3253   56.5288   -0.0280 H         1 66P         0.1997
     37 H13         7.9814   52.9551    2.2267 H         1 66P         0.0850
     38 H14        10.2174   53.6751    2.7686 H         1 66P         0.1997
     39 H15        10.3195   54.5476    1.3766 H         1 66P         0.1997
     40 H16        10.1854   52.9083    1.3125 H         1 66P         0.1997
     41 H17         5.9784   54.3559    3.0149 H         1 66P         0.0291
     42 H18         6.1709   56.1399    3.0992 H         1 66P         0.0291
     43 H19         3.1140   59.3385    1.8467 H         1 66P         0.0992
     44 H20        10.6803   56.3043   -2.0800 H         1 66P         0.0543
     45 H21        12.3792   59.8641   -3.8022 H         1 66P         0.0517
     46 H22        10.4732   61.2201   -2.9551 H         1 66P         0.0538
@<TRIPOS>BOND
     1    1    2 2  
     2   14    1 1  
     3    1   15 1  
     4    2   19 1  
     5    8    3 1  
     6    3   10 1  
     7    4    7 1  
     8   15    4 1  
     9    4   18 1  
    10    5   16 1  
    11   18    5 1  
    12    7    6 1  
    13    6   16 1  
    14   14    8 1  
    15    8   24 2  
    16    9   10 ar 
    17    9   23 ar 
    18   24    9 1  
    19   10   21 ar 
    20   21   11 ar 
    21   11   22 ar 
    22   13   12 2  
    23   13   14 1  
    24   13   20 1  
    25   16   17 1  
    26   19   20 2  
    27   22   23 ar 
    28    2   25 1  
    29    3   26 1  
    30    4   27 1  
    31    5   28 1  
    32    5   29 1  
    33    6   30 1  
    34    6   31 1  
    35    7   32 1  
    36    7   33 1  
    37   11   34 1  
    38   14   35 1  
    39   15   36 1  
    40   16   37 1  
    41   17   38 1  
    42   17   39 1  
    43   17   40 1  
    44   18   41 1  
    45   18   42 1  
    46   19   43 1  
    47   21   44 1  
    48   22   45 1  
    49   23   46 1  
@<TRIPOS>SUBSTRUCTURE
     1 66P         1

