### 
### Created by X-TOOL on Mon Sep 10 21:13:33 2018
### 

@<TRIPOS>MOLECULE
5hz5_ligand
   47    51     1     0     0
SMALL
GAST_HUCK


@<TRIPOS>ATOM
      1 C10       -13.3280    7.3030   -9.8340 C.ar      1 65X         0.0211
      2 C11       -12.3290    8.2410  -10.4290 C.ar      1 65X        -0.0041
      3 C13       -10.0650    9.0630  -10.5940 C.ar      1 65X        -0.0577
      4 C15       -11.7820   10.0700  -11.9070 C.ar      1 65X        -0.0577
      5 C16       -12.7120    9.1990  -11.3650 C.ar      1 65X        -0.0488
      6 C17       -13.7520    8.8370   -7.9710 C.2       1 65X         0.1874
      7 C20       -14.9230    6.6820   -5.7080 C.3       1 65X         0.0325
      8 C21       -15.2940    7.7310   -4.6920 C.3       1 65X        -0.0321
      9 C22       -16.8000    7.8570   -4.5720 C.3       1 65X        -0.0493
     10 C23       -17.4370    8.0850   -5.9240 C.3       1 65X        -0.0321
     11 C24       -17.0110    7.0230   -6.9010 C.3       1 65X         0.0325
     12 C1        -13.3300    4.4410  -12.2200 C.ar      1 65X         0.0423
     13 C2        -14.2570    3.5980  -11.6400 C.ar      1 65X        -0.0465
     14 C3        -14.8720    3.9660  -10.4830 C.ar      1 65X        -0.0465
     15 C4        -14.5700    5.1990   -9.8630 C.ar      1 65X         0.0287
     16 C5        -13.6170    6.0560  -10.4730 C.ar      1 65X         0.0083
     17 C6        -12.9990    5.6430  -11.6710 C.ar      1 65X        -0.0360
     18 N7        -15.2190    5.5160   -8.7010 N.ar      1 65X        -0.2901
     19 C8        -14.9200    6.6650   -8.1490 C.ar      1 65X         0.1296
     20 C9        -13.9860    7.5960   -8.6610 C.ar      1 65X         0.0978
     21 C12       -10.9900    8.1910  -10.0460 C.ar      1 65X        -0.0488
     22 C14       -10.4610   10.0020  -11.5220 C.ar      1 65X        -0.0586
     23 N18       -15.5520    6.9740   -6.9970 N.pl3     1 65X        -0.2882
     24 CL        -12.5630    3.9520  -13.7020 Cl        1 65X        -0.0720
     25 N25       -14.6180    9.8540   -7.9250 N.2       1 65X        -0.2111
     26 N26       -14.0870   10.8470   -7.1840 N.2       1 65X        -0.1407
     27 N27       -12.9260   10.4280   -6.7950 N.2       1 65X        -0.0656
     28 N28       -12.6860    9.1740   -7.2620 N.pl3     1 65X        -0.1527
     29 H1         -9.0254    9.0071  -10.2922 H         1 65X         0.0626
     30 H2        -12.0945   10.8080  -12.6369 H         1 65X         0.0626
     31 H3        -13.7495    9.2633  -11.6724 H         1 65X         0.0653
     32 H4        -15.2633    5.6979   -5.3535 H         1 65X         0.0527
     33 H5        -13.8302    6.6690   -5.8329 H         1 65X         0.0527
     34 H6        -14.8751    8.6991   -5.0040 H         1 65X         0.0285
     35 H7        -14.8769    7.4490   -3.7140 H         1 65X         0.0285
     36 H8        -17.0382    8.7064   -3.9150 H         1 65X         0.0267
     37 H9        -17.2043    6.9316   -4.1360 H         1 65X         0.0267
     38 H10       -17.1304    9.0700   -6.3057 H         1 65X         0.0285
     39 H11       -18.5314    8.0579   -5.8163 H         1 65X         0.0285
     40 H12       -17.4319    7.2516   -7.8912 H         1 65X         0.0527
     41 H13       -17.3848    6.0462   -6.5603 H         1 65X         0.0527
     42 H14       -14.4939    2.6474  -12.1040 H         1 65X         0.0650
     43 H15       -15.6027    3.3047  -10.0315 H         1 65X         0.0602
     44 H16       -12.2645    6.2784  -12.1526 H         1 65X         0.0656
     45 H17       -10.6694    7.4615   -9.3111 H         1 65X         0.0653
     46 H18        -9.7350   10.6851  -11.9478 H         1 65X         0.0643
     47 H19       -11.8453    8.6021   -7.0975 H         1 65X         0.2694
@<TRIPOS>BOND
     1    1    2 1  
     2    1   16 ar 
     3   20    1 ar 
     4    2    5 ar 
     5    2   21 ar 
     6   21    3 ar 
     7    3   22 ar 
     8    5    4 ar 
     9    4   22 ar 
    10   20    6 1  
    11    6   25 2  
    12    6   28 1  
    13    7    8 1  
    14   23    7 1  
    15    8    9 1  
    16   10    9 1  
    17   11   10 1  
    18   23   11 1  
    19   13   12 ar 
    20   17   12 ar 
    21   12   24 1  
    22   14   13 ar 
    23   15   14 ar 
    24   15   16 ar 
    25   18   15 ar 
    26   16   17 ar 
    27   19   18 ar 
    28   19   20 ar 
    29   19   23 1  
    30   25   26 1  
    31   26   27 2  
    32   27   28 1  
    33    3   29 1  
    34    4   30 1  
    35    5   31 1  
    36    7   32 1  
    37    7   33 1  
    38    8   34 1  
    39    8   35 1  
    40    9   36 1  
    41    9   37 1  
    42   10   38 1  
    43   10   39 1  
    44   11   40 1  
    45   11   41 1  
    46   13   42 1  
    47   14   43 1  
    48   17   44 1  
    49   21   45 1  
    50   22   46 1  
    51   28   47 1  
@<TRIPOS>SUBSTRUCTURE
     1 65X         1

