### 
### Created by X-TOOL on Mon Sep 10 21:13:26 2018
### 

@<TRIPOS>MOLECULE
5hz8_ligand
   44    47     1     0     0
SMALL
GAST_HUCK


@<TRIPOS>ATOM
      1 N1          6.2980   -8.5760  -17.5050 N.pl3     1 65Z        -0.2900
      2 C2          7.6780   -8.9840  -17.8660 C.3       1 65Z         0.0317
      3 C3          8.4900   -9.1710  -16.6120 C.3       1 65Z        -0.0323
      4 C4          7.8700  -10.0360  -15.6110 C.3       1 65Z        -0.0493
      5 C5          6.4250   -9.7810  -15.4280 C.3       1 65Z        -0.0323
      6 C6          5.7020   -9.6450  -16.7040 C.3       1 65Z         0.0317
      7 C7          3.9210   -6.8120  -23.1130 C.ar      1 65Z         0.0424
      8 C8          5.1780   -7.4530  -23.2640 C.ar      1 65Z        -0.0329
      9 C9          5.8280   -7.9090  -22.1470 C.ar      1 65Z         0.0552
     10 C10         3.3750   -6.6080  -21.8840 C.ar      1 65Z        -0.0363
     11 C11         4.0540   -7.0500  -20.7210 C.ar      1 65Z         0.0078
     12 C12         5.3160   -7.6990  -20.8600 C.ar      1 65Z         0.0421
     13 N13         6.0080   -8.2150  -19.8110 N.ar      1 65Z        -0.2910
     14 C14         5.5470   -8.0660  -18.5870 C.ar      1 65Z         0.1243
     15 C15         4.2740   -7.4070  -18.3340 C.ar      1 65Z         0.0668
     16 C16         3.5710   -6.8860  -19.4100 C.ar      1 65Z         0.0170
     17 CL1         7.3120   -8.7500  -22.3470 Cl        1 65Z        -0.0715
     18 CL2         3.0800   -6.3250  -24.5320 Cl        1 65Z        -0.0721
     19 C19         3.8850   -7.1120  -16.9570 C.2       1 65Z         0.0650
     20 O20         2.9850   -7.8780  -16.3600 O.co2     1 65Z        -0.5630
     21 O21         4.2710   -6.1010  -16.4180 O.co2     1 65Z        -0.5630
     22 C22         2.3310   -6.1250  -19.1790 C.ar      1 65Z        -0.0050
     23 C23         2.3290   -4.7350  -19.4360 C.ar      1 65Z        -0.0491
     24 C24         0.0250   -4.5700  -18.6990 C.ar      1 65Z        -0.0589
     25 C25        -0.0040   -5.9510  -18.4490 C.ar      1 65Z        -0.0579
     26 C26         1.1840   -3.9810  -19.2260 C.ar      1 65Z        -0.0579
     27 C27         1.1730   -6.7140  -18.6500 C.ar      1 65Z        -0.0491
     28 H1          8.1399   -8.2040  -18.4890 H         1 65Z         0.0525
     29 H2          7.6460   -9.9299  -18.4266 H         1 65Z         0.0525
     30 H3          8.6531   -8.1825  -16.1579 H         1 65Z         0.0285
     31 H4          9.4588   -9.6101  -16.8925 H         1 65Z         0.0285
     32 H5          8.3771   -9.8744  -14.6484 H         1 65Z         0.0267
     33 H6          8.0024  -11.0821  -15.9241 H         1 65Z         0.0267
     34 H7          6.3025   -8.8506  -14.8541 H         1 65Z         0.0285
     35 H8          5.9890  -10.6193  -14.8650 H         1 65Z         0.0285
     36 H9          5.7615  -10.5927  -17.2592 H         1 65Z         0.0525
     37 H10         4.6480   -9.4042  -16.5016 H         1 65Z         0.0525
     38 H11         5.6170   -7.5799  -24.2470 H         1 65Z         0.0653
     39 H12         2.4184   -6.1062  -21.7938 H         1 65Z         0.0654
     40 H13         3.2298   -4.2544  -19.8002 H         1 65Z         0.0651
     41 H14        -0.8456   -3.9605  -18.4855 H         1 65Z         0.0642
     42 H15        -0.9153   -6.4277  -18.1065 H         1 65Z         0.0626
     43 H16         1.1847   -2.9252  -19.4717 H         1 65Z         0.0626
     44 H17         1.1786   -7.7667  -18.3916 H         1 65Z         0.0651
@<TRIPOS>BOND
     1    1    2 1  
     2    1    6 1  
     3   14    1 1  
     4    2    3 1  
     5    3    4 1  
     6    5    4 1  
     7    6    5 1  
     8    7    8 ar 
     9   10    7 ar 
    10    7   18 1  
    11    9    8 ar 
    12   12    9 ar 
    13    9   17 1  
    14   11   10 ar 
    15   11   12 ar 
    16   16   11 ar 
    17   12   13 ar 
    18   14   13 ar 
    19   15   14 ar 
    20   16   15 ar 
    21   15   19 1  
    22   22   16 1  
    23   19   20 ar 
    24   19   21 ar 
    25   23   22 ar 
    26   22   27 ar 
    27   26   23 ar 
    28   24   25 ar 
    29   24   26 ar 
    30   25   27 ar 
    31    2   28 1  
    32    2   29 1  
    33    3   30 1  
    34    3   31 1  
    35    4   32 1  
    36    4   33 1  
    37    5   34 1  
    38    5   35 1  
    39    6   36 1  
    40    6   37 1  
    41    8   38 1  
    42   10   39 1  
    43   23   40 1  
    44   24   41 1  
    45   25   42 1  
    46   26   43 1  
    47   27   44 1  
@<TRIPOS>SUBSTRUCTURE
     1 65Z         1

