### 
### Created by X-TOOL on Mon Sep 10 21:13:28 2018
### 

@<TRIPOS>MOLECULE
5hz9_ligand
   32    34     1     0     0
SMALL
GAST_HUCK


@<TRIPOS>ATOM
      1 C5        -14.7580   48.4690  -40.6700 C.ar      1 5M8         0.0349
      2 C6        -13.0990   48.3380  -39.0390 C.ar      1 5M8         0.0365
      3 C7        -14.9900   50.4310  -42.1980 C.2       1 5M8         0.0658
      4 C8        -11.4290   50.1240  -38.6920 C.ar      1 5M8        -0.0337
      5 C17       -13.1000   52.7840  -40.1210 C.ar      1 5M8        -0.0490
      6 C20       -12.6330   54.0470  -40.4860 C.ar      1 5M8        -0.0579
      7 C21       -11.7840   54.1880  -41.5960 C.ar      1 5M8        -0.0588
      8 C1        -14.2870   49.7740  -41.0830 C.ar      1 5M8         0.0479
      9 C2        -13.1960   50.3370  -40.4690 C.ar      1 5M8         0.0188
     10 C3        -12.5630   49.6200  -39.3920 C.ar      1 5M8         0.0119
     11 N4        -14.1850   47.7830  -39.6850 N.ar      1 5M8        -0.3010
     12 C9        -12.7040   51.6560  -40.8700 C.ar      1 5M8        -0.0042
     13 O10       -14.7530   50.3020  -43.4040 O.co2     1 5M8        -0.5618
     14 C11       -12.4810   47.5980  -37.9820 C.ar      1 5M8        -0.0429
     15 C12       -10.8600   49.3790  -37.6780 C.ar      1 5M8         0.0444
     16 O13       -16.0360   51.2550  -41.8660 O.co2     1 5M8        -0.5618
     17 C14       -11.3880   48.1090  -37.3220 C.ar      1 5M8        -0.0443
     18 CL1        -9.5040   49.9440  -36.8200 Cl        1 5M8        -0.0700
     19 C16       -15.9480   47.9150  -41.4000 C.3       1 5M8        -0.0126
     20 C18       -11.8540   51.7980  -41.9830 C.ar      1 5M8        -0.0490
     21 C19       -11.3910   53.0680  -42.3400 C.ar      1 5M8        -0.0579
     22 H1        -11.0138   51.0902  -38.9548 H         1 5M8         0.0659
     23 H2        -13.7612   52.6704  -39.2695 H         1 5M8         0.0651
     24 H3        -12.9254   54.9195  -39.9129 H         1 5M8         0.0626
     25 H4        -11.4297   55.1724  -41.8795 H         1 5M8         0.0642
     26 H5        -12.8765   46.6290  -37.6997 H         1 5M8         0.0621
     27 H6        -10.9260   47.5386  -36.5243 H         1 5M8         0.0655
     28 H7        -16.2007   46.9255  -40.9914 H         1 5M8         0.0438
     29 H8        -15.7104   47.8201  -42.4698 H         1 5M8         0.0438
     30 H9        -16.8044   48.5936  -41.2734 H         1 5M8         0.0438
     31 H10       -11.5603   50.9283  -42.5596 H         1 5M8         0.0651
     32 H11       -10.7294   53.1857  -43.1906 H         1 5M8         0.0626
@<TRIPOS>BOND
     1    8    1 ar 
     2    1   11 ar 
     3    1   19 1  
     4   10    2 ar 
     5    2   11 ar 
     6    2   14 ar 
     7    8    3 1  
     8    3   13 ar 
     9    3   16 ar 
    10   10    4 ar 
    11    4   15 ar 
    12    5    6 ar 
    13   12    5 ar 
    14    6    7 ar 
    15    7   21 ar 
    16    9    8 ar 
    17    9   10 ar 
    18    9   12 1  
    19   12   20 ar 
    20   14   17 ar 
    21   15   17 ar 
    22   15   18 1  
    23   20   21 ar 
    24    4   22 1  
    25    5   23 1  
    26    6   24 1  
    27    7   25 1  
    28   14   26 1  
    29   17   27 1  
    30   19   28 1  
    31   19   29 1  
    32   19   30 1  
    33   20   31 1  
    34   21   32 1  
@<TRIPOS>SUBSTRUCTURE
     1 5M8         1

