### 
### Created by X-TOOL on Mon Sep 10 21:13:28 2018
### 

@<TRIPOS>MOLECULE
5hzn_ligand
   63    68     1     0     0
SMALL
GAST_HUCK


@<TRIPOS>ATOM
      1 C10        19.5250    1.4840   11.9740 C.ar      1 66A        -0.0473
      2 C11        20.0230    2.7760   12.1230 C.ar      1 66A        -0.0352
      3 C12        19.8960    3.6570   11.0510 C.ar      1 66A         0.0879
      4 C13        19.3230    3.2520    9.8560 C.ar      1 66A        -0.0383
      5 C14        18.8930    1.9440    9.6940 C.ar      1 66A        -0.0759
      6 C15        19.0300    1.0560   10.7500 C.ar      1 66A        -0.0741
      7 C19        18.7120    7.9140   11.7990 C.ar      1 66A        -0.0578
      8 C20        18.8990    9.2150   12.2490 C.ar      1 66A        -0.0685
      9 C21        20.0230    9.9180   11.8200 C.ar      1 66A        -0.0687
     10 C22        20.9490    9.3370   10.9490 C.ar      1 66A        -0.0685
     11 C27        23.8000   -1.1320   15.9400 C.3       1 66A         0.0048
     12 C31        26.2770   -2.0550   14.1970 C.3       1 66A        -0.0270
     13 C32        27.6770   -1.4540   14.0330 C.3       1 66A         0.0277
     14 C33        27.4620   -0.5330   15.2370 C.3       1 66A        -0.0270
     15 N24        16.6670   -0.5010   12.1510 N.pl3     1 66A        -0.3157
     16 C29        24.9610   -0.2530   15.4630 C.3       1 66A        -0.0288
     17 C26        22.5100   -0.4320   16.3660 C.3       1 66A        -0.0148
     18 C28        23.0170   -1.9670   14.9190 C.3       1 66A        -0.0148
     19 C25        21.7180   -1.3580   15.4410 C.3       1 66A         0.0684
     20 N30        26.1310   -1.1370   15.3410 N.4       1 66A         0.2357
     21 C06        17.5080   -1.0760   13.0430 C.ar      1 66A         0.1176
     22 N05        17.0700   -2.1890   13.6450 N.ar      1 66A        -0.2725
     23 C04        17.7940   -2.8700   14.5440 C.ar      1 66A         0.0510
     24 C07        18.7860   -0.6880   13.3810 C.ar      1 66A         0.0552
     25 C02        19.5320   -1.3030   14.2570 C.ar      1 66A         0.1424
     26 N03        19.0210   -2.4860   14.8920 N.ar      1 66A        -0.2753
     27 N01        20.7450   -0.7750   14.4740 N.pl3     1 66A        -0.2429
     28 C08        19.6750    0.4460   12.9960 C.2       1 66A        -0.0057
     29 C09        20.8800    0.3260   13.6680 C.2       1 66A         0.0448
     30 O16        20.2970    4.9610   11.1430 O.3       1 66A        -0.3071
     31 C17        19.4270    5.9030   10.4620 C.3       1 66A         0.1041
     32 C18        19.6380    7.3310   10.9300 C.ar      1 66A        -0.0129
     33 C23        20.7530    8.0350   10.4960 C.ar      1 66A        -0.0578
     34 H1         20.4962    3.0876   13.0472 H         1 66A         0.0487
     35 H2         19.2105    3.9613    9.0440 H         1 66A         0.0499
     36 H3         18.4563    1.6205    8.7561 H         1 66A         0.0576
     37 H4         18.7478    0.0177   10.6184 H         1 66A         0.0479
     38 H5         17.8452    7.3495   12.1230 H         1 66A         0.0557
     39 H6         18.1837    9.6747   12.9214 H         1 66A         0.0599
     40 H7         20.1819   10.9324   12.1676 H         1 66A         0.0559
     41 H8         21.8181    9.8990   10.6268 H         1 66A         0.0599
     42 H9         24.2043   -1.7634   16.7449 H         1 66A         0.0354
     43 H10        26.2575   -3.1244   14.4540 H         1 66A         0.0816
     44 H11        25.5894   -1.8666   13.3594 H         1 66A         0.0816
     45 H12        27.8211   -0.9171   13.0838 H         1 66A         0.0369
     46 H13        28.4909   -2.1811   14.1703 H         1 66A         0.0369
     47 H14        27.4660    0.5421   15.0045 H         1 66A         0.0816
     48 H15        28.1263   -0.7257   16.0923 H         1 66A         0.0816
     49 H16        16.9492    0.3573   11.6565 H         1 66A         0.1824
     50 H17        15.7451   -0.9220   11.9670 H         1 66A         0.1824
     51 H18        25.1609    0.5431   16.1953 H         1 66A         0.0817
     52 H19        24.7215    0.1971   14.4883 H         1 66A         0.0817
     53 H20        22.4612    0.6314   16.0891 H         1 66A         0.0299
     54 H21        22.2668   -0.5446   17.4328 H         1 66A         0.0299
     55 H22        23.0977   -3.0539   15.0678 H         1 66A         0.0299
     56 H23        23.2403   -1.7229   13.8699 H         1 66A         0.0299
     57 H24        21.1460   -2.0955   16.0232 H         1 66A         0.0649
     58 H25        26.0992   -1.6931   16.1811 H         1 66A         0.2033
     59 H26        17.3696   -3.7571   15.0001 H         1 66A         0.0982
     60 H27        21.7524    0.9712   13.5756 H         1 66A         0.0999
     61 H28        18.3815    5.6198   10.6535 H         1 66A         0.0778
     62 H29        19.6287    5.8523    9.3818 H         1 66A         0.0778
     63 H30        21.4609    7.5777    9.8142 H         1 66A         0.0557
@<TRIPOS>BOND
     1    2    1 ar 
     2    1    6 ar 
     3    1   28 1  
     4    3    2 ar 
     5    3    4 ar 
     6   30    3 1  
     7    4    5 ar 
     8    5    6 ar 
     9    7    8 ar 
    10   32    7 ar 
    11    8    9 ar 
    12    9   10 ar 
    13   10   33 ar 
    14   11   16 1  
    15   17   11 1  
    16   18   11 1  
    17   12   13 1  
    18   20   12 1  
    19   14   13 1  
    20   20   14 1  
    21   21   15 1  
    22   16   20 1  
    23   19   17 1  
    24   19   18 1  
    25   27   19 1  
    26   21   22 ar 
    27   24   21 ar 
    28   22   23 ar 
    29   26   23 ar 
    30   24   25 ar 
    31   28   24 1  
    32   25   26 ar 
    33   27   25 1  
    34   29   27 1  
    35   28   29 2  
    36   31   30 1  
    37   31   32 1  
    38   32   33 ar 
    39    2   34 1  
    40    4   35 1  
    41    5   36 1  
    42    6   37 1  
    43    7   38 1  
    44    8   39 1  
    45    9   40 1  
    46   10   41 1  
    47   11   42 1  
    48   12   43 1  
    49   12   44 1  
    50   13   45 1  
    51   13   46 1  
    52   14   47 1  
    53   14   48 1  
    54   15   49 1  
    55   15   50 1  
    56   16   51 1  
    57   16   52 1  
    58   17   53 1  
    59   17   54 1  
    60   18   55 1  
    61   18   56 1  
    62   19   57 1  
    63   20   58 1  
    64   23   59 1  
    65   29   60 1  
    66   31   61 1  
    67   31   62 1  
    68   33   63 1  
@<TRIPOS>SUBSTRUCTURE
     1 66A         1

