### 
### Created by X-TOOL on Mon Sep 10 21:13:28 2018
### 

@<TRIPOS>MOLECULE
5hzx_ligand
   29    31     1     0     0
SMALL
GAST_HUCK


@<TRIPOS>ATOM
      1 C13       -14.5130    7.9980  -24.1080 C.ar      1 2GE        -0.0020
      2 C17       -11.3860    5.9210  -22.3600 C.2       1 2GE        -0.0564
      3 N01       -18.1100    6.1660  -24.0870 N.pl3     1 2GE        -0.3069
      4 C02       -16.9200    6.7600  -24.0930 C.ar      1 2GE         0.1672
      5 N03       -16.7130    7.7850  -24.9360 N.ar      1 2GE        -0.2715
      6 C04       -15.5140    8.4320  -24.9620 C.ar      1 2GE         0.0387
      7 C05       -15.3650    9.5330  -25.8670 C.ar      1 2GE         0.0135
      8 C06       -16.3460   10.5320  -25.8590 C.ar      1 2GE        -0.0483
      9 C07       -16.2900   11.6240  -26.7200 C.ar      1 2GE        -0.0572
     10 C08       -15.2470   11.7420  -27.6290 C.ar      1 2GE        -0.0443
     11 C09       -14.2590   10.7660  -27.6530 C.ar      1 2GE         0.0583
     12 CL1       -12.9370   10.8970  -28.7970 Cl        1 2GE        -0.0692
     13 C11       -14.3100    9.6640  -26.7730 C.ar      1 2GE         0.0677
     14 CL2       -13.0590    8.5030  -26.8580 Cl        1 2GE        -0.0654
     15 C14       -14.7500    6.9130  -23.2320 C.ar      1 2GE         0.1121
     16 N15       -13.8230    6.4330  -22.3910 N.pl3     1 2GE        -0.2944
     17 C16       -12.4250    6.9670  -22.2600 C.3       1 2GE         0.0770
     18 C18       -11.5320    6.9470  -23.3620 C.2       1 2GE        -0.0564
     19 N19       -15.9580    6.3240  -23.2450 N.ar      1 2GE        -0.2451
     20 H1        -13.5473    8.4904  -24.1112 H         1 2GE         0.0562
     21 H2        -10.8849    5.0367  -21.9691 H         1 2GE         0.0596
     22 H3        -18.8498    6.4884  -24.7271 H         1 2GE         0.1823
     23 H4        -18.2918    5.3836  -23.4423 H         1 2GE         0.1823
     24 H5        -17.1727   10.4526  -25.1623 H         1 2GE         0.0655
     25 H6        -17.0621   12.3839  -26.6809 H         1 2GE         0.0627
     26 H7        -15.2044   12.5840  -28.3104 H         1 2GE         0.0649
     27 H8        -14.0889    5.6396  -21.7904 H         1 2GE         0.1849
     28 H9        -12.3783    7.7825  -21.5232 H         1 2GE         0.0648
     29 H10       -11.1961    7.3907  -24.2981 H         1 2GE         0.0596
@<TRIPOS>BOND
     1    1    6 ar 
     2   15    1 ar 
     3   17    2 1  
     4    2   18 2  
     5    4    3 1  
     6    4    5 ar 
     7   19    4 ar 
     8    6    5 ar 
     9    6    7 1  
    10    7    8 ar 
    11    7   13 ar 
    12    8    9 ar 
    13    9   10 ar 
    14   11   10 ar 
    15   11   12 1  
    16   13   11 ar 
    17   13   14 1  
    18   16   15 1  
    19   15   19 ar 
    20   16   17 1  
    21   17   18 1  
    22    1   20 1  
    23    2   21 1  
    24    3   22 1  
    25    3   23 1  
    26    8   24 1  
    27    9   25 1  
    28   10   26 1  
    29   16   27 1  
    30   17   28 1  
    31   18   29 1  
@<TRIPOS>SUBSTRUCTURE
     1 2GE         1

