### 
### Created by X-TOOL on Mon Sep 10 21:13:28 2018
### 

@<TRIPOS>MOLECULE
5i0b_ligand
   33    35     1     0     0
SMALL
GAST_HUCK


@<TRIPOS>ATOM
      1 C1         18.7950    3.9410   11.5200 C.3       1 67U        -0.0529
      2 C18        18.3970    4.1940   12.9640 C.3       1 67U        -0.0065
      3 C2         17.1130    5.0180   13.0070 C.3       1 67U        -0.0529
      4 C17        19.5550    4.9190   13.6720 C.2       1 67U         0.0331
      5 N10        19.7960    6.2250   13.5210 N.2       1 67U        -0.2186
      6 N19        20.8040    6.5230   14.2160 N.pl3     1 67U        -0.2079
      7 C3         21.3790    7.8620   14.3100 C.3       1 67U         0.0605
      8 C7         21.2560    5.4490   14.8650 C.2       1 67U         0.0753
      9 C13        20.4780    4.4140   14.5240 C.2       1 67U         0.0630
     10 C14        20.6510    3.1530   15.0290 C.2       1 67U         0.1285
     11 N11        19.7400    2.1700   15.1270 N.pl3     1 67U        -0.2457
     12 C15        20.3290    1.1100   15.7090 C.ar      1 67U         0.1069
     13 C6         19.8640   -0.1140   16.0190 C.ar      1 67U        -0.0126
     14 C12        20.6940   -1.0520   16.6370 C.ar      1 67U         0.0259
     15 BR4        20.0920   -2.8620   17.1180 Br        1 67U        -0.0504
     16 C5         22.0050   -0.6760   16.9130 C.ar      1 67U         0.0008
     17 N8         22.4430    0.5990   16.5710 N.ar      1 67U        -0.3052
     18 C16        21.6000    1.4580   15.9830 C.ar      1 67U         0.0928
     19 N9         21.7900    2.7140   15.5800 N.2       1 67U        -0.3017
     20 H1         17.9763    3.4225   10.9995 H         1 67U         0.0253
     21 H2         19.7002    3.3166   11.4931 H         1 67U         0.0253
     22 H3         18.9966    4.9007   11.0217 H         1 67U         0.0253
     23 H4         18.2170    3.2320   13.4661 H         1 67U         0.0452
     24 H5         16.8284    5.1989   14.0540 H         1 67U         0.0253
     25 H6         16.3075    4.4686   12.4978 H         1 67U         0.0253
     26 H7         17.2777    5.9803   12.5003 H         1 67U         0.0253
     27 H8         22.2495    7.8409   14.9822 H         1 67U         0.0605
     28 H9         20.6254    8.5576   14.7078 H         1 67U         0.0605
     29 H10        21.6954    8.1962   13.3109 H         1 67U         0.0605
     30 H11        22.1037    5.4193   15.5480 H         1 67U         0.1120
     31 H12        18.7608    2.2196   14.8113 H         1 67U         0.2315
     32 H13        18.8375   -0.3740   15.7873 H         1 67U         0.0696
     33 H14        22.6820   -1.3738   17.3925 H         1 67U         0.0757
@<TRIPOS>BOND
     1    1    2 1  
     2    2    3 1  
     3    2    4 1  
     4    4    5 2  
     5    4    9 1  
     6    5    6 1  
     7    6    7 1  
     8    6    8 1  
     9    8    9 2  
    10    9   10 1  
    11   10   11 1  
    12   10   19 2  
    13   11   12 1  
    14   12   13 ar 
    15   12   18 ar 
    16   13   14 ar 
    17   14   15 1  
    18   14   16 ar 
    19   16   17 ar 
    20   17   18 ar 
    21   18   19 1  
    22    1   20 1  
    23    1   21 1  
    24    1   22 1  
    25    2   23 1  
    26    3   24 1  
    27    3   25 1  
    28    3   26 1  
    29    7   27 1  
    30    7   28 1  
    31    7   29 1  
    32    8   30 1  
    33   11   31 1  
    34   13   32 1  
    35   16   33 1  
@<TRIPOS>SUBSTRUCTURE
     1 67U         1

