### 
### Created by X-TOOL on Mon Sep 10 21:13:27 2018
### 

@<TRIPOS>MOLECULE
5i0l_ligand
   95    97     1     0     0
SMALL
GAST_HUCK


@<TRIPOS>ATOM
      1 C13        13.4410    4.4020   16.5630 C.ar      1 H27        -0.0345
      2 C14        13.0760    4.9460   17.7820 C.ar      1 H27        -0.0522
      3 C16        12.9210    7.1110   16.7690 C.ar      1 H27        -0.0522
      4 C18        12.4300    6.9300   19.1490 C.ar      1 H27        -0.0179
      5 C20        12.3810    6.9750   21.5430 C.ar      1 H27        -0.0612
      6 C21        11.7240    8.1880   21.4980 C.ar      1 H27        -0.0617
      7 C22        11.4320    8.7690   20.2830 C.ar      1 H27        -0.0612
      8 C23        11.7870    8.1400   19.1120 C.ar      1 H27        -0.0540
      9 C24        12.2000    5.7130   12.3680 C.3       1 H27         0.0536
     10 O52         7.0430    4.1580    2.8050 O.2       1 H27        -0.3707
     11 C37         7.0160    4.7590    3.8610 C.2       1 H27         0.2310
     12 C51         5.8540    4.6790    4.7990 C.3       1 H27         0.0372
     13 O36         8.1510    5.5960    4.2140 O.3       1 H27        -0.2681
     14 C35         8.8470    5.0670    5.3430 C.3       1 H27         0.1478
     15 C28         9.4910    6.1240    6.2490 C.3       1 H27         0.1245
     16 N43         8.5490    7.0760    6.8570 N.am      1 H27        -0.2764
     17 C44         7.2360    6.9400    7.0950 C.2       1 H27         0.1734
     18 O46         6.4640    7.8790    7.0200 O.2       1 H27        -0.3974
     19 C45         6.7720    5.5680    7.4750 C.3       1 H27         0.0257
     20 C34         9.9500    4.1680    4.8200 C.3       1 H27         0.1488
     21 O41         9.3300    3.3750    3.8020 O.3       1 H27        -0.2679
     22 C42         9.3550    1.9240    3.8690 C.2       1 H27         0.2310
     23 O50        10.3320    1.3540    3.4460 O.2       1 H27        -0.3707
     24 C49         8.1790    1.1860    4.4230 C.3       1 H27         0.0372
     25 C33        10.4990    3.4110    6.0190 C.3       1 H27         0.1226
     26 C38        11.5160    2.3310    5.6720 C.3       1 H27         0.1058
     27 O39        12.8340    2.8270    5.7620 O.3       1 H27        -0.2743
     28 C40        13.6760    2.2580    6.7720 C.2       1 H27         0.2307
     29 O48        13.2370    2.2370    7.8930 O.2       1 H27        -0.3707
     30 C47        15.0270    1.7370    6.4140 C.3       1 H27         0.0372
     31 O32        11.1130    4.3120    6.9510 O.3       1 H27        -0.3415
     32 C27        10.3840    5.4810    7.3280 C.3       1 H27         0.1750
     33 N94        11.2870    6.4360    7.9530 N.am      1 H27        -0.2543
     34 C95        11.2420    6.6000    9.2840 C.2       1 H27         0.1381
     35 SUR         9.8350    6.7610    9.9180 S.2       1 H27        -0.3118
     36 N93        12.3380    6.6330   10.0660 N.am      1 H27        -0.2810
     37 C25        12.7660    5.5650   10.9630 C.3       1 H27         0.0537
     38 NA         12.6120    4.6300   13.2600 N.am      1 H27        -0.2158
     39 CZA        11.6070    3.5680   13.4870 C.3       1 H27         0.0952
     40 CZ1        11.1890    2.9130   12.1940 C.3       1 H27        -0.0150
     41 CC1        12.3910    2.2470   11.5710 C.3       1 H27        -0.0594
     42 CC2        10.1330    1.8690   12.4630 C.3       1 H27        -0.0594
     43 C          10.5510    3.9450   14.3760 C.2       1 H27         0.0569
     44 OZ2        10.1620    3.2950   15.2430 O.co2     1 H27        -0.5670
     45 O98        10.0610    4.9480   14.2210 O.co2     1 H27        -0.5670
     46 SA         13.9380    4.6890   14.0140 S.o2      1 H27         0.0723
     47 OS2        14.8390    5.5910   13.4410 O.2       1 H27        -0.1500
     48 OS1        14.5860    3.4590   14.0850 O.2       1 H27        -0.1500
     49 C12        13.5490    5.2220   15.4470 C.ar      1 H27         0.1085
     50 C15        12.8080    6.2950   17.8740 C.ar      1 H27        -0.0178
     51 C17        13.2870    6.5730   15.5570 C.ar      1 H27        -0.0345
     52 C19        12.7330    6.3470   20.3620 C.ar      1 H27        -0.0540
     53 H1         13.6419    3.3401   16.4794 H         1 H27         0.0637
     54 H2         13.0012    4.3146   18.6599 H         1 H27         0.0624
     55 H3         12.7221    8.1732   16.8547 H         1 H27         0.0624
     56 H4         12.6193    6.5180   22.4966 H         1 H27         0.0618
     57 H5         11.4377    8.6837   22.4185 H         1 H27         0.0618
     58 H6         10.9211    9.7245   20.2498 H         1 H27         0.0618
     59 H7         11.5578    8.6021   18.1586 H         1 H27         0.0624
     60 H8         11.1018    5.7191   12.3060 H         1 H27         0.0501
     61 H9         12.5488    6.6675   12.7891 H         1 H27         0.0501
     62 H10         5.0902    4.0073    4.3801 H         1 H27         0.0483
     63 H11         5.4242    5.6821    4.9368 H         1 H27         0.0483
     64 H12         6.1928    4.2886    5.7700 H         1 H27         0.0483
     65 H13         8.1390    4.4781    5.9447 H         1 H27         0.0705
     66 H14        10.1518    6.7176    5.6003 H         1 H27         0.0636
     67 H15         8.9449    7.9518    7.1330 H         1 H27         0.1857
     68 H16         5.6851    5.5822    7.6437 H         1 H27         0.0467
     69 H17         7.2819    5.2506    8.3965 H         1 H27         0.0467
     70 H18         7.0080    4.8634    6.6640 H         1 H27         0.0467
     71 H19        10.7625    4.7585    4.3715 H         1 H27         0.0707
     72 H20         8.3780    0.1045    4.3940 H         1 H27         0.0483
     73 H21         7.2873    1.4110    3.8194 H         1 H27         0.0483
     74 H22         8.0063    1.4993    5.4632 H         1 H27         0.0483
     75 H23         9.6467    2.9230    6.5144 H         1 H27         0.0654
     76 H24        11.3329    1.9816    4.6452 H         1 H27         0.0640
     77 H25        11.4000    1.4901    6.3716 H         1 H27         0.0640
     78 H26        15.5187    1.3429    7.3156 H         1 H27         0.0483
     79 H27        15.6340    2.5513    5.9916 H         1 H27         0.0483
     80 H28        14.9247    0.9325    5.6709 H         1 H27         0.0483
     81 H29         9.6874    5.1532    8.1137 H         1 H27         0.0917
     82 H30        11.9316    6.9623    7.3986 H         1 H27         0.2000
     83 H31        12.9044    7.4563   10.0288 H         1 H27         0.1973
     84 H32        12.4311    4.6027   10.5486 H         1 H27         0.0558
     85 H33        13.8643    5.5758   11.0235 H         1 H27         0.0558
     86 H34        12.1462    2.7798   14.0329 H         1 H27         0.0685
     87 H35        10.7882    3.6739   11.5082 H         1 H27         0.0332
     88 H36        12.0955    1.7663   10.6268 H         1 H27         0.0234
     89 H37        12.7879    1.4875   12.2606 H         1 H27         0.0234
     90 H38        13.1659    3.0017   11.3713 H         1 H27         0.0234
     91 H39         9.2526    2.3467   12.9176 H         1 H27         0.0234
     92 H40        10.5344    1.1101   13.1507 H         1 H27         0.0234
     93 H41         9.8422    1.3893   11.5168 H         1 H27         0.0234
     94 H42        13.3700    7.2120   14.6853 H         1 H27         0.0637
     95 H43        13.2485    5.3938   20.3897 H         1 H27         0.0624
@<TRIPOS>BOND
     1    1    2 ar 
     2   49    1 ar 
     3    2   50 ar 
     4   50    3 ar 
     5    3   51 ar 
     6    4    8 ar 
     7   50    4 1  
     8    4   52 ar 
     9    5    6 ar 
    10   52    5 ar 
    11    7    6 ar 
    12    8    7 ar 
    13    9   37 1  
    14   38    9 1  
    15   11   10 2  
    16   11   12 1  
    17   13   11 1  
    18   14   13 1  
    19   15   14 1  
    20   14   20 1  
    21   15   16 1  
    22   32   15 1  
    23   16   17 am 
    24   17   18 2  
    25   17   19 1  
    26   20   21 1  
    27   25   20 1  
    28   21   22 1  
    29   22   23 2  
    30   22   24 1  
    31   25   26 1  
    32   31   25 1  
    33   26   27 1  
    34   27   28 1  
    35   28   29 2  
    36   28   30 1  
    37   32   31 1  
    38   33   32 1  
    39   34   33 am 
    40   34   35 2  
    41   36   34 am 
    42   37   36 1  
    43   38   39 1  
    44   46   38 am 
    45   39   40 1  
    46   39   43 1  
    47   40   41 1  
    48   40   42 1  
    49   43   44 ar 
    50   43   45 ar 
    51   46   47 2  
    52   46   48 2  
    53   46   49 1  
    54   49   51 ar 
    55    1   53 1  
    56    2   54 1  
    57    3   55 1  
    58    5   56 1  
    59    6   57 1  
    60    7   58 1  
    61    8   59 1  
    62    9   60 1  
    63    9   61 1  
    64   12   62 1  
    65   12   63 1  
    66   12   64 1  
    67   14   65 1  
    68   15   66 1  
    69   16   67 1  
    70   19   68 1  
    71   19   69 1  
    72   19   70 1  
    73   20   71 1  
    74   24   72 1  
    75   24   73 1  
    76   24   74 1  
    77   25   75 1  
    78   26   76 1  
    79   26   77 1  
    80   30   78 1  
    81   30   79 1  
    82   30   80 1  
    83   32   81 1  
    84   33   82 1  
    85   36   83 1  
    86   37   84 1  
    87   37   85 1  
    88   39   86 1  
    89   40   87 1  
    90   41   88 1  
    91   41   89 1  
    92   41   90 1  
    93   42   91 1  
    94   42   92 1  
    95   42   93 1  
    96   51   94 1  
    97   52   95 1  
@<TRIPOS>SUBSTRUCTURE
     1 H27         1

