### 
### Created by X-TOOL on Mon Sep 10 21:13:28 2018
### 

@<TRIPOS>MOLECULE
5i12_ligand
   95    97     1     0     0
SMALL
GAST_HUCK


@<TRIPOS>ATOM
      1 C13        17.6140  -16.5540   18.2250 C.ar      1 H27        -0.0345
      2 C14        17.6290  -15.4580   19.0770 C.ar      1 H27        -0.0522
      3 C16        17.6420  -16.8920   20.9120 C.ar      1 H27        -0.0522
      4 C18        17.6430  -14.4370   21.3660 C.ar      1 H27        -0.0179
      5 C20        16.9820  -12.1830   21.8710 C.ar      1 H27        -0.0612
      6 C21        17.6000  -12.2310   23.0830 C.ar      1 H27        -0.0617
      7 C22        18.2190  -13.3980   23.4420 C.ar      1 H27        -0.0612
      8 C23        18.2400  -14.4880   22.6000 C.ar      1 H27        -0.0540
      9 C24        19.7520  -20.3060   18.3490 C.3       1 H27         0.0536
     10 O52        19.7680  -22.9590   26.5820 O.2       1 H27        -0.3707
     11 C37        20.7600  -23.1540   25.9750 C.2       1 H27         0.2310
     12 C51        22.1140  -23.0750   26.6140 C.3       1 H27         0.0372
     13 O36        20.5390  -23.4180   24.5870 O.3       1 H27        -0.2681
     14 C35        21.5240  -24.2470   24.0190 C.3       1 H27         0.1478
     15 C28        22.1380  -23.5430   22.8040 C.3       1 H27         0.1245
     16 N43        23.6080  -23.4800   22.8910 N.am      1 H27        -0.2764
     17 C44        24.3960  -23.5330   21.8180 C.2       1 H27         0.1734
     18 O46        25.0850  -22.6090   21.4090 O.2       1 H27        -0.3974
     19 C45        24.3140  -24.8470   21.1300 C.3       1 H27         0.0257
     20 C34        20.7530  -25.5170   23.7480 C.3       1 H27         0.1488
     21 O41        21.5970  -26.5620   24.1840 O.3       1 H27        -0.2679
     22 C42        20.8360  -27.3470   25.1480 C.2       1 H27         0.2310
     23 O50        20.8000  -26.9470   26.3000 O.2       1 H27        -0.3707
     24 C49        20.1240  -28.5870   24.6900 C.3       1 H27         0.0372
     25 C33        20.2360  -25.6950   22.3280 C.3       1 H27         0.1226
     26 C38        18.7850  -26.2010   22.4030 C.3       1 H27         0.1058
     27 O39        18.2690  -26.4770   21.1050 O.3       1 H27        -0.2743
     28 C40        17.2280  -25.6550   20.4870 C.2       1 H27         0.2307
     29 O48        16.4250  -25.1270   21.2170 O.2       1 H27        -0.3707
     30 C47        17.1420  -25.4780   18.9910 C.3       1 H27         0.0372
     31 O32        20.2870  -24.4640   21.6070 O.3       1 H27        -0.3415
     32 C27        21.6140  -23.9970   21.4350 C.3       1 H27         0.1750
     33 N94        21.6790  -22.8200   20.6060 N.am      1 H27        -0.2543
     34 C95        21.5420  -22.6620   19.3020 C.2       1 H27         0.1381
     35 SUR        22.7980  -22.3050   18.4750 S.2       1 H27        -0.3118
     36 N93        20.3280  -22.7060   18.7770 N.am      1 H27        -0.2810
     37 C25        19.8070  -21.7330   17.8350 C.3       1 H27         0.0537
     38 NA         19.0750  -19.3680   17.4820 N.am      1 H27        -0.2158
     39 CZA        19.9080  -18.5640   16.5900 C.3       1 H27         0.0952
     40 CZ1        20.8390  -19.4440   15.7450 C.3       1 H27        -0.0150
     41 CC1        20.1360  -20.2370   14.6750 C.3       1 H27        -0.0594
     42 CC2        21.9220  -18.6820   15.0390 C.3       1 H27        -0.0594
     43 C          20.6870  -17.5140   17.3150 C.2       1 H27         0.0569
     44 OZ2        20.7640  -16.4030   16.8050 O.co2     1 H27        -0.5670
     45 O98        21.2450  -17.8370   18.3780 O.co2     1 H27        -0.5670
     46 SA         17.6450  -19.1160   17.6980 S.o2      1 H27         0.0723
     47 OS2        17.0450  -20.1690   18.2160 O.2       1 H27        -0.1500
     48 OS1        17.1080  -18.7640   16.5330 O.2       1 H27        -0.1500
     49 C12        17.6350  -17.8520   18.6930 C.ar      1 H27         0.1085
     50 C15        17.6380  -15.6110   20.4390 C.ar      1 H27        -0.0178
     51 C17        17.6520  -17.9820   20.0690 C.ar      1 H27        -0.0345
     52 C19        17.0210  -13.2710   21.0390 C.ar      1 H27        -0.0540
     53 H1         17.5848  -16.3842   17.1548 H         1 H27         0.0637
     54 H2         17.6337  -14.4592   18.6558 H         1 H27         0.0624
     55 H3         17.6372  -17.0565   21.9834 H         1 H27         0.0624
     56 H4         16.4592  -11.2843   21.5642 H         1 H27         0.0618
     57 H5         17.6019  -11.3715   23.7435 H         1 H27         0.0618
     58 H6         18.7030  -13.4658   24.4096 H         1 H27         0.0618
     59 H7         18.7352  -15.3987   22.9169 H         1 H27         0.0624
     60 H8         20.7847  -19.9548   18.4909 H         1 H27         0.0501
     61 H9         19.2305  -20.3124   19.3175 H         1 H27         0.0501
     62 H10        22.0011  -22.8613   27.6871 H         1 H27         0.0483
     63 H11        22.6971  -22.2719   26.1396 H         1 H27         0.0483
     64 H12        22.6372  -24.0338   26.4842 H         1 H27         0.0483
     65 H13        22.3298  -24.4534   24.7387 H         1 H27         0.0705
     66 H14        21.8029  -22.4988   22.8891 H         1 H27         0.0636
     67 H15        24.0315  -23.3939   23.7928 H         1 H27         0.1857
     68 H16        24.9788  -24.8441   20.2536 H         1 H27         0.0467
     69 H17        23.2788  -25.0264   20.8043 H         1 H27         0.0467
     70 H18        24.6238  -25.6435   21.8225 H         1 H27         0.0467
     71 H19        19.8623  -25.5081   24.3934 H         1 H27         0.0707
     72 H20        19.6057  -29.0485   25.5434 H         1 H27         0.0483
     73 H21        20.8546  -29.2979   24.2768 H         1 H27         0.0483
     74 H22        19.3900  -28.3231   23.9144 H         1 H27         0.0483
     75 H23        20.8566  -26.4389   21.8069 H         1 H27         0.0654
     76 H24        18.1608  -25.4318   22.8812 H         1 H27         0.0640
     77 H25        18.7566  -27.1220   23.0038 H         1 H27         0.0640
     78 H26        16.2906  -24.8255   18.7474 H         1 H27         0.0483
     79 H27        17.0008  -26.4587   18.5132 H         1 H27         0.0483
     80 H28        18.0718  -25.0207   18.6218 H         1 H27         0.0483
     81 H29        22.2389  -24.7980   21.0132 H         1 H27         0.0917
     82 H30        21.8598  -21.9734   21.1065 H         1 H27         0.2000
     83 H31        19.7297  -23.4602   19.0476 H         1 H27         0.1973
     84 H32        20.4464  -21.7487   16.9401 H         1 H27         0.0558
     85 H33        18.7857  -22.0364   17.5613 H         1 H27         0.0558
     86 H34        19.2292  -18.0441   15.8980 H         1 H27         0.0685
     87 H35        21.3147  -20.1526   16.4390 H         1 H27         0.0332
     88 H36        20.8722  -20.8366   14.1196 H         1 H27         0.0234
     89 H37        19.6269  -19.5493   13.9837 H         1 H27         0.0234
     90 H38        19.3955  -20.9044   15.1400 H         1 H27         0.0234
     91 H39        22.4795  -18.0763   15.7686 H         1 H27         0.0234
     92 H40        21.4726  -18.0224   14.2821 H         1 H27         0.0234
     93 H41        22.6078  -19.3887   14.5489 H         1 H27         0.0234
     94 H42        17.6740  -18.9763   20.5001 H         1 H27         0.0637
     95 H43        16.5330  -13.1999   20.0737 H         1 H27         0.0624
@<TRIPOS>BOND
     1    1    2 ar 
     2   49    1 ar 
     3    2   50 ar 
     4   50    3 ar 
     5    3   51 ar 
     6    4    8 ar 
     7   50    4 1  
     8    4   52 ar 
     9    5    6 ar 
    10   52    5 ar 
    11    7    6 ar 
    12    8    7 ar 
    13    9   37 1  
    14   38    9 1  
    15   11   10 2  
    16   11   12 1  
    17   13   11 1  
    18   14   13 1  
    19   15   14 1  
    20   14   20 1  
    21   15   16 1  
    22   32   15 1  
    23   16   17 am 
    24   17   18 2  
    25   17   19 1  
    26   20   21 1  
    27   25   20 1  
    28   21   22 1  
    29   22   23 2  
    30   22   24 1  
    31   25   26 1  
    32   31   25 1  
    33   26   27 1  
    34   27   28 1  
    35   28   29 2  
    36   28   30 1  
    37   32   31 1  
    38   33   32 1  
    39   34   33 am 
    40   34   35 2  
    41   36   34 am 
    42   37   36 1  
    43   38   39 1  
    44   46   38 am 
    45   39   40 1  
    46   39   43 1  
    47   40   41 1  
    48   40   42 1  
    49   43   44 ar 
    50   43   45 ar 
    51   46   47 2  
    52   46   48 2  
    53   46   49 1  
    54   49   51 ar 
    55    1   53 1  
    56    2   54 1  
    57    3   55 1  
    58    5   56 1  
    59    6   57 1  
    60    7   58 1  
    61    8   59 1  
    62    9   60 1  
    63    9   61 1  
    64   12   62 1  
    65   12   63 1  
    66   12   64 1  
    67   14   65 1  
    68   15   66 1  
    69   16   67 1  
    70   19   68 1  
    71   19   69 1  
    72   19   70 1  
    73   20   71 1  
    74   24   72 1  
    75   24   73 1  
    76   24   74 1  
    77   25   75 1  
    78   26   76 1  
    79   26   77 1  
    80   30   78 1  
    81   30   79 1  
    82   30   80 1  
    83   32   81 1  
    84   33   82 1  
    85   36   83 1  
    86   37   84 1  
    87   37   85 1  
    88   39   86 1  
    89   40   87 1  
    90   41   88 1  
    91   41   89 1  
    92   41   90 1  
    93   42   91 1  
    94   42   92 1  
    95   42   93 1  
    96   51   94 1  
    97   52   95 1  
@<TRIPOS>SUBSTRUCTURE
     1 H27         1

