### 
### Created by X-TOOL on Mon Sep 10 21:13:29 2018
### 

@<TRIPOS>MOLECULE
5i13_ligand
   30    31     1     0     0
SMALL
GAST_HUCK


@<TRIPOS>ATOM
      1 CAN        -0.3690  -20.9060  -19.7680 C.ar      1 4P9        -0.0287
      2 CAP        -0.9840  -19.6780  -20.0110 C.ar      1 4P9        -0.0400
      3 CAR        -0.2400  -18.6310  -20.5520 C.ar      1 4P9         0.0464
      4 CLS        -0.9700  -17.0980  -20.8410 Cl        1 4P9        -0.0651
      5 CAQ         1.1000  -18.8230  -20.8640 C.ar      1 4P9        -0.0400
      6 CAO         1.7160  -20.0420  -20.6380 C.ar      1 4P9        -0.0287
      7 CAM         0.9810  -21.0870  -20.0840 C.ar      1 4P9         0.0892
      8 NAL         1.5690  -22.2750  -19.9470 N.2       1 4P9        -0.1630
      9 NAK         2.8040  -22.3340  -20.2860 N.2       1 4P9        -0.1976
     10 CAJ         3.4770  -23.5020  -20.1760 C.3       1 4P9         0.0754
     11 CAB         4.8160  -23.4370  -20.5750 C.ar      1 4P9        -0.0123
     12 CAC         5.5710  -22.2540  -20.5350 C.ar      1 4P9        -0.0862
     13 CAD         6.9190  -22.2520  -20.9220 C.ar      1 4P9        -0.0588
     14 CAE         7.5380  -23.4390  -21.3130 C.ar      1 4P9         0.1008
     15 OAG         8.8380  -23.5200  -21.7030 O.3       1 4P9        -0.3443
     16 CAF         6.8060  -24.6130  -21.3160 C.ar      1 4P9         0.1376
     17 OAH         7.3950  -25.7810  -21.6910 O.3       1 4P9        -0.3436
     18 CAA         5.4970  -24.6170  -20.8700 C.ar      1 4P9         0.1109
     19 OAI         4.7990  -25.7810  -20.9470 O.3       1 4P9        -0.3439
     20 H1         -0.9378  -21.7204  -19.3340 H         1 4P9         0.0686
     21 H2         -2.0340  -19.5388  -19.7805 H         1 4P9         0.0638
     22 H3          1.6715  -18.0066  -21.2905 H         1 4P9         0.0638
     23 H4          2.7610  -20.1818  -20.8900 H         1 4P9         0.0686
     24 H5          2.9684  -24.2522  -20.7993 H         1 4P9         0.0614
     25 H6          3.4468  -23.8187  -19.1230 H         1 4P9         0.0614
     26 H7          5.1073  -21.3327  -20.2016 H         1 4P9         0.0412
     27 H8          7.4813  -21.3253  -20.9172 H         1 4P9         0.0406
     28 H9          9.0457  -24.4203  -21.9239 H         1 4P9         0.2416
     29 H10         6.7603  -26.4858  -21.6377 H         1 4P9         0.2398
     30 H11         5.2379  -26.4469  -20.4308 H         1 4P9         0.2411
@<TRIPOS>BOND
     1    1    2 ar 
     2    1    7 ar 
     3    2    3 ar 
     4    3    4 1  
     5    3    5 ar 
     6    5    6 ar 
     7    6    7 ar 
     8    7    8 1  
     9    8    9 2  
    10    9   10 1  
    11   10   11 1  
    12   11   12 ar 
    13   11   18 ar 
    14   12   13 ar 
    15   13   14 ar 
    16   14   15 1  
    17   14   16 ar 
    18   16   17 1  
    19   16   18 ar 
    20   18   19 1  
    21    1   20 1  
    22    2   21 1  
    23    5   22 1  
    24    6   23 1  
    25   10   24 1  
    26   10   25 1  
    27   12   26 1  
    28   13   27 1  
    29   15   28 1  
    30   17   29 1  
    31   19   30 1  
@<TRIPOS>SUBSTRUCTURE
     1 4P9         1

