### 
### Created by X-TOOL on Mon Sep 10 21:13:28 2018
### 

@<TRIPOS>MOLECULE
5i1q_ligand
   48    50     1     0     0
SMALL
GAST_HUCK


@<TRIPOS>ATOM
      1 C1         -4.3910   13.7150    8.1870 C.3       1 67C         0.0218
      2 N1        -10.2890   18.8520    5.4670 N.am      1 67C        -0.2697
      3 O1        -12.0460   20.3520    5.5330 O.2       1 67C        -0.3985
      4 C2         -4.9240   16.0600    8.1470 C.2       1 67C         0.2053
      5 N2        -10.1660   22.4990    6.4160 N.pl3     1 67C        -0.2858
      6 C3         -5.1300   17.3960    7.4530 C.ar      1 67C         0.0435
      7 C4         -6.4300   17.8110    7.1250 C.ar      1 67C        -0.0389
      8 C5         -6.6470   19.0870    6.5190 C.ar      1 67C        -0.0255
      9 C6         -5.5410   19.9040    6.3430 C.ar      1 67C        -0.0543
     10 C7         -4.2700   19.5040    6.7340 C.ar      1 67C        -0.0627
     11 C8         -4.0230   18.2250    7.2580 C.ar      1 67C        -0.0488
     12 C9         -8.0430   19.4800    6.2490 C.3       1 67C         0.0336
     13 C10        -8.9980   18.5500    5.7170 C.3       1 67C         0.0510
     14 C15       -10.8700   20.1600    5.6400 C.2       1 67C         0.2100
     15 C11       -11.1580   17.7640    4.9140 C.3       1 67C         0.0430
     16 C12       -11.4550   16.8080    6.1400 C.3       1 67C        -0.0046
     17 C13       -12.3250   15.6930    5.6350 C.2       1 67C        -0.0873
     18 C14       -11.9350   14.4240    5.6270 C.2       1 67C        -0.1174
     19 C16        -9.8830   21.1410    6.1220 C.2       1 67C         0.1225
     20 C19        -8.9850   22.9280    6.8270 C.2       1 67C         0.0185
     21 C18        -7.8670   22.0820    6.9070 C.2       1 67C        -0.0675
     22 C17        -8.5370   20.8750    6.4060 C.2       1 67C        -0.0274
     23 O          -5.4590   15.9750    9.3150 O.2       1 67C        -0.3845
     24 N          -4.4210   15.0590    7.5500 N.am      1 67C        -0.2786
     25 C          -3.9970   15.0750    6.1290 C.3       1 67C         0.0218
     26 H1         -3.9155   12.9959    7.5037 H         1 67C         0.0486
     27 H2         -5.4189   13.3893    8.4047 H         1 67C         0.0486
     28 H3         -3.8164   13.7658    9.1236 H         1 67C         0.0486
     29 H4        -11.0543   23.0136    6.3318 H         1 67C         0.2314
     30 H5         -7.2726   17.1613    7.3321 H         1 67C         0.0610
     31 H6         -5.6716   20.8795    5.8888 H         1 67C         0.0594
     32 H7         -3.4447   20.1993    6.6317 H         1 67C         0.0611
     33 H8         -3.0189   17.8960    7.5002 H         1 67C         0.0611
     34 H9         -8.3210   19.2310    7.2837 H         1 67C         0.0591
     35 H10        -8.5804   18.2105    4.7577 H         1 67C         0.0563
     36 H11        -9.0207   17.7087    6.4253 H         1 67C         0.0563
     37 H12       -10.6322   17.2176    4.1172 H         1 67C         0.0546
     38 H13       -12.0939   18.1826    4.5156 H         1 67C         0.0546
     39 H14       -11.9772   17.3635    6.9329 H         1 67C         0.0462
     40 H15       -10.5134   16.4007    6.5368 H         1 67C         0.0462
     41 H16       -13.3180   15.9357    5.2594 H         1 67C         0.0673
     42 H17       -12.6034   13.6513    5.2501 H         1 67C         0.0290
     43 H18       -10.9466   14.1558    5.9973 H         1 67C         0.0290
     44 H19        -8.8754   23.9730    7.1133 H         1 67C         0.0876
     45 H20        -6.8433   22.2614    7.2324 H         1 67C         0.0290
     46 H21        -4.0501   16.1033    5.7421 H         1 67C         0.0486
     47 H22        -4.6629   14.4269    5.5403 H         1 67C         0.0486
     48 H23        -2.9635   14.7067    6.0505 H         1 67C         0.0486
@<TRIPOS>BOND
     1   24    1 1  
     2    2   13 1  
     3   14    2 am 
     4    2   15 1  
     5   14    3 2  
     6    6    4 1  
     7    4   23 2  
     8    4   24 am 
     9   19    5 1  
    10    5   20 1  
    11    7    6 ar 
    12    6   11 ar 
    13    8    7 ar 
    14    8    9 ar 
    15   12    8 1  
    16    9   10 ar 
    17   10   11 ar 
    18   13   12 1  
    19   12   22 1  
    20   14   19 1  
    21   15   16 1  
    22   16   17 1  
    23   17   18 2  
    24   19   22 2  
    25   20   21 2  
    26   21   22 1  
    27   24   25 1  
    28    1   26 1  
    29    1   27 1  
    30    1   28 1  
    31    5   29 1  
    32    7   30 1  
    33    9   31 1  
    34   10   32 1  
    35   11   33 1  
    36   12   34 1  
    37   13   35 1  
    38   13   36 1  
    39   15   37 1  
    40   15   38 1  
    41   16   39 1  
    42   16   40 1  
    43   17   41 1  
    44   18   42 1  
    45   18   43 1  
    46   20   44 1  
    47   21   45 1  
    48   25   46 1  
    49   25   47 1  
    50   25   48 1  
@<TRIPOS>SUBSTRUCTURE
     1 67C         1

