### 
### Created by X-TOOL on Mon Sep 10 21:13:26 2018
### 

@<TRIPOS>MOLECULE
5i23_ligand
   54    54     1     0     0
SMALL
GAST_HUCK


@<TRIPOS>ATOM
      1 C1         15.8580  157.1660  137.6860 C.3       1 66V         0.0192
      2 C2         16.0370  155.6270  137.6510 C.3       1 66V         0.0886
      3 C3         15.5100  154.9110  138.8770 C.3       1 66V         0.1075
      4 C4         15.8070  155.7560  140.0790 C.3       1 66V         0.0935
      5 C5         14.8910  156.9880  140.0550 C.3       1 66V         0.0535
      6 C6         14.8380  157.7100  138.6890 C.3       1 66V        -0.0127
      7 C7         15.1780  157.9420  141.2130 C.3       1 66V         0.0546
      8 N8         13.4800  157.6540  138.0510 N.4       1 66V         0.2295
      9 C9         12.5050  158.4260  138.8580 C.3       1 66V        -0.0334
     10 C10        11.0330  158.3120  138.4120 C.3       1 66V        -0.0126
     11 C11        10.2240  159.0950  139.4490 C.3       1 66V        -0.0483
     12 C12         8.7230  159.1150  139.2350 C.3       1 66V        -0.0529
     13 C13         7.9610  159.0870  140.5660 C.3       1 66V        -0.0529
     14 C14         6.4500  159.0820  140.3110 C.3       1 66V        -0.0483
     15 C15         5.6250  158.7880  141.5690 C.3       1 66V         0.0029
     16 C16         4.3380  158.0420  141.2220 C.3       1 66V         0.2089
     17 N17         3.4870  158.7610  140.2910 N.2       1 66V         0.1658
     18 N18         2.6230  158.0680  139.4670 N.1       1 66V         0.1292
     19 N19         1.8900  157.4970  138.7680 N.1       1 66V         0.2334
     20 O20        15.4750  155.0680  136.4520 O.3       1 66V        -0.3889
     21 O21        16.1250  153.6050  138.9980 O.3       1 66V        -0.3867
     22 O22        15.5520  155.0050  141.2630 O.3       1 66V        -0.3886
     23 O23        16.5260  158.4440  141.1750 O.3       1 66V        -0.3944
     24 H1         15.5454  157.4895  136.6822 H         1 66V         0.0346
     25 H2         16.8346  157.6111  137.9272 H         1 66V         0.0346
     26 H3         17.1204  155.4392  137.6201 H         1 66V         0.0622
     27 H4         14.4214  154.7833  138.7845 H         1 66V         0.0645
     28 H5         16.8601  156.0731  140.0605 H         1 66V         0.0625
     29 H6         13.8742  156.6044  140.2251 H         1 66V         0.0404
     30 H7         15.0796  158.7667  138.8759 H         1 66V         0.0856
     31 H8         15.0251  157.4060  142.1613 H         1 66V         0.0563
     32 H9         14.4809  158.7910  141.1551 H         1 66V         0.0563
     33 H10        13.1784  156.6939  137.9929 H         1 66V         0.2016
     34 H11        13.5307  158.0470  137.1242 H         1 66V         0.2016
     35 H12        12.7916  159.4870  138.8113 H         1 66V         0.0814
     36 H13        12.5719  158.0736  139.8978 H         1 66V         0.0814
     37 H14        10.7177  157.2583  138.3957 H         1 66V         0.0317
     38 H15        10.9003  158.7500  137.4117 H         1 66V         0.0317
     39 H16        10.5803  160.1356  139.4398 H         1 66V         0.0267
     40 H17        10.4185  158.6495  140.4357 H         1 66V         0.0267
     41 H18         8.4356  158.2350  138.6409 H         1 66V         0.0265
     42 H19         8.4527  160.0306  138.6885 H         1 66V         0.0265
     43 H20         8.2269  159.9767  141.1557 H         1 66V         0.0265
     44 H21         8.2382  158.1807  141.1243 H         1 66V         0.0265
     45 H22         6.2253  158.3122  139.5581 H         1 66V         0.0267
     46 H23         6.1576  160.0694  139.9244 H         1 66V         0.0267
     47 H24         5.3680  159.7382  142.0600 H         1 66V         0.0316
     48 H25         6.2238  158.1709  142.2550 H         1 66V         0.0316
     49 H26         3.7729  157.8714  142.1502 H         1 66V         0.0957
     50 H27         4.6063  157.0744  140.7729 H         1 66V         0.0957
     51 H28        14.5294  155.1562  136.4758 H         1 66V         0.2099
     52 H29        15.9234  153.0886  138.2265 H         1 66V         0.2100
     53 H30        15.7256  155.5468  142.0239 H         1 66V         0.2099
     54 H31        16.6650  158.9137  140.3611 H         1 66V         0.2094
@<TRIPOS>BOND
     1    1    2 1  
     2    1    6 1  
     3    2    3 1  
     4    2   20 1  
     5    3    4 1  
     6    3   21 1  
     7    4    5 1  
     8    4   22 1  
     9    5    6 1  
    10    5    7 1  
    11    6    8 1  
    12    7   23 1  
    13    8    9 1  
    14    9   10 1  
    15   10   11 1  
    16   11   12 1  
    17   12   13 1  
    18   13   14 1  
    19   14   15 1  
    20   15   16 1  
    21   16   17 1  
    22   17   18 2  
    23   18   19 3  
    24    1   24 1  
    25    1   25 1  
    26    2   26 1  
    27    3   27 1  
    28    4   28 1  
    29    5   29 1  
    30    6   30 1  
    31    7   31 1  
    32    7   32 1  
    33    8   33 1  
    34    8   34 1  
    35    9   35 1  
    36    9   36 1  
    37   10   37 1  
    38   10   38 1  
    39   11   39 1  
    40   11   40 1  
    41   12   41 1  
    42   12   42 1  
    43   13   43 1  
    44   13   44 1  
    45   14   45 1  
    46   14   46 1  
    47   15   47 1  
    48   15   48 1  
    49   16   49 1  
    50   16   50 1  
    51   20   51 1  
    52   21   52 1  
    53   22   53 1  
    54   23   54 1  
@<TRIPOS>SUBSTRUCTURE
     1 66V         1

