### 
### Created by X-TOOL on Mon Sep 10 21:13:27 2018
### 

@<TRIPOS>MOLECULE
5i24_ligand
   28    28     1     0     0
SMALL
GAST_HUCK


@<TRIPOS>ATOM
      1 C1         15.7910  155.2160  140.0060 C.3       1 66U         0.0935
      2 C2         14.8750  156.4620  139.9330 C.3       1 66U         0.0534
      3 C3         14.9070  157.1490  138.5510 C.3       1 66U        -0.0144
      4 C4         15.9170  156.5800  137.5750 C.3       1 66U         0.0192
      5 C5         16.0790  155.0390  137.5820 C.3       1 66U         0.0886
      6 C6         15.5300  154.3420  138.8090 C.3       1 66U         0.1075
      7 C8         15.1460  157.4540  141.0550 C.3       1 66U         0.0546
      8 O8         16.5090  157.8990  141.0450 O.3       1 66U        -0.3944
      9 O1         15.4940  154.5290  141.2220 O.3       1 66U        -0.3886
     10 O6         16.1740  153.0430  138.9050 O.3       1 66U        -0.3867
     11 O5         15.5620  154.4910  136.3700 O.3       1 66U        -0.3889
     12 N1         13.5610  157.0690  137.8930 N.4       1 66U         0.2211
     13 H1         16.8466  155.5252  140.0065 H         1 66U         0.0625
     14 H2         13.8470  156.0983  140.0777 H         1 66U         0.0404
     15 H3         15.1577  158.2069  138.7183 H         1 66U         0.0855
     16 H4         16.8967  157.0219  137.8095 H         1 66U         0.0346
     17 H5         15.6119  156.8811  136.5620 H         1 66U         0.0346
     18 H6         17.1613  154.8424  137.5844 H         1 66U         0.0622
     19 H7         14.4447  154.1968  138.7039 H         1 66U         0.0645
     20 H8         14.9354  156.9690  142.0196 H         1 66U         0.0563
     21 H9         14.4850  158.3243  140.9301 H         1 66U         0.0563
     22 H10        16.6963  158.3233  140.2160 H         1 66U         0.2094
     23 H11        15.6674  155.1028  141.9590 H         1 66U         0.2099
     24 H12        15.9824  152.5373  138.1239 H         1 66U         0.2100
     25 H13        14.6163  154.5808  136.3613 H         1 66U         0.2099
     26 H14        12.8603  157.4403  138.5152 H         1 66U         0.1997
     27 H15        13.3469  156.1069  137.6817 H         1 66U         0.1997
     28 H16        13.5715  157.6061  137.0401 H         1 66U         0.1997
@<TRIPOS>BOND
     1    1    2 1  
     2    1    6 1  
     3    1    9 1  
     4    2    3 1  
     5    2    7 1  
     6    3    4 1  
     7    3   12 1  
     8    4    5 1  
     9    5    6 1  
    10    5   11 1  
    11    6   10 1  
    12    7    8 1  
    13    1   13 1  
    14    2   14 1  
    15    3   15 1  
    16    4   16 1  
    17    4   17 1  
    18    5   18 1  
    19    6   19 1  
    20    7   20 1  
    21    7   21 1  
    22    8   22 1  
    23    9   23 1  
    24   10   24 1  
    25   11   25 1  
    26   12   26 1  
    27   12   27 1  
    28   12   28 1  
@<TRIPOS>SUBSTRUCTURE
     1 66U         1

