### 
### Created by X-TOOL on Mon Sep 10 21:13:28 2018
### 

@<TRIPOS>MOLECULE
5i29_ligand
   39    41     1     0     0
SMALL
GAST_HUCK


@<TRIPOS>ATOM
      1 C4          7.9590   -7.5820   -3.2460 C.ar      1 67B        -0.0504
      2 C2          7.0780   -6.7680   -1.0210 C.2       1 67B         0.2050
      3 C1          8.1230   -8.7850   -0.0650 C.3       1 67B         0.0218
      4 C5          7.6890   -8.1560   -4.4760 C.ar      1 67B        -0.0651
      5 C8          5.6190   -7.6750   -2.7640 C.ar      1 67B        -0.0468
      6 C9          3.9350   -8.5420   -4.4250 C.2       1 67B        -0.0153
      7 C6          6.4280   -8.4800   -4.8600 C.ar      1 67B        -0.0627
      8 C10         3.0000   -8.9150   -3.4810 C.2       1 67B         0.0588
      9 C11         0.7950   -9.4790   -2.6690 C.3       1 67B         0.0555
     10 O1         -0.0220   -9.3040   -5.2270 O.2       1 67B        -0.4057
     11 C12         1.1640   -9.0900   -5.0060 C.2       1 67B         0.2381
     12 N1          1.7140   -9.1740   -3.7660 N.am      1 67B        -0.2151
     13 C13         2.1140   -8.7460   -6.0480 C.2       1 67B         0.1256
     14 N2          1.8780   -8.5530   -7.3620 N.pl3     1 67B        -0.2840
     15 C16         3.0690   -8.1340   -7.9340 C.2       1 67B         0.0187
     16 C15         4.0740   -8.0440   -6.9940 C.2       1 67B        -0.0722
     17 C14         3.4480   -8.4440   -5.7500 C.2       1 67B        -0.0362
     18 C7          5.3600   -8.2580   -4.0170 C.ar      1 67B        -0.0387
     19 C3          6.8970   -7.4020   -2.3590 C.ar      1 67B         0.0415
     20 O           6.6000   -5.5770   -0.8730 O.2       1 67B        -0.3845
     21 N           7.6840   -7.3700   -0.0150 N.am      1 67B        -0.2786
     22 C           7.7690   -6.7240    1.2690 C.3       1 67B         0.0218
     23 H1          8.9657   -7.2811   -2.9795 H         1 67B         0.0597
     24 H2          8.5999   -9.0548    0.8888 H         1 67B         0.0486
     25 H3          8.8438   -8.9165   -0.8854 H         1 67B         0.0486
     26 H4          7.2511   -9.4336   -0.2354 H         1 67B         0.0486
     27 H5          8.5110   -8.3532   -5.1546 H         1 67B         0.0605
     28 H6          4.7905   -7.4374   -2.1065 H         1 67B         0.0600
     29 H7          6.2594   -8.9169   -5.8376 H         1 67B         0.0579
     30 H8          3.3241   -9.0044   -2.4452 H         1 67B         0.1124
     31 H9          1.3544   -9.5202   -1.7228 H         1 67B         0.0596
     32 H10         0.3140  -10.4510   -2.8531 H         1 67B         0.0596
     33 H11         0.0258   -8.6952   -2.6063 H         1 67B         0.0596
     34 H12         0.9810   -8.6911   -7.8490 H         1 67B         0.2309
     35 H13         3.1951   -7.9050   -8.9912 H         1 67B         0.0890
     36 H14         5.1078   -7.7400   -7.1516 H         1 67B         0.0281
     37 H15         7.4184   -5.6851    1.1807 H         1 67B         0.0486
     38 H16         8.8134   -6.7304    1.6143 H         1 67B         0.0486
     39 H17         7.1401   -7.2629    1.9930 H         1 67B         0.0486
@<TRIPOS>BOND
     1    4    1 ar 
     2   19    1 ar 
     3   19    2 1  
     4    2   20 2  
     5    2   21 am 
     6   21    3 1  
     7    7    4 ar 
     8   18    5 ar 
     9    5   19 ar 
    10    8    6 2  
    11    6   17 1  
    12    6   18 1  
    13   18    7 ar 
    14   12    8 1  
    15   12    9 1  
    16   11   10 2  
    17   11   12 am 
    18   11   13 1  
    19   13   14 1  
    20   13   17 2  
    21   14   15 1  
    22   15   16 2  
    23   16   17 1  
    24   21   22 1  
    25    1   23 1  
    26    3   24 1  
    27    3   25 1  
    28    3   26 1  
    29    4   27 1  
    30    5   28 1  
    31    7   29 1  
    32    8   30 1  
    33    9   31 1  
    34    9   32 1  
    35    9   33 1  
    36   14   34 1  
    37   15   35 1  
    38   16   36 1  
    39   22   37 1  
    40   22   38 1  
    41   22   39 1  
@<TRIPOS>SUBSTRUCTURE
     1 67B         1

