### 
### Created by X-TOOL on Mon Sep 10 21:13:27 2018
### 

@<TRIPOS>MOLECULE
5i2e_ligand
   61    66     1     0     0
SMALL
GAST_HUCK


@<TRIPOS>ATOM
      1 S         -30.9820    3.9470  -23.8520 S.o2      1 67D         0.1858
      2 N         -31.7900    5.0740  -23.0710 N.am      1 67D        -0.1340
      3 C7        -25.6160    4.3160  -34.8600 C.2       1 67D         0.0527
      4 C6        -27.4270    4.4580  -33.7640 C.2       1 67D         0.1491
      5 C5        -28.2990    4.6910  -32.6100 C.2       1 67D         0.0956
      6 C4        -27.6710    5.0790  -31.3690 C.2       1 67D         0.1561
      7 C3        -26.6950    4.0170  -35.6910 C.2       1 67D        -0.0333
      8 C2        -25.5710    4.9520  -32.4560 C.2       1 67D         0.1535
      9 C8        -29.8510    4.9460  -31.1830 C.2       1 67D         0.1059
     10 C9        -31.9660    6.2130  -23.7070 C.2       1 67D         0.1988
     11 C11       -32.2550    8.6160  -23.8050 C.3       1 67D        -0.0194
     12 C10       -31.8250    7.4720  -22.9010 C.3       1 67D         0.0431
     13 N1        -26.1100    4.5860  -33.6460 N.pl3     1 67D        -0.1874
     14 N3        -26.3140    5.1830  -31.3460 N.2       1 67D        -0.2366
     15 N7        -29.6350    4.6190  -32.4950 N.2       1 67D        -0.3074
     16 N9        -28.6890    5.2230  -30.5320 N.pl3     1 67D        -0.1975
     17 C1'       -28.4710    5.5970  -29.1360 C.3       1 67D         0.2011
     18 O4'       -28.7810    4.5050  -28.3200 O.3       1 67D        -0.3364
     19 C2'       -29.3460    6.7280  -28.6080 C.3       1 67D         0.1389
     20 O2'       -28.9040    7.9950  -29.0520 O.3       1 67D        -0.3835
     21 C3'       -29.2540    6.4970  -27.0880 C.3       1 67D         0.1147
     22 O3'       -28.1860    7.2670  -26.5280 O.3       1 67D        -0.3864
     23 C4'       -28.9340    4.9960  -26.9670 C.3       1 67D         0.1162
     24 C5'       -29.9600    4.1740  -26.2350 C.3       1 67D         0.1073
     25 O5'       -30.0000    4.5620  -24.8590 O.3       1 67D        -0.2161
     26 O2P       -30.2330    3.2990  -22.8220 O.2       1 67D        -0.1218
     27 O3P       -31.8480    3.0090  -24.5240 O.2       1 67D        -0.1218
     28 N2        -27.8540    4.1090  -34.9890 N.2       1 67D        -0.3434
     29 O13       -32.1990    6.2500  -24.8960 O.2       1 67D        -0.3952
     30 C19       -33.4350    9.3880  -23.2610 C.2       1 67D        -0.0440
     31 C20       -33.9330    9.5350  -21.8650 C.ar      1 67D        -0.0215
     32 C21       -35.1090   10.4240  -21.9720 C.ar      1 67D         0.0603
     33 N22       -35.2600   10.7410  -23.2710 N.pl3     1 67D        -0.2891
     34 C23       -34.3000   10.1540  -24.0370 C.2       1 67D         0.0166
     35 C36       -35.8030   10.7590  -20.8190 C.ar      1 67D        -0.0443
     36 C37       -35.3690   10.2480  -19.6030 C.ar      1 67D        -0.0768
     37 C38       -34.2520    9.4190  -19.5040 C.ar      1 67D        -0.0792
     38 C39       -33.5230    9.0420  -20.6260 C.ar      1 67D        -0.0747
     39 H1        -32.1445    4.9250  -22.1479 H         1 67D         0.2165
     40 H2        -24.5653    4.3276  -35.1461 H         1 67D         0.0796
     41 H3        -26.6197    3.7500  -36.7441 H         1 67D         0.0473
     42 H4        -24.4900    5.0656  -32.3894 H         1 67D         0.1524
     43 H5        -30.8346    4.9802  -30.7168 H         1 67D         0.1274
     44 H6        -32.5293    8.2027  -24.7868 H         1 67D         0.0374
     45 H7        -31.4077    9.3076  -23.9220 H         1 67D         0.0374
     46 H8        -30.7791    7.6076  -22.5885 H         1 67D         0.0517
     47 H9        -32.4707    7.4277  -22.0116 H         1 67D         0.0517
     48 H10       -27.4139    5.8769  -29.0173 H         1 67D         0.1001
     49 H11       -30.3858    6.5989  -28.9429 H         1 67D         0.0677
     50 H12       -28.0153    8.1427  -28.7505 H         1 67D         0.2101
     51 H13       -30.2015    6.7471  -26.5883 H         1 67D         0.0648
     52 H14       -28.3427    8.1896  -26.6916 H         1 67D         0.2100
     53 H15       -27.9798    4.8894  -26.4302 H         1 67D         0.0648
     54 H16       -29.6934    3.1092  -26.3065 H         1 67D         0.0611
     55 H17       -30.9489    4.3357  -26.6888 H         1 67D         0.0611
     56 H18       -36.0057   11.3493  -23.6383 H         1 67D         0.2216
     57 H19       -34.2193   10.2688  -25.1169 H         1 67D         0.0795
     58 H20       -36.6695   11.4087  -20.8662 H         1 67D         0.0541
     59 H21       -35.9158   10.5015  -18.7020 H         1 67D         0.0530
     60 H22       -33.9447    9.0599  -18.5285 H         1 67D         0.0510
     61 H23       -32.6640    8.3863  -20.5410 H         1 67D         0.0540
@<TRIPOS>BOND
     1    1    2 1  
     2   25    1 1  
     3    1   26 2  
     4    1   27 2  
     5    2   10 am 
     6    3    7 2  
     7   13    3 1  
     8    5    4 1  
     9    4   13 1  
    10    4   28 2  
    11    6    5 2  
    12   15    5 1  
    13    6   14 1  
    14   16    6 1  
    15   28    7 1  
    16    8   13 1  
    17   14    8 2  
    18    9   15 2  
    19   16    9 1  
    20   10   12 1  
    21   10   29 2  
    22   12   11 1  
    23   11   30 1  
    24   17   16 1  
    25   18   17 1  
    26   19   17 1  
    27   23   18 1  
    28   19   20 1  
    29   21   19 1  
    30   21   22 1  
    31   23   21 1  
    32   24   23 1  
    33   24   25 1  
    34   30   31 1  
    35   30   34 2  
    36   31   32 ar 
    37   31   38 ar 
    38   32   33 1  
    39   32   35 ar 
    40   33   34 1  
    41   35   36 ar 
    42   36   37 ar 
    43   37   38 ar 
    44    2   39 1  
    45    3   40 1  
    46    7   41 1  
    47    8   42 1  
    48    9   43 1  
    49   11   44 1  
    50   11   45 1  
    51   12   46 1  
    52   12   47 1  
    53   17   48 1  
    54   19   49 1  
    55   20   50 1  
    56   21   51 1  
    57   22   52 1  
    58   23   53 1  
    59   24   54 1  
    60   24   55 1  
    61   33   56 1  
    62   34   57 1  
    63   35   58 1  
    64   36   59 1  
    65   37   60 1  
    66   38   61 1  
@<TRIPOS>SUBSTRUCTURE
     1 67D         1

