### 
### Created by X-TOOL on Mon Sep 10 21:13:26 2018
### 

@<TRIPOS>MOLECULE
5i2f_ligand
   43    45     1     0     0
SMALL
GAST_HUCK


@<TRIPOS>ATOM
      1 S         -31.7270    4.3470  -23.9250 S.o2      1 BS5         0.1391
      2 N1        -27.0070    4.8310  -33.7520 N.ar      1 BS5        -0.2698
      3 C2        -26.4060    5.0580  -32.5670 C.ar      1 BS5         0.0533
      4 N3        -27.0800    5.3140  -31.4320 N.ar      1 BS5        -0.2714
      5 C4        -28.4300    5.3480  -31.4280 C.ar      1 BS5         0.1613
      6 C5        -29.1610    5.1130  -32.6760 C.ar      1 BS5         0.1045
      7 C6        -28.3530    4.8410  -33.8830 C.ar      1 BS5         0.1298
      8 N6        -29.0120    4.5910  -35.1920 N.pl3     1 BS5        -0.3152
      9 N7        -30.4690    5.2180  -32.3780 N.2       1 BS5        -0.2958
     10 C8        -30.5710    5.4890  -31.0520 C.2       1 BS5         0.1123
     11 N9        -29.3510    5.5720  -30.4980 N.pl3     1 BS5        -0.1919
     12 C1'       -29.0340    5.8500  -29.0840 C.3       1 BS5         0.2009
     13 C2'       -29.8980    6.9510  -28.5100 C.3       1 BS5         0.1385
     14 O2'       -29.3400    8.2210  -28.8450 O.3       1 BS5        -0.3836
     15 C3'       -29.8850    6.6480  -27.0190 C.3       1 BS5         0.1139
     16 O3'       -28.8800    7.3680  -26.2830 O.3       1 BS5        -0.3864
     17 C4'       -29.5710    5.1620  -26.9660 C.3       1 BS5         0.1073
     18 O4'       -29.3430    4.7100  -28.2960 O.3       1 BS5        -0.3375
     19 C5'       -30.7190    4.3790  -26.3710 C.3       1 BS5         0.0570
     20 N5'       -30.5210    4.4830  -24.9510 N.am      1 BS5        -0.2288
     21 CAB       -32.7270    7.9260  -24.9120 C.3       1 BS5         0.0273
     22 CBB       -32.5090    6.9260  -23.8030 C.2       1 BS5         0.1940
     23 NBB       -32.7190    5.6280  -24.1030 N.am      1 BS5        -0.1418
     24 OCB       -32.1390    7.3100  -22.7000 O.2       1 BS5        -0.3957
     25 OP1       -31.0990    4.2120  -22.6410 O.2       1 BS5        -0.1307
     26 OP2       -32.4510    3.1310  -24.1990 O.2       1 BS5        -0.1307
     27 H1        -25.3230    5.0329  -32.5270 H         1 BS5         0.0996
     28 H2        -30.0395    4.6047  -35.2622 H         1 BS5         0.1820
     29 H3        -28.4411    4.4041  -36.0286 H         1 BS5         0.1820
     30 H4        -31.5088    5.6204  -30.5142 H         1 BS5         0.1349
     31 H5        -27.9697    6.1127  -28.9938 H         1 BS5         0.0996
     32 H6        -30.9244    6.8962  -28.9017 H         1 BS5         0.0676
     33 H7        -28.4637    8.2858  -28.4838 H         1 BS5         0.2101
     34 H8        -30.8713    6.8611  -26.5810 H         1 BS5         0.0648
     35 H9        -29.0274    8.3016  -26.3782 H         1 BS5         0.2100
     36 H10       -28.6692    5.0010  -26.3571 H         1 BS5         0.0640
     37 H11       -30.6826    3.3280  -26.6936 H         1 BS5         0.0502
     38 H12       -31.6838    4.8191  -26.6632 H         1 BS5         0.0502
     39 H13       -29.5991    4.6454  -24.5991 H         1 BS5         0.1690
     40 H14       -32.5231    8.9398  -24.5369 H         1 BS5         0.0467
     41 H15       -33.7688    7.8665  -25.2599 H         1 BS5         0.0467
     42 H16       -32.0480    7.7008  -25.7476 H         1 BS5         0.0467
     43 H17       -33.6164    5.4207  -24.4924 H         1 BS5         0.2158
@<TRIPOS>BOND
     1    1   20 am 
     2   23    1 am 
     3    1   25 2  
     4    1   26 2  
     5    3    2 ar 
     6    7    2 ar 
     7    4    3 ar 
     8    5    4 ar 
     9    5    6 ar 
    10   11    5 1  
    11    6    7 ar 
    12    9    6 1  
    13    7    8 1  
    14   10    9 2  
    15   11   10 1  
    16   12   11 1  
    17   12   13 1  
    18   18   12 1  
    19   13   14 1  
    20   15   13 1  
    21   15   16 1  
    22   17   15 1  
    23   17   18 1  
    24   19   17 1  
    25   20   19 1  
    26   22   21 1  
    27   22   23 am 
    28   22   24 2  
    29    3   27 1  
    30    8   28 1  
    31    8   29 1  
    32   10   30 1  
    33   12   31 1  
    34   13   32 1  
    35   14   33 1  
    36   15   34 1  
    37   16   35 1  
    38   17   36 1  
    39   19   37 1  
    40   19   38 1  
    41   20   39 1  
    42   21   40 1  
    43   21   41 1  
    44   21   42 1  
    45   23   43 1  
@<TRIPOS>SUBSTRUCTURE
     1 BS5         1

