### 
### Created by X-TOOL on Mon Sep 10 21:13:28 2018
### 

@<TRIPOS>MOLECULE
5i2r_ligand
   42    45     1     0     0
SMALL
GAST_HUCK


@<TRIPOS>ATOM
      1 N3         93.4220   -7.9090   14.1220 N.2       1 67A        -0.1333
      2 C7         91.9240   -9.7780   14.0000 C.2       1 67A         0.1283
      3 C8         92.6620  -10.2720   12.8960 C.2       1 67A         0.0052
      4 C10        99.7200   -7.9980   12.0630 C.3       1 67A         0.5463
      5 C13        96.2880   -8.3120   12.2710 C.ar      1 67A         0.0007
      6 C15        92.2730   -5.4340   15.3680 C.ar      1 67A         0.1112
      7 C17        97.3920   -7.5750   11.8690 C.ar      1 67A         0.0948
      8 C22        95.1590   -6.2290   12.7340 C.ar      1 67A        -0.0382
      9 C24        97.3800   -6.1610   11.8870 C.ar      1 67A        -0.0411
     10 C26        91.6250   -5.0100   14.1990 C.ar      1 67A        -0.0255
     11 C28        93.8830   -3.6860   15.0940 C.ar      1 67A        -0.0657
     12 C1         92.3750   -8.5050   14.6110 C.2       1 67A         0.1585
     13 C2         91.7400   -7.8580   15.7720 C.2       1 67A         0.1301
     14 N4         91.7420   -6.5170   16.0900 N.pl3     1 67A        -0.1553
     15 N5         94.0640   -8.3860   13.1240 N.pl3     1 67A        -0.1341
     16 N6         91.0590   -6.3630   17.2850 N.2       1 67A        -0.2030
     17 C9         93.7300   -9.5430   12.4920 C.2       1 67A         0.0904
     18 C11        91.0870   -8.5160   16.7700 C.2       1 67A        -0.0352
     19 C12        95.1740   -7.6370   12.7070 C.ar      1 67A         0.1065
     20 C14        90.6700   -7.5500   17.6860 C.2       1 67A        -0.0009
     21 O16        98.4660   -8.2990   11.4520 O.3       1 67A        -0.2278
     22 O18        90.9520  -10.3890   14.4150 O.2       1 67A        -0.4219
     23 F19       100.1820   -6.7980   11.5060 F         1 67A        -0.1400
     24 F20        99.6230   -7.8250   13.4510 F         1 67A        -0.1400
     25 F21       100.5850   -9.0580   11.7720 F         1 67A        -0.1400
     26 C23        96.2530   -5.4830   12.3310 C.ar      1 67A        -0.0759
     27 C25        93.4020   -4.7630   15.8230 C.ar      1 67A        -0.0255
     28 C27        92.1170   -3.9270   13.4790 C.ar      1 67A        -0.0657
     29 C29        93.2470   -3.2670   13.9290 C.ar      1 67A        -0.0685
     30 H1         92.3829  -11.1973   12.3941 H         1 67A         0.0424
     31 H2         96.3039   -9.3955   12.2418 H         1 67A         0.0492
     32 H3         94.2682   -5.7166   13.0791 H         1 67A         0.0482
     33 H4         98.2503   -5.6069   11.5543 H         1 67A         0.0474
     34 H5         90.7372   -5.5285   13.8553 H         1 67A         0.0587
     35 H6         94.7680   -3.1623   15.4367 H         1 67A         0.0600
     36 H7         94.3288   -9.8879   11.6503 H         1 67A         0.1225
     37 H8         90.9221   -9.5902   16.8395 H         1 67A         0.0379
     38 H9         90.1068   -7.7508   18.5962 H         1 67A         0.0673
     39 H10        96.2304   -4.3997   12.3613 H         1 67A         0.0569
     40 H11        93.8989   -5.0769   16.7339 H         1 67A         0.0587
     41 H12        91.6194   -3.6023   12.5724 H         1 67A         0.0600
     42 H13        93.6375   -2.4222   13.3732 H         1 67A         0.0559
@<TRIPOS>BOND
     1    1   12 2  
     2   15    1 1  
     3    3    2 1  
     4   12    2 1  
     5    2   22 2  
     6   17    3 2  
     7   21    4 1  
     8    4   23 1  
     9    4   24 1  
    10    4   25 1  
    11    5    7 ar 
    12   19    5 ar 
    13    6   10 ar 
    14   14    6 1  
    15    6   27 ar 
    16    7    9 ar 
    17    7   21 1  
    18   19    8 ar 
    19    8   26 ar 
    20   26    9 ar 
    21   10   28 ar 
    22   27   11 ar 
    23   11   29 ar 
    24   12   13 1  
    25   13   14 1  
    26   13   18 2  
    27   14   16 1  
    28   15   17 1  
    29   15   19 1  
    30   16   20 2  
    31   18   20 1  
    32   28   29 ar 
    33    3   30 1  
    34    5   31 1  
    35    8   32 1  
    36    9   33 1  
    37   10   34 1  
    38   11   35 1  
    39   17   36 1  
    40   18   37 1  
    41   20   38 1  
    42   26   39 1  
    43   27   40 1  
    44   28   41 1  
    45   29   42 1  
@<TRIPOS>SUBSTRUCTURE
     1 67A         1

