### 
### Created by X-TOOL on Mon Sep 10 21:13:29 2018
### 

@<TRIPOS>MOLECULE
5i2z_ligand
   92    95     1     0     0
SMALL
GAST_HUCK


@<TRIPOS>ATOM
      1 C2        -11.1140  -15.6300   -3.1670 C.ar      1 V24        -0.0540
      2 C4         -8.7270  -15.4710   -2.7950 C.ar      1 V24        -0.0617
      3 C5         -8.9150  -14.1990   -2.2820 C.ar      1 V24        -0.0612
      4 C6        -10.1950  -13.6530   -2.2040 C.ar      1 V24        -0.0540
      5 C7        -12.6150  -13.8100   -2.5750 C.ar      1 V24        -0.0178
      6 C8        -13.6930  -14.6380   -2.6970 C.ar      1 V24        -0.0522
      7 C9        -14.9230  -14.0400   -2.5740 C.ar      1 V24        -0.0345
      8 C11       -13.9840  -11.8990   -2.1710 C.ar      1 V24        -0.0345
      9 C12       -12.7480  -12.4550   -2.2950 C.ar      1 V24        -0.0522
     10 O14       -17.1390  -13.0430   -1.3960 O.2       1 V24        -0.1499
     11 C17       -17.2090  -11.0460   -4.5110 C.3       1 V24         0.0967
     12 C18       -16.3040  -11.4510   -5.6000 C.2       1 V24         0.0570
     13 C21       -18.4720  -10.4460   -5.1530 C.3       1 V24        -0.0148
     14 C22       -19.6220  -10.2920   -4.1980 C.3       1 V24        -0.0594
     15 C24       -18.4920  -13.0060   -3.7270 C.3       1 V24         0.0663
     16 C25       -19.5890  -13.5230   -2.7750 C.2       1 V24         0.0558
     17 O52       -23.0420  -18.1950   -0.8150 O.2       1 V24        -0.3974
     18 C50       -22.7980  -17.1620   -1.3690 C.2       1 V24         0.1734
     19 C51       -22.6140  -17.2580   -2.7790 C.3       1 V24         0.0257
     20 N49       -22.7200  -15.9250   -0.9130 N.am      1 V24        -0.2755
     21 C35       -22.0280  -15.6560    0.3030 C.3       1 V24         0.1332
     22 C34       -22.8720  -15.9140    1.5500 C.3       1 V24         0.1486
     23 O42       -22.9970  -17.3440    1.5830 O.3       1 V24        -0.2681
     24 C43       -23.7410  -18.0270    2.5920 C.2       1 V24         0.2310
     25 O45       -24.5340  -17.3700    3.1860 O.2       1 V24        -0.3707
     26 C44       -23.4890  -19.4790    2.8370 C.3       1 V24         0.0372
     27 C33       -22.2910  -15.2890    2.8430 C.3       1 V24         0.1489
     28 O41       -23.2510  -14.3860    3.3920 O.3       1 V24        -0.2679
     29 C46       -23.5760  -14.7000    4.7690 C.2       1 V24         0.2310
     30 O48       -23.9190  -15.7960    5.1000 O.2       1 V24        -0.3707
     31 C47       -23.4500  -13.6240    5.7580 C.3       1 V24         0.0372
     32 C32       -20.8600  -14.7180    2.7050 C.3       1 V24         0.1233
     33 C36       -19.8950  -15.7890    3.2560 C.3       1 V24         0.1059
     34 O37       -18.4610  -15.6510    3.2100 O.3       1 V24        -0.2743
     35 C38       -17.6240  -15.1330    4.3000 C.2       1 V24         0.2307
     36 O40       -16.5840  -14.5840    4.0460 O.2       1 V24        -0.3707
     37 C39       -18.1040  -15.2830    5.7080 C.3       1 V24         0.0372
     38 O31       -20.5250  -14.3110    1.3460 O.3       1 V24        -0.3340
     39 C30       -21.5090  -14.2560    0.3160 C.3       1 V24         0.2125
     40 N28       -20.8790  -14.0460   -1.0060 N.pl3     1 V24        -0.1509
     41 N27       -21.5070  -14.5650   -2.1340 N.2       1 V24        -0.0996
     42 N26       -20.6610  -14.2210   -3.2050 N.2       1 V24        -0.2248
     43 C29       -19.7710  -13.4240   -1.3920 C.2       1 V24         0.0738
     44 N16       -17.4240  -12.0130   -3.4260 N.am      1 V24        -0.2101
     45 C23       -18.2060   -9.0920   -5.7930 C.3       1 V24        -0.0594
     46 O20       -16.7700  -12.0950   -6.5160 O.co2     1 V24        -0.5670
     47 O19       -15.1540  -11.0730   -5.5120 O.co2     1 V24        -0.5670
     48 S13       -16.5440  -12.0750   -2.1930 S.o2      1 V24         0.0735
     49 O15       -16.5340  -10.9800   -1.3950 O.2       1 V24        -0.1499
     50 C10       -15.0820  -12.6820   -2.3370 C.ar      1 V24         0.1086
     51 C1        -11.2800  -14.3800   -2.6730 C.ar      1 V24        -0.0179
     52 C3         -9.8400  -16.1840   -3.2230 C.ar      1 V24        -0.0612
     53 H1        -11.9699  -16.1957   -3.5169 H         1 V24         0.0624
     54 H2         -7.7341  -15.9009   -2.8612 H         1 V24         0.0618
     55 H3         -8.0621  -13.6245   -1.9391 H         1 V24         0.0618
     56 H4        -10.3421  -12.6664   -1.7796 H         1 V24         0.0624
     57 H5        -13.5850  -15.7011   -2.8795 H         1 V24         0.0624
     58 H6        -15.8098  -14.6566   -2.6662 H         1 V24         0.0637
     59 H7        -14.0912  -10.8447   -1.9427 H         1 V24         0.0637
     60 H8        -11.8641  -11.8390   -2.1750 H         1 V24         0.0624
     61 H9        -16.7056  -10.2045   -4.0126 H         1 V24         0.0687
     62 H10       -18.7872  -11.1401   -5.9460 H         1 V24         0.0332
     63 H11       -20.4833   -9.8593   -4.7280 H         1 V24         0.0234
     64 H12       -19.3271   -9.6266   -3.3732 H         1 V24         0.0234
     65 H13       -19.8974  -11.2773   -3.7938 H         1 V24         0.0234
     66 H14       -19.0392  -12.5797   -4.5807 H         1 V24         0.0596
     67 H15       -17.9530  -13.9086   -4.0507 H         1 V24         0.0596
     68 H16       -22.3961  -16.2608   -3.1890 H         1 V24         0.0467
     69 H17       -23.5302  -17.6527   -3.2423 H         1 V24         0.0467
     70 H18       -21.7736  -17.9344   -2.9939 H         1 V24         0.0467
     71 H19       -23.1467  -15.1770   -1.4213 H         1 V24         0.1857
     72 H20       -21.1649  -16.3366    0.3443 H         1 V24         0.0645
     73 H21       -23.8694  -15.4737    1.4038 H         1 V24         0.0706
     74 H22       -24.1475  -19.8345    3.6432 H         1 V24         0.0483
     75 H23       -22.4389  -19.6245    3.1303 H         1 V24         0.0483
     76 H24       -23.6951  -20.0471    1.9179 H         1 V24         0.0483
     77 H25       -22.1990  -16.1130    3.5659 H         1 V24         0.0707
     78 H26       -23.7273  -14.0052    6.7519 H         1 V24         0.0483
     79 H27       -24.1181  -12.7942    5.4842 H         1 V24         0.0483
     80 H28       -22.4102  -13.2658    5.7797 H         1 V24         0.0483
     81 H29       -20.7843  -13.8225    3.3393 H         1 V24         0.0655
     82 H30       -20.1279  -16.7159    2.7115 H         1 V24         0.0640
     83 H31       -20.1537  -15.9127    4.3180 H         1 V24         0.0640
     84 H32       -17.3653  -14.8457    6.3958 H         1 V24         0.0483
     85 H33       -18.2335  -16.3505    5.9395 H         1 V24         0.0483
     86 H34       -19.0663  -14.7631    5.8247 H         1 V24         0.0483
     87 H35       -22.2854  -13.5036    0.5189 H         1 V24         0.1028
     88 H36       -19.0916  -12.9038   -0.7183 H         1 V24         0.0900
     89 H37       -17.3662   -9.1784   -6.4982 H         1 V24         0.0234
     90 H38       -17.9545   -8.3600   -5.0114 H         1 V24         0.0234
     91 H39       -19.1048   -8.7584   -6.3323 H         1 V24         0.0234
     92 H40        -9.7129  -17.1896   -3.6072 H         1 V24         0.0618
@<TRIPOS>BOND
     1   51    1 ar 
     2    1   52 ar 
     3    3    2 ar 
     4   52    2 ar 
     5    4    3 ar 
     6   51    4 ar 
     7    6    5 ar 
     8    9    5 ar 
     9    5   51 1  
    10    7    6 ar 
    11   50    7 ar 
    12    8    9 ar 
    13   50    8 ar 
    14   48   10 2  
    15   11   12 1  
    16   11   13 1  
    17   44   11 1  
    18   12   46 ar 
    19   12   47 ar 
    20   13   14 1  
    21   13   45 1  
    22   15   16 1  
    23   44   15 1  
    24   16   42 1  
    25   16   43 2  
    26   18   17 2  
    27   18   19 1  
    28   20   18 am 
    29   21   20 1  
    30   21   22 1  
    31   39   21 1  
    32   22   23 1  
    33   22   27 1  
    34   23   24 1  
    35   24   25 2  
    36   24   26 1  
    37   27   28 1  
    38   32   27 1  
    39   28   29 1  
    40   29   30 2  
    41   29   31 1  
    42   32   33 1  
    43   38   32 1  
    44   33   34 1  
    45   34   35 1  
    46   35   36 2  
    47   35   37 1  
    48   39   38 1  
    49   40   39 1  
    50   40   41 1  
    51   43   40 1  
    52   42   41 2  
    53   48   44 am 
    54   48   49 2  
    55   48   50 1  
    56    1   53 1  
    57    2   54 1  
    58    3   55 1  
    59    4   56 1  
    60    6   57 1  
    61    7   58 1  
    62    8   59 1  
    63    9   60 1  
    64   11   61 1  
    65   13   62 1  
    66   14   63 1  
    67   14   64 1  
    68   14   65 1  
    69   15   66 1  
    70   15   67 1  
    71   19   68 1  
    72   19   69 1  
    73   19   70 1  
    74   20   71 1  
    75   21   72 1  
    76   22   73 1  
    77   26   74 1  
    78   26   75 1  
    79   26   76 1  
    80   27   77 1  
    81   31   78 1  
    82   31   79 1  
    83   31   80 1  
    84   32   81 1  
    85   33   82 1  
    86   33   83 1  
    87   37   84 1  
    88   37   85 1  
    89   37   86 1  
    90   39   87 1  
    91   43   88 1  
    92   45   89 1  
    93   45   90 1  
    94   45   91 1  
    95   52   92 1  
@<TRIPOS>SUBSTRUCTURE
     1 V24         1

