### 
### Created by X-TOOL on Mon Sep 10 21:13:29 2018
### 

@<TRIPOS>MOLECULE
5i38_ligand
   18    18     1     0     0
SMALL
GAST_HUCK


@<TRIPOS>ATOM
      1 C1          2.9290  101.9800   24.1180 C.2       1 KOJ         0.0736
      2 C2          3.2640  101.0300   25.0850 C.2       1 KOJ         0.1151
      3 C3          2.2950  100.7330   26.0710 C.2       1 KOJ         0.0868
      4 C4          1.0310  101.3950   26.0400 C.2       1 KOJ        -0.0429
      5 C5          0.8330  102.3070   25.0490 C.3       1 KOJ         0.1109
      6 C6         -0.4820  103.0220   24.9850 C.3       1 KOJ         0.0786
      7 O2          4.5880  100.3280   25.1350 O.3       1 KOJ        -0.3527
      8 O3          2.6080   99.7740   27.0740 O.3       1 KOJ        -0.3491
      9 O5          1.7600  102.5690   24.1510 O.3       1 KOJ        -0.3262
     10 O6         -0.2450  104.2180   24.2480 O.3       1 KOJ        -0.3905
     11 H1          3.6419  102.2317   23.3342 H         1 KOJ         0.0819
     12 H2          0.2586  101.1799   26.7770 H         1 KOJ         0.0313
     13 H3          1.2414  103.0978   25.6953 H         1 KOJ         0.0763
     14 H4         -0.8361  103.2618   25.9985 H         1 KOJ         0.0604
     15 H5         -1.2305  102.3997   24.4727 H         1 KOJ         0.0604
     16 H6          5.1311  100.6270   24.4152 H         1 KOJ         0.2360
     17 H7          3.4875   99.4442   26.9318 H         1 KOJ         0.2406
     18 H8          0.0678  103.9963   23.3788 H         1 KOJ         0.2097
@<TRIPOS>BOND
     1    1    2 2  
     2    1    9 1  
     3    2    3 1  
     4    2    7 1  
     5    3    4 2  
     6    3    8 1  
     7    4    5 1  
     8    5    6 1  
     9    5    9 1  
    10    6   10 1  
    11    1   11 1  
    12    4   12 1  
    13    5   13 1  
    14    6   14 1  
    15    6   15 1  
    16    7   16 1  
    17    8   17 1  
    18   10   18 1  
@<TRIPOS>SUBSTRUCTURE
     1 KOJ         1

