### 
### Created by X-TOOL on Mon Sep 10 21:13:29 2018
### 

@<TRIPOS>MOLECULE
5i3a_ligand
   14    14     1     0     0
SMALL
GAST_HUCK


@<TRIPOS>ATOM
      1 C1          2.2060   99.2890   26.0930 C.ar      1 HQE        -0.0417
      2 C2          1.4730   99.9740   25.1350 C.ar      1 HQE        -0.0417
      3 C3          2.1220  100.6040   24.0850 C.ar      1 HQE         0.0763
      4 O3          1.3840  101.2970   23.1080 O.3       1 HQE        -0.3404
      5 C4          3.5030  100.5550   23.9980 C.ar      1 HQE        -0.0417
      6 C5          4.2360   99.8750   24.9550 C.ar      1 HQE        -0.0417
      7 C6          3.5880   99.2430   26.0030 C.ar      1 HQE         0.0763
      8 O6          4.3400   98.5560   26.9710 O.3       1 HQE        -0.3404
      9 H1          1.6984   98.7904   26.9108 H         1 HQE         0.0516
     10 H2          0.3923  100.0165   25.2077 H         1 HQE         0.0516
     11 H3          1.9790  101.6664   22.4661 H         1 HQE         0.2444
     12 H4          4.0112  101.0503   23.1786 H         1 HQE         0.0516
     13 H5          5.3170   99.8371   24.8842 H         1 HQE         0.0516
     14 H6          4.8366   97.8632   26.5516 H         1 HQE         0.2444
@<TRIPOS>BOND
     1    1    2 ar 
     2    1    7 ar 
     3    2    3 ar 
     4    3    4 1  
     5    3    5 ar 
     6    5    6 ar 
     7    6    7 ar 
     8    7    8 1  
     9    1    9 1  
    10    2   10 1  
    11    4   11 1  
    12    5   12 1  
    13    6   13 1  
    14    8   14 1  
@<TRIPOS>SUBSTRUCTURE
     1 HQE         1

