### 
### Created by X-TOOL on Mon Sep 10 21:13:29 2018
### 

@<TRIPOS>MOLECULE
5i3m_ligand
   80    82     1     0     0
SMALL
GAST_HUCK


@<TRIPOS>ATOM
      1 O42       -23.8030  -15.8390  -10.9950 O.2       1 67F        -0.3974
      2 C41       -22.9480  -16.7090  -10.9000 C.2       1 67F         0.1733
      3 C43       -23.0380  -17.9350  -11.7620 C.3       1 67F         0.0257
      4 N40       -21.8340  -16.5500  -10.1720 N.am      1 67F        -0.2767
      5 C31       -21.3530  -15.2020   -9.8630 C.3       1 67F         0.1194
      6 C32       -20.3780  -14.8670  -11.0040 C.3       1 67F         0.1110
      7 O39       -21.0090  -14.9770  -12.2890 O.3       1 67F        -0.3867
      8 C33       -19.7480  -13.4670  -10.9080 C.3       1 67F         0.1116
      9 O38       -18.3960  -13.5540  -11.4020 O.3       1 67F        -0.3865
     10 C34       -19.7710  -12.7950   -9.5080 C.3       1 67F         0.1129
     11 C36       -20.5230  -11.4530   -9.5660 C.3       1 67F         0.0730
     12 O37       -20.7050  -10.8730   -8.2640 O.3       1 67F        -0.3924
     13 O35       -20.3830  -13.5430   -8.4360 O.3       1 67F        -0.3423
     14 C30       -20.5780  -14.9600   -8.5580 C.3       1 67F         0.1746
     15 N29       -21.1420  -15.4310   -7.2960 N.am      1 67F        -0.2543
     16 C27       -20.5660  -15.1490   -6.1040 C.2       1 67F         0.1381
     17 S28       -21.0510  -15.9610   -4.8690 S.2       1 67F        -0.3118
     18 N26       -19.5490  -14.2670   -5.9510 N.am      1 67F        -0.2810
     19 C25       -18.7320  -14.0500   -4.7450 C.3       1 67F         0.0537
     20 C24       -19.0310  -12.7160   -4.0680 C.3       1 67F         0.0536
     21 N16       -17.7720  -11.9380   -3.8670 N.am      1 67F        -0.2158
     22 C17       -17.4970  -11.1420   -5.1020 C.3       1 67F         0.0952
     23 C21       -17.9520   -9.6870   -5.2080 C.3       1 67F        -0.0150
     24 C23       -19.1110   -9.2220   -4.3100 C.3       1 67F        -0.0594
     25 C22       -18.3060   -9.4570   -6.6970 C.3       1 67F        -0.0594
     26 C18       -16.1280  -11.3130   -5.6550 C.2       1 67F         0.0569
     27 O20       -15.1720  -10.4860   -5.7190 O.co2     1 67F        -0.5670
     28 O19       -16.0390  -12.4100   -6.1170 O.co2     1 67F        -0.5670
     29 S13       -17.0010  -12.0770   -2.5210 S.o2      1 67F         0.0723
     30 O14       -17.0220  -10.8770   -1.7640 O.2       1 67F        -0.1500
     31 O15       -17.7590  -13.0360   -1.7580 O.2       1 67F        -0.1500
     32 C10       -15.4770  -12.6250   -2.5870 C.ar      1 67F         0.1085
     33 C09       -15.2770  -13.9920   -2.6890 C.ar      1 67F        -0.0345
     34 C08       -14.0010  -14.5410   -2.7360 C.ar      1 67F        -0.0522
     35 C11       -14.3420  -11.8110   -2.4850 C.ar      1 67F        -0.0345
     36 C12       -13.0470  -12.3510   -2.5090 C.ar      1 67F        -0.0522
     37 C07       -12.8740  -13.7290   -2.6460 C.ar      1 67F        -0.0178
     38 C01       -11.5280  -14.3380   -2.7340 C.ar      1 67F        -0.0179
     39 C06       -10.4440  -13.8090   -2.0480 C.ar      1 67F        -0.0540
     40 C05        -9.1850  -14.4120   -2.1980 C.ar      1 67F        -0.0612
     41 C04        -9.0010  -15.5300   -2.9970 C.ar      1 67F        -0.0617
     42 C03       -10.0790  -16.0490   -3.6790 C.ar      1 67F        -0.0612
     43 C02       -11.3210  -15.4510   -3.5510 C.ar      1 67F        -0.0540
     44 H1        -22.1910  -18.6013  -11.5414 H         1 67F         0.0467
     45 H2        -23.0072  -17.6413  -12.8216 H         1 67F         0.0467
     46 H3        -23.9817  -18.4607  -11.5545 H         1 67F         0.0467
     47 H4        -21.3329  -17.3495   -9.8409 H         1 67F         0.1857
     48 H5        -22.2164  -14.5205   -9.8732 H         1 67F         0.0632
     49 H6        -19.5631  -15.6043  -10.9564 H         1 67F         0.0645
     50 H7        -20.3803  -14.7639  -12.9686 H         1 67F         0.2100
     51 H8        -20.3187  -12.8099  -11.5806 H         1 67F         0.0647
     52 H9        -17.9861  -12.6985  -11.3521 H         1 67F         0.2100
     53 H10       -18.7239  -12.6066   -9.2286 H         1 67F         0.0647
     54 H11       -21.5109  -11.6204  -10.0198 H         1 67F         0.0584
     55 H12       -19.9477  -10.7517  -10.1883 H         1 67F         0.0584
     56 H13       -21.2070  -11.4689   -7.7205 H         1 67F         0.2095
     57 H14       -19.6007  -15.4517   -8.6725 H         1 67F         0.0917
     58 H15       -21.9788  -15.9782   -7.3130 H         1 67F         0.2000
     59 H16       -19.3287  -13.7005   -6.7451 H         1 67F         0.1973
     60 H17       -17.6698  -14.0703   -5.0303 H         1 67F         0.0558
     61 H18       -18.9354  -14.8613   -4.0306 H         1 67F         0.0558
     62 H19       -19.5009  -12.9030   -3.0911 H         1 67F         0.0501
     63 H20       -19.7185  -12.1351   -4.7004 H         1 67F         0.0501
     64 H21       -18.1391  -11.6449   -5.8401 H         1 67F         0.0685
     65 H22       -17.0878   -9.0578   -4.9487 H         1 67F         0.0332
     66 H23       -19.3194   -8.1590   -4.5014 H         1 67F         0.0234
     67 H24       -18.8337   -9.3569   -3.2541 H         1 67F         0.0234
     68 H25       -20.0088   -9.8175   -4.5323 H         1 67F         0.0234
     69 H26       -17.4705   -9.7930   -7.3286 H         1 67F         0.0234
     70 H27       -18.4883   -8.3860   -6.8694 H         1 67F         0.0234
     71 H28       -19.2108  -10.0286   -6.9513 H         1 67F         0.0234
     72 H29       -16.1373  -14.6500   -2.7333 H         1 67F         0.0637
     73 H30       -13.8822  -15.6131   -2.8439 H         1 67F         0.0624
     74 H31       -14.4667  -10.7388   -2.3852 H         1 67F         0.0637
     75 H32       -12.1844  -11.7003   -2.4215 H         1 67F         0.0624
     76 H33       -10.5673  -12.9439   -1.4065 H         1 67F         0.0624
     77 H34        -8.3336  -13.9920   -1.6748 H         1 67F         0.0618
     78 H35        -8.0228  -15.9890   -3.0836 H         1 67F         0.0618
     79 H36        -9.9558  -16.9203   -4.3121 H         1 67F         0.0618
     80 H37       -12.1596  -15.8600   -4.1028 H         1 67F         0.0624
@<TRIPOS>BOND
     1    1    2 2  
     2    2    3 1  
     3    2    4 am 
     4    4    5 1  
     5    5    6 1  
     6    5   14 1  
     7    6    7 1  
     8    6    8 1  
     9    8    9 1  
    10    8   10 1  
    11   10   11 1  
    12   10   13 1  
    13   11   12 1  
    14   13   14 1  
    15   14   15 1  
    16   15   16 am 
    17   16   17 2  
    18   16   18 am 
    19   18   19 1  
    20   19   20 1  
    21   20   21 1  
    22   21   22 1  
    23   21   29 am 
    24   22   23 1  
    25   22   26 1  
    26   23   24 1  
    27   23   25 1  
    28   26   27 ar 
    29   26   28 ar 
    30   29   30 2  
    31   29   31 2  
    32   29   32 1  
    33   32   33 ar 
    34   32   35 ar 
    35   33   34 ar 
    36   34   37 ar 
    37   35   36 ar 
    38   36   37 ar 
    39   37   38 1  
    40   38   39 ar 
    41   38   43 ar 
    42   39   40 ar 
    43   40   41 ar 
    44   41   42 ar 
    45   42   43 ar 
    46    3   44 1  
    47    3   45 1  
    48    3   46 1  
    49    4   47 1  
    50    5   48 1  
    51    6   49 1  
    52    7   50 1  
    53    8   51 1  
    54    9   52 1  
    55   10   53 1  
    56   11   54 1  
    57   11   55 1  
    58   12   56 1  
    59   14   57 1  
    60   15   58 1  
    61   18   59 1  
    62   19   60 1  
    63   19   61 1  
    64   20   62 1  
    65   20   63 1  
    66   22   64 1  
    67   23   65 1  
    68   24   66 1  
    69   24   67 1  
    70   24   68 1  
    71   25   69 1  
    72   25   70 1  
    73   25   71 1  
    74   33   72 1  
    75   34   73 1  
    76   35   74 1  
    77   36   75 1  
    78   39   76 1  
    79   40   77 1  
    80   41   78 1  
    81   42   79 1  
    82   43   80 1  
@<TRIPOS>SUBSTRUCTURE
     1 67F         1

