### 
### Created by X-TOOL on Mon Sep 10 21:13:29 2018
### 

@<TRIPOS>MOLECULE
5i3v_ligand
   62    64     1     0     0
SMALL
GAST_HUCK


@<TRIPOS>ATOM
      1 C18        65.4440   50.7560   13.1500 C.3       1 68M        -0.0600
      2 C16        65.2210   51.5290   11.8560 C.3       1 68M        -0.0359
      3 C19        66.4150   52.4750   11.6320 C.3       1 68M        -0.0600
      4 C20        63.9430   52.3560   11.9420 C.3       1 68M        -0.0600
      5 C15        65.1280   50.5300   10.6940 C.3       1 68M        -0.0278
      6 C14        63.8820   49.6170   10.6730 C.3       1 68M         0.0314
      7 N3         64.0490   48.7720    9.4810 N.am      1 68M        -0.2866
      8 C13        64.3360   47.4760    9.5030 C.2       1 68M         0.1807
      9 O1         64.4070   46.8360   10.5500 O.2       1 68M        -0.3966
     10 C12        64.5930   46.8170    8.1350 C.3       1 68M         0.0552
     11 C17        63.6250   45.6320    7.9010 C.3       1 68M        -0.0435
     12 C11        66.0790   46.4070    7.9310 C.3       1 68M         0.0058
     13 C4         66.9240   47.6420    8.1990 C.ar      1 68M         0.0133
     14 C3         66.9010   48.7660    7.3680 C.ar      1 68M         0.1147
     15 N1         67.6140   49.8660    7.6530 N.ar      1 68M        -0.2940
     16 N2         66.1420   48.7320    6.2680 N.pl3     1 68M        -0.3197
     17 C5         67.7410   47.6870    9.3240 C.ar      1 68M        -0.0398
     18 C1         68.4800   48.8490    9.6150 C.ar      1 68M        -0.0099
     19 C6         69.3290   48.9210   10.7410 C.ar      1 68M        -0.0461
     20 C2         68.4100   49.9290    8.7520 C.ar      1 68M         0.0237
     21 C9         69.1410   51.0790    9.0200 C.ar      1 68M        -0.0492
     22 C8         69.9690   51.1680   10.1450 C.ar      1 68M        -0.0542
     23 C7         70.0460   50.0900   11.0310 C.ar      1 68M        -0.0054
     24 C10        70.9580   50.1690   12.1120 C.ar      1 68M         0.0527
     25 N4         71.9600   49.2700   12.0310 N.ar      1 68M        -0.3001
     26 C24        72.9630   49.1890   12.9170 C.ar      1 68M         0.0022
     27 C23        72.9650   50.0720   13.9930 C.ar      1 68M        -0.0417
     28 C22        71.9590   51.0110   14.1220 C.ar      1 68M        -0.0409
     29 C21        70.9310   51.0800   13.1690 C.ar      1 68M        -0.0108
     30 C25        69.8360   52.0990   13.3530 C.3       1 68M        -0.0239
     31 H1         65.5125   51.4614   13.9913 H         1 68M         0.0235
     32 H2         66.3787   50.1806   13.0770 H         1 68M         0.0235
     33 H3         64.6019   50.0681   13.3160 H         1 68M         0.0235
     34 H4         66.2657   53.0394   10.6997 H         1 68M         0.0235
     35 H5         67.3411   51.8858   11.5596 H         1 68M         0.0235
     36 H6         66.4912   53.1756   12.4766 H         1 68M         0.0235
     37 H7         63.0840   51.6878   12.1021 H         1 68M         0.0235
     38 H8         63.8036   52.9141   11.0044 H         1 68M         0.0235
     39 H9         64.0193   53.0626   12.7815 H         1 68M         0.0235
     40 H10        66.0166   49.8830   10.7366 H         1 68M         0.0290
     41 H11        65.1377   51.1050    9.7563 H         1 68M         0.0290
     42 H12        62.9638   50.2177   10.5954 H         1 68M         0.0520
     43 H13        63.8402   48.9991   11.5821 H         1 68M         0.0520
     44 H14        63.9381   49.2061    8.5870 H         1 68M         0.1851
     45 H15        64.3670   47.5734    7.3690 H         1 68M         0.0557
     46 H16        63.8293   45.1801    6.9192 H         1 68M         0.0258
     47 H17        62.5871   45.9954    7.9285 H         1 68M         0.0258
     48 H18        63.7707   44.8784    8.6889 H         1 68M         0.0258
     49 H19        66.2362   46.0588    6.8995 H         1 68M         0.0451
     50 H20        66.3492   45.6052    8.6339 H         1 68M         0.0451
     51 H21        66.1085   49.5477    5.6400 H         1 68M         0.1789
     52 H22        65.5907   47.8901    6.0485 H         1 68M         0.1789
     53 H23        67.8086   46.8252    9.9780 H         1 68M         0.0653
     54 H24        69.4278   48.0591   11.3910 H         1 68M         0.0636
     55 H25        69.0689   51.9240    8.3449 H         1 68M         0.0599
     56 H26        70.5466   52.0669   10.3278 H         1 68M         0.0628
     57 H27        73.7518   48.4550   12.7985 H         1 68M         0.0766
     58 H28        73.7572   50.0231   14.7313 H         1 68M         0.0683
     59 H29        71.9640   51.6963   14.9619 H         1 68M         0.0671
     60 H30        69.1175   52.0188   12.5240 H         1 68M         0.0411
     61 H31        70.2726   53.1086   13.3634 H         1 68M         0.0411
     62 H32        69.3187   51.9134   14.3058 H         1 68M         0.0411
@<TRIPOS>BOND
     1    1    2 1  
     2    2    3 1  
     3    2    4 1  
     4    2    5 1  
     5    5    6 1  
     6    6    7 1  
     7    7    8 am 
     8    8    9 2  
     9    8   10 1  
    10   10   11 1  
    11   10   12 1  
    12   12   13 1  
    13   13   14 ar 
    14   13   17 ar 
    15   14   15 ar 
    16   14   16 1  
    17   15   20 ar 
    18   17   18 ar 
    19   18   19 ar 
    20   18   20 ar 
    21   19   23 ar 
    22   20   21 ar 
    23   21   22 ar 
    24   22   23 ar 
    25   23   24 1  
    26   24   25 ar 
    27   24   29 ar 
    28   25   26 ar 
    29   26   27 ar 
    30   27   28 ar 
    31   28   29 ar 
    32   29   30 1  
    33    1   31 1  
    34    1   32 1  
    35    1   33 1  
    36    3   34 1  
    37    3   35 1  
    38    3   36 1  
    39    4   37 1  
    40    4   38 1  
    41    4   39 1  
    42    5   40 1  
    43    5   41 1  
    44    6   42 1  
    45    6   43 1  
    46    7   44 1  
    47   10   45 1  
    48   11   46 1  
    49   11   47 1  
    50   11   48 1  
    51   12   49 1  
    52   12   50 1  
    53   16   51 1  
    54   16   52 1  
    55   17   53 1  
    56   19   54 1  
    57   21   55 1  
    58   22   56 1  
    59   26   57 1  
    60   27   58 1  
    61   28   59 1  
    62   30   60 1  
    63   30   61 1  
    64   30   62 1  
@<TRIPOS>SUBSTRUCTURE
     1 68M         1

