### 
### Created by X-TOOL on Mon Sep 10 21:13:27 2018
### 

@<TRIPOS>MOLECULE
5i3w_ligand
   54    59     1     0     0
SMALL
GAST_HUCK


@<TRIPOS>ATOM
      1 C16        64.3920   52.7440   12.6740 C.2       1 68L         0.0802
      2 O3         63.1140   52.8630   13.3620 O.3       1 68L        -0.2978
      3 C17        61.9980   52.6290   12.4880 C.3       1 68L         0.0995
      4 C18        62.1440   51.3350   11.6790 C.2       1 68L        -0.0626
      5 C19        63.4610   51.0790   11.2680 C.2       1 68L        -0.0835
      6 C15        64.6000   51.7230   11.7310 C.2       1 68L         0.0027
      7 C11        65.9050   51.4180   11.2850 C.ar      1 68L         0.0405
      8 C12        66.1720   50.4270   10.3330 C.ar      1 68L        -0.0363
      9 N1         66.9440   52.1300   11.7760 N.ar      1 68L        -0.2855
     10 C10        68.2020   51.9150   11.4080 C.ar      1 68L         0.0674
     11 C7         68.5250   50.9420   10.4700 C.ar      1 68L         0.1747
     12 O1         69.8300   50.7840   10.1540 O.3       1 68L        -0.2086
     13 C8         67.4860   50.1760    9.9260 C.ar      1 68L         0.0106
     14 C9         67.7700   49.1160    8.8780 C.3       1 68L         0.1105
     15 C13        67.3840   47.6970    9.3140 C.3       1 68L         0.0478
     16 O2         66.6610   47.1400    8.1850 O.3       1 68L        -0.3351
     17 C14        66.3470   48.1760    7.3370 C.cat     1 68L         0.3370
     18 N3         66.9030   49.3250    7.6870 N.pl3     1 68L        -0.2970
     19 N4         65.5330   48.0390    6.2900 N.pl3     1 68L        -0.2518
     20 C5         69.2220   49.1900    8.4460 C.ar      1 68L        -0.0076
     21 C6         69.6140   48.4220    7.3670 C.ar      1 68L        -0.0364
     22 C4         70.1590   49.9940    9.1050 C.ar      1 68L         0.1498
     23 C3         71.4720   50.0020    8.6540 C.ar      1 68L        -0.0027
     24 C2         71.8610   49.2170    7.5640 C.ar      1 68L        -0.0180
     25 C1         70.9170   48.4020    6.9190 C.ar      1 68L         0.0798
     26 N2         71.1650   47.6380    5.8370 N.am      1 68L        -0.2292
     27 C20        72.3510   47.2560    5.3440 C.2       1 68L         0.2511
     28 O4         73.4390   47.4540    5.8630 O.2       1 68L        -0.3674
     29 C21        72.2320   46.4750    4.0460 C.ar      1 68L         0.1284
     30 C25        73.1170   45.4610    3.6860 C.ar      1 68L        -0.0132
     31 C24        72.9270   44.7890    2.4760 C.ar      1 68L        -0.0227
     32 C23        71.8490   45.1520    1.6680 C.ar      1 68L         0.0731
     33 CL1        71.5190   44.3880    0.1430 Cl        1 68L        -0.0569
     34 C22        71.0060   46.1650    2.0890 C.ar      1 68L         0.0309
     35 N5         71.2010   46.7880    3.2380 N.ar      1 68L        -0.2754
     36 H1         65.1915   53.4506   12.8916 H         1 68L         0.1174
     37 H2         61.9148   53.4741   11.7888 H         1 68L         0.0791
     38 H3         61.0829   52.5637   13.0948 H         1 68L         0.0791
     39 H4         61.3071   50.6784   11.4460 H         1 68L         0.0558
     40 H5         63.6025   50.3036   10.5165 H         1 68L         0.0387
     41 H6         65.3566   49.8518    9.9095 H         1 68L         0.0727
     42 H7         68.9931   52.5109   11.8485 H         1 68L         0.0852
     43 H8         66.7421   47.7281   10.2067 H         1 68L         0.0411
     44 H9         68.2830   47.1008    9.5294 H         1 68L         0.0411
     45 H10        66.7578   50.2255    7.2084 H         1 68L         0.3029
     46 H11        65.3306   48.8482    5.6857 H         1 68L         0.3201
     47 H12        65.1066   47.1240    6.0854 H         1 68L         0.3201
     48 H13        68.8738   47.8163    6.8568 H         1 68L         0.0550
     49 H14        72.2053   50.6249    9.1533 H         1 68L         0.0625
     50 H15        72.8881   49.2377    7.2181 H         1 68L         0.0711
     51 H16        70.3609   47.3147    5.3381 H         1 68L         0.2255
     52 H17        73.9427   45.1967    4.3367 H         1 68L         0.0762
     53 H18        73.6047   44.0000    2.1705 H         1 68L         0.0753
     54 H19        70.1687   46.4535    1.4638 H         1 68L         0.0847
@<TRIPOS>BOND
     1    1    2 1  
     2    1    6 2  
     3    2    3 1  
     4    3    4 1  
     5    4    5 2  
     6    5    6 1  
     7    6    7 1  
     8    7    8 ar 
     9    7    9 ar 
    10    8   13 ar 
    11    9   10 ar 
    12   10   11 ar 
    13   11   12 1  
    14   11   13 ar 
    15   12   22 1  
    16   13   14 1  
    17   14   15 1  
    18   14   18 1  
    19   14   20 1  
    20   15   16 1  
    21   16   17 1  
    22   17   18 ar 
    23   17   19 ar 
    24   20   21 ar 
    25   20   22 ar 
    26   21   25 ar 
    27   22   23 ar 
    28   23   24 ar 
    29   24   25 ar 
    30   25   26 1  
    31   26   27 am 
    32   27   28 2  
    33   27   29 1  
    34   29   30 ar 
    35   29   35 ar 
    36   30   31 ar 
    37   31   32 ar 
    38   32   33 1  
    39   32   34 ar 
    40   34   35 ar 
    41    1   36 1  
    42    3   37 1  
    43    3   38 1  
    44    4   39 1  
    45    5   40 1  
    46    8   41 1  
    47   10   42 1  
    48   15   43 1  
    49   15   44 1  
    50   18   45 1  
    51   19   46 1  
    52   19   47 1  
    53   21   48 1  
    54   23   49 1  
    55   24   50 1  
    56   26   51 1  
    57   30   52 1  
    58   31   53 1  
    59   34   54 1  
@<TRIPOS>SUBSTRUCTURE
     1 68L         1

