### 
### Created by X-TOOL on Mon Sep 10 21:13:27 2018
### 

@<TRIPOS>MOLECULE
5i3x_ligand
   83    87     1     0     0
SMALL
GAST_HUCK


@<TRIPOS>ATOM
      1 C16        13.9700  -39.0770   13.7030 C.3       1 68J        -0.0600
      2 C15        12.5730  -39.2760   13.1610 C.3       1 68J        -0.0359
      3 C17        11.8090  -40.1600   14.1490 C.3       1 68J        -0.0600
      4 C18        11.9150  -37.9200   13.0200 C.3       1 68J        -0.0600
      5 C14        12.6560  -39.9450   11.7790 C.3       1 68J        -0.0278
      6 C13        11.3740  -40.6290   11.2720 C.3       1 68J         0.0314
      7 N2         11.7000  -41.2800    9.9930 N.am      1 68J        -0.2868
      8 C12        12.0590  -42.5570    9.9160 C.2       1 68J         0.1779
      9 O1         12.1170  -43.2800   10.9040 O.2       1 68J        -0.3969
     10 C11        12.4360  -43.0890    8.5110 C.3       1 68J         0.0467
     11 C10        13.9660  -43.2880    8.2860 C.3       1 68J         0.0032
     12 C8         14.6520  -41.9750    8.6810 C.ar      1 68J         0.0128
     13 C7         14.5290  -40.8160    7.9010 C.ar      1 68J         0.1144
     14 N1         15.1000  -39.6670    8.3160 N.ar      1 68J        -0.2943
     15 N3         13.8310  -40.8370    6.7330 N.pl3     1 68J        -0.3198
     16 C9         15.3900  -41.9350    9.8780 C.ar      1 68J        -0.0401
     17 C5         15.9860  -40.7340   10.2740 C.ar      1 68J        -0.0107
     18 C6         16.7520  -40.6430   11.4470 C.ar      1 68J        -0.0477
     19 C4         15.8190  -39.6100    9.4620 C.ar      1 68J         0.0233
     20 C3         16.4050  -38.3950    9.8540 C.ar      1 68J        -0.0496
     21 C2         17.1600  -38.3170   11.0260 C.ar      1 68J        -0.0554
     22 C1         17.3340  -39.4340   11.8450 C.ar      1 68J        -0.0180
     23 C19        18.1660  -39.3800   12.9830 C.ar      1 68J        -0.0041
     24 C24        17.8580  -38.6990   14.1530 C.ar      1 68J        -0.0535
     25 C23        18.7780  -38.7030   15.2100 C.ar      1 68J        -0.0616
     26 C22        20.0030  -39.3600   15.1070 C.ar      1 68J        -0.0610
     27 C21        20.3340  -40.0490   13.9470 C.ar      1 68J        -0.0462
     28 C20        19.4240  -40.0500   12.8900 C.ar      1 68J         0.0319
     29 C25        19.7100  -40.7020   11.6450 C.1       1 68J        -0.0660
     30 C26        19.9140  -41.2390   10.5880 C.1       1 68J        -0.0947
     31 C27        20.1650  -41.8730    9.2860 C.3       1 68J         0.0352
     32 C28        20.0530  -40.7670    8.1640 C.3       1 68J         0.0634
     33 C29        20.7720  -39.4180    8.3820 C.3       1 68J        -0.0238
     34 C30        19.2500  -39.4800    8.3970 C.3       1 68J        -0.0238
     35 N4         19.9930  -41.2360    6.7710 N.am      1 68J        -0.2799
     36 C31        21.1000  -41.3920    6.0620 C.2       1 68J         0.2024
     37 O2         22.2210  -41.2300    6.5370 O.2       1 68J        -0.3866
     38 C32        20.8730  -41.8820    4.6270 C.ar      1 68J         0.0457
     39 C33        21.6970  -42.8540    4.0890 C.ar      1 68J        -0.0437
     40 C34        21.4880  -43.3150    2.7960 C.ar      1 68J        -0.0223
     41 C35        20.4440  -42.8090    2.0160 C.ar      1 68J         0.1375
     42 F1         20.2630  -43.2680    0.7440 F         1 68J        -0.1794
     43 C36        19.6200  -41.8130    2.5440 C.ar      1 68J        -0.0223
     44 C37        19.8340  -41.3560    3.8490 C.ar      1 68J        -0.0437
     45 H1         13.9149  -38.5985   14.6919 H         1 68J         0.0235
     46 H2         14.5417  -38.4352   13.0165 H         1 68J         0.0235
     47 H3         14.4700  -40.0524   13.7951 H         1 68J         0.0235
     48 H4         10.7856  -40.3227   13.7799 H         1 68J         0.0235
     49 H5         11.7704  -39.6646   15.1303 H         1 68J         0.0235
     50 H6         12.3216  -41.1283   14.2470 H         1 68J         0.0235
     51 H7         12.4851  -37.3084   12.3052 H         1 68J         0.0235
     52 H8         11.8960  -37.4181   13.9986 H         1 68J         0.0235
     53 H9         10.8858  -38.0482   12.6536 H         1 68J         0.0235
     54 H10        13.4472  -40.7079   11.8234 H         1 68J         0.0290
     55 H11        12.9336  -39.1709   11.0485 H         1 68J         0.0290
     56 H12        10.5823  -39.8802   11.1219 H         1 68J         0.0520
     57 H13        11.0350  -41.3801   12.0007 H         1 68J         0.0520
     58 H14        11.6495  -40.7419    9.1516 H         1 68J         0.1851
     59 H15        12.0687  -42.3722    7.7619 H         1 68J         0.0524
     60 H16        11.9380  -44.0590    8.3655 H         1 68J         0.0524
     61 H17        14.1659  -43.5153    7.2285 H         1 68J         0.0448
     62 H18        14.3362  -44.1115    8.9143 H         1 68J         0.0448
     63 H19        13.7469  -39.9800    6.1678 H         1 68J         0.1788
     64 H20        13.3868  -41.7099    6.4141 H         1 68J         0.1788
     65 H21        15.4954  -42.8258   10.4867 H         1 68J         0.0651
     66 H22        16.8957  -41.5274   12.0571 H         1 68J         0.0627
     67 H23        16.2700  -37.5108    9.2417 H         1 68J         0.0599
     68 H24        17.6180  -37.3747   11.3041 H         1 68J         0.0625
     69 H25        16.9165  -38.1702   14.2478 H         1 68J         0.0620
     70 H26        18.5314  -38.1833   16.1288 H         1 68J         0.0617
     71 H27        20.7008  -39.3332   15.9361 H         1 68J         0.0615
     72 H28        21.2787  -40.5743   13.8651 H         1 68J         0.0629
     73 H29        19.4191  -42.6613    9.1065 H         1 68J         0.0423
     74 H30        21.1732  -42.3128    9.2750 H         1 68J         0.0423
     75 H31        21.2943  -38.9317    7.5449 H         1 68J         0.0291
     76 H32        21.3240  -39.2336    9.3154 H         1 68J         0.0291
     77 H33        18.7049  -39.3374    9.3417 H         1 68J         0.0291
     78 H34        18.6751  -39.0355    7.5712 H         1 68J         0.0291
     79 H35        19.1065  -41.4391    6.3552 H         1 68J         0.1850
     80 H36        22.5107  -43.2582    4.6802 H         1 68J         0.0659
     81 H37        22.1421  -44.0763    2.3865 H         1 68J         0.0616
     82 H38        18.8182  -41.3958    1.9456 H         1 68J         0.0616
     83 H39        19.1898  -40.5879    4.2616 H         1 68J         0.0659
@<TRIPOS>BOND
     1    1    2 1  
     2    2    3 1  
     3    2    4 1  
     4    2    5 1  
     5    5    6 1  
     6    6    7 1  
     7    7    8 am 
     8    8    9 2  
     9    8   10 1  
    10   10   11 1  
    11   11   12 1  
    12   12   13 ar 
    13   12   16 ar 
    14   13   14 ar 
    15   13   15 1  
    16   14   19 ar 
    17   16   17 ar 
    18   17   18 ar 
    19   17   19 ar 
    20   18   22 ar 
    21   19   20 ar 
    22   20   21 ar 
    23   21   22 ar 
    24   22   23 1  
    25   23   24 ar 
    26   23   28 ar 
    27   24   25 ar 
    28   25   26 ar 
    29   26   27 ar 
    30   27   28 ar 
    31   28   29 1  
    32   29   30 3  
    33   30   31 1  
    34   31   32 1  
    35   32   33 1  
    36   32   34 1  
    37   32   35 1  
    38   33   34 1  
    39   35   36 am 
    40   36   37 2  
    41   36   38 1  
    42   38   39 ar 
    43   38   44 ar 
    44   39   40 ar 
    45   40   41 ar 
    46   41   42 1  
    47   41   43 ar 
    48   43   44 ar 
    49    1   45 1  
    50    1   46 1  
    51    1   47 1  
    52    3   48 1  
    53    3   49 1  
    54    3   50 1  
    55    4   51 1  
    56    4   52 1  
    57    4   53 1  
    58    5   54 1  
    59    5   55 1  
    60    6   56 1  
    61    6   57 1  
    62    7   58 1  
    63   10   59 1  
    64   10   60 1  
    65   11   61 1  
    66   11   62 1  
    67   15   63 1  
    68   15   64 1  
    69   16   65 1  
    70   18   66 1  
    71   20   67 1  
    72   21   68 1  
    73   24   69 1  
    74   25   70 1  
    75   26   71 1  
    76   27   72 1  
    77   31   73 1  
    78   31   74 1  
    79   33   75 1  
    80   33   76 1  
    81   34   77 1  
    82   34   78 1  
    83   35   79 1  
    84   39   80 1  
    85   40   81 1  
    86   43   82 1  
    87   44   83 1  
@<TRIPOS>SUBSTRUCTURE
     1 68J         1

