### 
### Created by X-TOOL on Mon Sep 10 21:13:28 2018
### 

@<TRIPOS>MOLECULE
5i3y_ligand
   86    90     1     0     0
SMALL
GAST_HUCK


@<TRIPOS>ATOM
      1 C16        13.6080   37.3880  -12.7460 C.3       1 68K        -0.0600
      2 C15        12.3760   38.2950  -12.6800 C.3       1 68K        -0.0359
      3 C17        12.3710   39.3030  -13.8400 C.3       1 68K        -0.0600
      4 C18        11.1600   37.3950  -12.7420 C.3       1 68K        -0.0600
      5 C14        12.3660   39.0550  -11.3530 C.3       1 68K        -0.0278
      6 C13        11.1200   39.9290  -11.1430 C.3       1 68K         0.0314
      7 N2         11.3270   40.7490   -9.9600 N.am      1 68K        -0.2868
      8 C12        11.5800   42.0350  -10.0380 C.2       1 68K         0.1779
      9 O1         11.6360   42.6230  -11.1050 O.2       1 68K        -0.3969
     10 C11        11.8460   42.7400   -8.7090 C.3       1 68K         0.0467
     11 C10        13.3350   43.0010   -8.4170 C.3       1 68K         0.0031
     12 C8         14.1350   41.7140   -8.6100 C.ar      1 68K         0.0124
     13 C7         14.1220   40.6110   -7.7390 C.ar      1 68K         0.1140
     14 N1         14.8570   39.5230   -8.0270 N.ar      1 68K        -0.2949
     15 N3         13.3860   40.6330   -6.6210 N.pl3     1 68K        -0.3200
     16 C9         14.9330   41.6680   -9.7600 C.ar      1 68K        -0.0407
     17 C5         15.6770   40.5340  -10.0470 C.ar      1 68K        -0.0121
     18 C6         16.4890   40.4830  -11.1910 C.ar      1 68K        -0.0499
     19 C4         15.6070   39.4570   -9.1580 C.ar      1 68K         0.0225
     20 C3         16.3400   38.3070   -9.4570 C.ar      1 68K        -0.0502
     21 C2         17.1560   38.2770  -10.5910 C.ar      1 68K        -0.0568
     22 C1         17.2190   39.3360  -11.4850 C.ar      1 68K        -0.0227
     23 C19        18.0870   39.2660  -12.6020 C.ar      1 68K        -0.0166
     24 C24        17.8270   38.5680  -13.7870 C.ar      1 68K        -0.0607
     25 C23        18.7800   38.5570  -14.8310 C.ar      1 68K        -0.0683
     26 C22        20.0020   39.2310  -14.6990 C.ar      1 68K        -0.0686
     27 C21        20.2710   39.9170  -13.5030 C.ar      1 68K        -0.0593
     28 C20        19.3230   39.9240  -12.4540 C.ar      1 68K        -0.0324
     29 C25        19.7200   40.7280  -11.1780 C.3       1 68K        -0.0080
     30 C26        20.2870   39.8310  -10.0730 C.3       1 68K        -0.0006
     31 C27        20.1750   40.4290   -8.6690 C.ar      1 68K         0.0147
     32 C28        18.9320   40.5880   -8.0700 C.ar      1 68K        -0.0453
     33 C29        18.8480   41.1310   -6.7920 C.ar      1 68K        -0.0274
     34 N4         21.2720   40.7740   -7.9840 N.ar      1 68K        -0.3135
     35 C31        21.2380   41.2950   -6.7560 C.ar      1 68K         0.0228
     36 C30        20.0090   41.4850   -6.1020 C.ar      1 68K         0.0866
     37 N5         19.8600   42.0040   -4.8770 N.am      1 68K        -0.2308
     38 C32        20.8430   42.4090   -4.0700 C.2       1 68K         0.2295
     39 O2         22.0360   42.3460   -4.3140 O.2       1 68K        -0.3749
     40 C33        20.4500   42.9600   -2.7070 C.ar      1 68K         0.0518
     41 C34        19.3040   42.5480   -2.0440 C.ar      1 68K        -0.0433
     42 C35        19.0070   43.0610   -0.7850 C.ar      1 68K        -0.0223
     43 C36        19.8540   43.9920   -0.2000 C.ar      1 68K         0.1375
     44 F1         19.5640   44.4900    1.0180 F         1 68K        -0.1794
     45 C37        21.0190   44.4010   -0.8540 C.ar      1 68K        -0.0223
     46 C38        21.3160   43.8780   -2.1070 C.ar      1 68K        -0.0433
     47 H1         13.6115   36.8433  -13.7017 H         1 68K         0.0235
     48 H2         13.5789   36.6688  -11.9142 H         1 68K         0.0235
     49 H3         14.5186   38.0003  -12.6697 H         1 68K         0.0235
     50 H4         11.4773   39.9402  -13.7681 H         1 68K         0.0235
     51 H5         12.3587   38.7607  -14.7970 H         1 68K         0.0235
     52 H6         13.2734   39.9296  -13.7852 H         1 68K         0.0235
     53 H7         11.1868   36.6841  -11.9030 H         1 68K         0.0235
     54 H8         11.1620   36.8409  -13.6922 H         1 68K         0.0235
     55 H9         10.2478   38.0061  -12.6758 H         1 68K         0.0235
     56 H10        13.2534   39.7041  -11.3194 H         1 68K         0.0290
     57 H11        12.4164   38.3222  -10.5342 H         1 68K         0.0290
     58 H12        10.2370   39.2887  -11.0009 H         1 68K         0.0520
     59 H13        10.9673   40.5748  -12.0203 H         1 68K         0.0520
     60 H14        11.2750   40.3197   -9.0583 H         1 68K         0.1851
     61 H15        11.4409   42.1144   -7.9000 H         1 68K         0.0524
     62 H16        11.3227   43.7075   -8.7215 H         1 68K         0.0524
     63 H17        13.4480   43.3487   -7.3795 H         1 68K         0.0448
     64 H18        13.7122   43.7718   -9.1052 H         1 68K         0.0448
     65 H19        13.3838   39.8191   -5.9898 H         1 68K         0.1787
     66 H20        12.8219   41.4638   -6.3921 H         1 68K         0.1787
     67 H21        14.9690   42.5214  -10.4275 H         1 68K         0.0648
     68 H22        16.5475   41.3424  -11.8491 H         1 68K         0.0612
     69 H23        16.2763   37.4391   -8.8107 H         1 68K         0.0598
     70 H24        17.7601   37.3967  -10.7784 H         1 68K         0.0618
     71 H25        16.8912   38.0337  -13.9046 H         1 68K         0.0602
     72 H26        18.5627   38.0196  -15.7470 H         1 68K         0.0560
     73 H27        20.7264   39.2230  -15.5054 H         1 68K         0.0598
     74 H28        21.2107   40.4440  -13.3836 H         1 68K         0.0556
     75 H29        18.8269   41.2413  -10.7922 H         1 68K         0.0453
     76 H30        20.4811   41.4731  -11.4529 H         1 68K         0.0453
     77 H31        21.3502   39.6478  -10.2873 H         1 68K         0.0449
     78 H32        19.7403   38.8766  -10.0873 H         1 68K         0.0449
     79 H33        18.0319   40.2905   -8.5957 H         1 68K         0.0612
     80 H34        17.8784   41.2797   -6.3306 H         1 68K         0.0608
     81 H35        22.1617   41.5726   -6.2613 H         1 68K         0.0684
     82 H36        18.9250   42.0969   -4.5346 H         1 68K         0.2254
     83 H37        18.6398   41.8267   -2.5062 H         1 68K         0.0659
     84 H38        18.1156   42.7340   -0.2620 H         1 68K         0.0616
     85 H39        21.6846   45.1191   -0.3888 H         1 68K         0.0616
     86 H40        22.2211   44.1828   -2.6198 H         1 68K         0.0659
@<TRIPOS>BOND
     1    1    2 1  
     2    2    3 1  
     3    2    4 1  
     4    2    5 1  
     5    5    6 1  
     6    6    7 1  
     7    7    8 am 
     8    8    9 2  
     9    8   10 1  
    10   10   11 1  
    11   11   12 1  
    12   12   13 ar 
    13   12   16 ar 
    14   13   14 ar 
    15   13   15 1  
    16   14   19 ar 
    17   16   17 ar 
    18   17   18 ar 
    19   17   19 ar 
    20   18   22 ar 
    21   19   20 ar 
    22   20   21 ar 
    23   21   22 ar 
    24   22   23 1  
    25   23   24 ar 
    26   23   28 ar 
    27   24   25 ar 
    28   25   26 ar 
    29   26   27 ar 
    30   27   28 ar 
    31   28   29 1  
    32   29   30 1  
    33   30   31 1  
    34   31   32 ar 
    35   31   34 ar 
    36   32   33 ar 
    37   33   36 ar 
    38   34   35 ar 
    39   35   36 ar 
    40   36   37 1  
    41   37   38 am 
    42   38   39 2  
    43   38   40 1  
    44   40   41 ar 
    45   40   46 ar 
    46   41   42 ar 
    47   42   43 ar 
    48   43   44 1  
    49   43   45 ar 
    50   45   46 ar 
    51    1   47 1  
    52    1   48 1  
    53    1   49 1  
    54    3   50 1  
    55    3   51 1  
    56    3   52 1  
    57    4   53 1  
    58    4   54 1  
    59    4   55 1  
    60    5   56 1  
    61    5   57 1  
    62    6   58 1  
    63    6   59 1  
    64    7   60 1  
    65   10   61 1  
    66   10   62 1  
    67   11   63 1  
    68   11   64 1  
    69   15   65 1  
    70   15   66 1  
    71   16   67 1  
    72   18   68 1  
    73   20   69 1  
    74   21   70 1  
    75   24   71 1  
    76   25   72 1  
    77   26   73 1  
    78   27   74 1  
    79   29   75 1  
    80   29   76 1  
    81   30   77 1  
    82   30   78 1  
    83   32   79 1  
    84   33   80 1  
    85   35   81 1  
    86   37   82 1  
    87   41   83 1  
    88   42   84 1  
    89   45   85 1  
    90   46   86 1  
@<TRIPOS>SUBSTRUCTURE
     1 68K         1

