### 
### Created by X-TOOL on Mon Sep 10 21:13:25 2018
### 

@<TRIPOS>MOLECULE
5i40_ligand
   19    20     1     0     0
SMALL
GAST_HUCK


@<TRIPOS>ATOM
      1 C4        -16.7130    6.0720    9.2980 C.2       1 67N        -0.0687
      2 C5        -17.3090    6.5160   10.5520 C.2       1 67N        -0.0486
      3 C6        -16.8580    7.2700   11.6580 C.2       1 67N        -0.0736
      4 C11       -19.3830    5.3980    9.8940 C.2       1 67N         0.2305
      5 C7        -17.8840    7.3640   12.5270 C.2       1 67N         0.0183
      6 C10       -18.6420    6.1600   10.8200 C.2       1 67N         0.1221
      7 N2        -18.7740    5.0290    8.7510 N.am      1 67N        -0.2244
      8 C3        -17.4770    5.3540    8.4550 C.2       1 67N         0.0383
      9 C1        -19.5460    4.2530    7.7820 C.3       1 67N         0.0518
     10 N8        -18.9660    6.6930   12.0360 N.pl3     1 67N        -0.2846
     11 O12       -20.5550    5.0740   10.1180 O.2       1 67N        -0.4117
     12 H1        -15.6804    6.3142    9.0510 H         1 67N         0.0250
     13 H2        -15.8642    7.6968   11.7852 H         1 67N         0.0276
     14 H3        -17.8540    7.8951   13.4772 H         1 67N         0.0892
     15 H4        -17.0515    5.0214    7.5093 H         1 67N         0.1025
     16 H5        -20.5593    4.0809    8.1740 H         1 67N         0.0586
     17 H6        -19.0509    3.2862    7.6085 H         1 67N         0.0586
     18 H7        -19.6089    4.8080    6.8344 H         1 67N         0.0586
     19 H8        -19.8784    6.6029   12.5054 H         1 67N         0.2304
@<TRIPOS>BOND
     1    1    2 1  
     2    1    8 2  
     3    2    3 1  
     4    2    6 2  
     5    3    5 2  
     6    6    4 1  
     7    4    7 am 
     8    4   11 2  
     9    5   10 1  
    10    6   10 1  
    11    7    8 1  
    12    7    9 1  
    13    1   12 1  
    14    3   13 1  
    15    5   14 1  
    16    8   15 1  
    17    9   16 1  
    18    9   17 1  
    19    9   18 1  
    20   10   19 1  
@<TRIPOS>SUBSTRUCTURE
     1 67N         1

