### 
### Created by X-TOOL on Mon Sep 10 21:13:29 2018
### 

@<TRIPOS>MOLECULE
5i43_ligand
  102   105     1     0     0
SMALL
GAST_HUCK


@<TRIPOS>ATOM
      1 O55         3.1810    5.2930   38.4870 O.2       1 67M        -0.3974
      2 C54         2.3550    5.9610   37.8850 C.2       1 67M         0.1734
      3 C56         2.3470    5.9640   36.3780 C.3       1 67M         0.0257
      4 N53         1.4330    6.7000   38.5230 N.am      1 67M        -0.2763
      5 C35         1.4200    6.9310   39.9690 C.3       1 67M         0.1260
      6 C36         0.7730    5.8520   40.8560 C.3       1 67M         0.1479
      7 O49         1.1180    4.5300   40.3920 O.3       1 67M        -0.2681
      8 C50         0.1990    3.9790   39.3890 C.2       1 67M         0.2310
      9 O52         0.3100    4.2690   38.2150 O.2       1 67M        -0.3707
     10 C51        -0.8830    3.0540   39.7940 C.3       1 67M         0.0372
     11 C37         1.1890    6.2320   42.3070 C.3       1 67M         0.1488
     12 O45         0.9600    5.2000   43.2980 O.3       1 67M        -0.2679
     13 C46         2.0860    4.3430   43.7660 C.2       1 67M         0.2310
     14 C48         3.5390    4.7650   43.9050 C.3       1 67M         0.0372
     15 O47         1.7920    3.2020   44.0870 O.2       1 67M        -0.3707
     16 C38         0.5130    7.5860   42.6900 C.3       1 67M         0.1227
     17 C40         0.8770    8.0790   44.1130 C.3       1 67M         0.1058
     18 O41         2.2720    8.4560   44.1780 O.3       1 67M        -0.2743
     19 C42         3.2130    8.3030   45.3080 C.2       1 67M         0.2307
     20 C44         2.7740    8.5660   46.7330 C.3       1 67M         0.0372
     21 O43         4.3750    8.0060   45.0200 O.2       1 67M        -0.3707
     22 O39         0.8470    8.6040   41.6960 O.3       1 67M        -0.3400
     23 C34         0.6720    8.2200   40.3030 C.3       1 67M         0.1852
     24 O33         1.0860    9.1970   39.3460 O.3       1 67M        -0.3488
     25 C32        -0.0060   10.0020   38.8980 C.3       1 67M         0.0535
     26 C31         0.3410   10.6590   37.5730 C.3       1 67M         0.0011
     27 C30         0.1720    9.7110   36.3860 C.3       1 67M         0.0775
     28 N28         1.3880    9.7990   35.5640 N.pl3     1 67M        -0.1811
     29 N27         1.2010   10.2960   34.2750 N.2       1 67M        -0.1019
     30 N26         2.4810   10.2730   33.6930 N.2       1 67M        -0.2249
     31 C29         2.6850    9.5130   35.7600 C.2       1 67M         0.0709
     32 C25         3.3790    9.8250   34.5870 C.2       1 67M         0.0557
     33 C24         4.8660    9.7150   34.3210 C.3       1 67M         0.0663
     34 N16         5.6210   10.9500   34.7550 N.am      1 67M        -0.2101
     35 C17         5.9960   12.0490   33.8260 C.3       1 67M         0.0967
     36 C21         4.8610   12.8130   33.1130 C.3       1 67M        -0.0148
     37 C23         5.5130   13.8820   32.2160 C.3       1 67M        -0.0594
     38 C22         3.8190   13.4720   34.0310 C.3       1 67M        -0.0594
     39 C18         7.0090   11.5240   32.8190 C.2       1 67M         0.0570
     40 O20         6.8440   10.4910   32.1140 O.co2     1 67M        -0.5670
     41 O19         8.0580   12.1150   32.6860 O.co2     1 67M        -0.5670
     42 S13         6.2150   11.0300   36.1830 S.o2      1 67M         0.0735
     43 O14         6.2290   12.3590   36.7640 O.2       1 67M        -0.1499
     44 O15         5.5080   10.0520   36.9640 O.2       1 67M        -0.1499
     45 C10         7.7350   10.4280   36.0340 C.ar      1 67M         0.1086
     46 C09         7.9070    9.0370   35.9330 C.ar      1 67M        -0.0345
     47 C08         9.1730    8.4510   35.7970 C.ar      1 67M        -0.0522
     48 C11         8.9060   11.2430   36.0230 C.ar      1 67M        -0.0345
     49 C12        10.1970   10.6680   35.8890 C.ar      1 67M        -0.0522
     50 C07        10.3380    9.2480   35.7790 C.ar      1 67M        -0.0178
     51 C01        11.6750    8.5820   35.7070 C.ar      1 67M        -0.0179
     52 C06        11.9120    7.4200   35.0060 C.ar      1 67M        -0.0540
     53 C05        13.1900    6.8410   34.9820 C.ar      1 67M        -0.0612
     54 C04        14.2390    7.3850   35.7290 C.ar      1 67M        -0.0617
     55 C03        14.0010    8.5030   36.4610 C.ar      1 67M        -0.0612
     56 C02        12.7410    9.0960   36.4470 C.ar      1 67M        -0.0540
     57 H1          1.5393    6.6177   36.0169 H         1 67M         0.0467
     58 H2          2.1824    4.9405   36.0101 H         1 67M         0.0467
     59 H3          3.3134    6.3361   36.0069 H         1 67M         0.0467
     60 H4          0.7089    7.1195   37.9756 H         1 67M         0.1857
     61 H5          2.4700    7.0337   40.2804 H         1 67M         0.0637
     62 H6         -0.3216    5.9354   40.7864 H         1 67M         0.0705
     63 H7         -1.4595    2.7533   38.9068 H         1 67M         0.0483
     64 H8         -1.5484    3.5590   40.5097 H         1 67M         0.0483
     65 H9         -0.4454    2.1622   40.2664 H         1 67M         0.0483
     66 H10         2.2755    6.4030   42.2908 H         1 67M         0.0707
     67 H11         4.1338    3.9159   44.2728 H         1 67M         0.0483
     68 H12         3.6118    5.5997   44.6177 H         1 67M         0.0483
     69 H13         3.9233    5.0847   42.9252 H         1 67M         0.0483
     70 H14        -0.5756    7.4298   42.6659 H         1 67M         0.0654
     71 H15         0.6864    7.2717   44.8354 H         1 67M         0.0640
     72 H16         0.2546    8.9505   44.3643 H         1 67M         0.0640
     73 H17         3.6203    8.3956   47.4147 H         1 67M         0.0483
     74 H18         1.9500    7.8858   46.9943 H         1 67M         0.0483
     75 H19         2.4329    9.6077   46.8253 H         1 67M         0.0483
     76 H20        -0.4039    8.0440   40.1565 H         1 67M         0.0935
     77 H21        -0.2157   10.7804   39.6464 H         1 67M         0.0562
     78 H22        -0.8960    9.3687   38.7683 H         1 67M         0.0562
     79 H23         1.3878   10.9949   37.6095 H         1 67M         0.0316
     80 H24        -0.3179   11.5276   37.4270 H         1 67M         0.0316
     81 H25        -0.7041   10.0086   35.7911 H         1 67M         0.0648
     82 H26         0.0377    8.6804   36.7463 H         1 67M         0.0648
     83 H27         3.1203    9.1088   36.6727 H         1 67M         0.0899
     84 H28         5.0220    9.5663   33.2423 H         1 67M         0.0596
     85 H29         5.2603    8.8481   34.8715 H         1 67M         0.0596
     86 H30         6.5108   12.7996   34.4438 H         1 67M         0.0687
     87 H31         4.3248   12.0940   32.4762 H         1 67M         0.0332
     88 H32         4.7293   14.4475   31.6907 H         1 67M         0.0234
     89 H33         6.1681   13.3931   31.4799 H         1 67M         0.0234
     90 H34         6.1072   14.5688   32.8367 H         1 67M         0.0234
     91 H35         3.3560   12.7054   34.6697 H         1 67M         0.0234
     92 H36         3.0440   13.9556   33.4182 H         1 67M         0.0234
     93 H37         4.3113   14.2265   34.6621 H         1 67M         0.0234
     94 H38         7.0327    8.3968   35.9612 H         1 67M         0.0637
     95 H39         9.2584    7.3743   35.7047 H         1 67M         0.0624
     96 H40         8.8083   12.3184   36.1185 H         1 67M         0.0637
     97 H41        11.0749   11.3036   35.8700 H         1 67M         0.0624
     98 H42        11.1003    6.9465   34.4656 H         1 67M         0.0624
     99 H43        13.3663    5.9598   34.3759 H         1 67M         0.0618
    100 H44        15.2203    6.9244   35.7238 H         1 67M         0.0618
    101 H45        14.7948    8.9360   37.0589 H         1 67M         0.0618
    102 H46        12.5817    9.9930   37.0345 H         1 67M         0.0624
@<TRIPOS>BOND
     1    1    2 2  
     2    2    3 1  
     3    2    4 am 
     4    4    5 1  
     5    5    6 1  
     6    5   23 1  
     7    6    7 1  
     8    6   11 1  
     9    7    8 1  
    10    8    9 2  
    11    8   10 1  
    12   11   12 1  
    13   11   16 1  
    14   12   13 1  
    15   13   14 1  
    16   13   15 2  
    17   16   17 1  
    18   16   22 1  
    19   17   18 1  
    20   18   19 1  
    21   19   20 1  
    22   19   21 2  
    23   22   23 1  
    24   23   24 1  
    25   24   25 1  
    26   25   26 1  
    27   26   27 1  
    28   27   28 1  
    29   28   29 1  
    30   28   31 1  
    31   29   30 2  
    32   30   32 1  
    33   31   32 2  
    34   32   33 1  
    35   33   34 1  
    36   34   35 1  
    37   34   42 am 
    38   35   36 1  
    39   35   39 1  
    40   36   37 1  
    41   36   38 1  
    42   39   40 ar 
    43   39   41 ar 
    44   42   43 2  
    45   42   44 2  
    46   42   45 1  
    47   45   46 ar 
    48   45   48 ar 
    49   46   47 ar 
    50   47   50 ar 
    51   48   49 ar 
    52   49   50 ar 
    53   50   51 1  
    54   51   52 ar 
    55   51   56 ar 
    56   52   53 ar 
    57   53   54 ar 
    58   54   55 ar 
    59   55   56 ar 
    60    3   57 1  
    61    3   58 1  
    62    3   59 1  
    63    4   60 1  
    64    5   61 1  
    65    6   62 1  
    66   10   63 1  
    67   10   64 1  
    68   10   65 1  
    69   11   66 1  
    70   14   67 1  
    71   14   68 1  
    72   14   69 1  
    73   16   70 1  
    74   17   71 1  
    75   17   72 1  
    76   20   73 1  
    77   20   74 1  
    78   20   75 1  
    79   23   76 1  
    80   25   77 1  
    81   25   78 1  
    82   26   79 1  
    83   26   80 1  
    84   27   81 1  
    85   27   82 1  
    86   31   83 1  
    87   33   84 1  
    88   33   85 1  
    89   35   86 1  
    90   36   87 1  
    91   37   88 1  
    92   37   89 1  
    93   37   90 1  
    94   38   91 1  
    95   38   92 1  
    96   38   93 1  
    97   46   94 1  
    98   47   95 1  
    99   48   96 1  
   100   49   97 1  
   101   52   98 1  
   102   53   99 1  
   103   54  100 1  
   104   55  101 1  
   105   56  102 1  
@<TRIPOS>SUBSTRUCTURE
     1 67M         1

