### 
### Created by X-TOOL on Mon Sep 10 21:13:29 2018
### 

@<TRIPOS>MOLECULE
5i4o_ligand
   77    80     1     0     0
SMALL
GAST_HUCK


@<TRIPOS>ATOM
      1 O15       -16.8090  -10.8740   -1.4910 O.2       1 V28        -0.1499
      2 S13       -16.8440  -12.1080   -2.1460 S.o2      1 V28         0.0735
      3 O14       -17.6030  -13.0260   -1.3960 O.2       1 V28        -0.1499
      4 C10       -15.3620  -12.7120   -2.3380 C.ar      1 V28         0.1086
      5 C11       -15.1840  -14.0860   -2.4210 C.ar      1 V28        -0.0345
      6 C12       -13.9230  -14.6410   -2.5730 C.ar      1 V28        -0.0522
      7 C07       -12.8090  -13.8270   -2.6520 C.ar      1 V28        -0.0178
      8 C01       -11.4800  -14.4570   -2.8010 C.ar      1 V28        -0.0179
      9 C02       -10.4100  -13.9820   -2.0610 C.ar      1 V28        -0.0540
     10 C03        -9.1570  -14.5830   -2.1770 C.ar      1 V28        -0.0612
     11 C04        -8.9990  -15.6650   -3.0280 C.ar      1 V28        -0.0617
     12 C05       -10.0700  -16.1510   -3.7560 C.ar      1 V28        -0.0612
     13 C06       -11.3090  -15.5480   -3.6400 C.ar      1 V28        -0.0540
     14 C08       -12.9660  -12.4560   -2.5610 C.ar      1 V28        -0.0522
     15 C09       -14.2300  -11.9040   -2.4260 C.ar      1 V28        -0.0345
     16 N16       -17.4330  -12.0000   -3.5340 N.am      1 V28        -0.2101
     17 C17       -17.0300  -10.9660   -4.4840 C.3       1 V28         0.0967
     18 C18       -16.0030  -11.4400   -5.4970 C.2       1 V28         0.0570
     19 O19       -16.1630  -12.4900   -6.1500 O.co2     1 V28        -0.5670
     20 O20       -14.9770  -10.7580   -5.6730 O.co2     1 V28        -0.5670
     21 C21       -18.2730  -10.3930   -5.1640 C.3       1 V28        -0.0148
     22 C22       -19.1710   -9.6580   -4.1780 C.3       1 V28        -0.0594
     23 C23       -17.9190   -9.4900   -6.3420 C.3       1 V28        -0.0594
     24 C24       -18.2800  -13.0500   -4.0980 C.3       1 V28         0.0663
     25 C25       -19.7100  -13.3190   -3.6450 C.2       1 V28         0.0558
     26 N26       -20.8360  -12.9160   -4.2740 N.2       1 V28        -0.2248
     27 N27       -21.9530  -13.3810   -3.5980 N.2       1 V28        -0.0996
     28 C29       -20.0990  -14.0820   -2.5580 C.2       1 V28         0.0738
     29 N28       -21.4260  -14.0890   -2.5340 N.pl3     1 V28        -0.1509
     30 C30       -22.4250  -14.7270   -1.6390 C.3       1 V28         0.2121
     31 C31       -22.5720  -16.2250   -1.9610 C.3       1 V28         0.1281
     32 N40       -23.3510  -16.4390   -3.1530 N.am      1 V28        -0.2759
     33 C41       -22.7780  -16.5590   -4.3220 C.2       1 V28         0.1734
     34 C42       -23.7110  -16.6430   -5.4850 C.3       1 V28         0.0257
     35 O43       -21.5710  -16.5990   -4.4330 O.2       1 V28        -0.3974
     36 O35       -22.0010  -14.4800   -0.3050 O.3       1 V28        -0.3348
     37 C34       -22.8000  -15.1290    0.6550 C.3       1 V28         0.1136
     38 C36       -22.4070  -14.6110    2.0130 C.3       1 V28         0.0730
     39 O37       -23.1120  -13.3820    2.1310 O.3       1 V28        -0.3924
     40 C33       -22.6390  -16.6330    0.4880 C.3       1 V28         0.1117
     41 O38       -23.3470  -17.3350    1.4980 O.3       1 V28        -0.3865
     42 C32       -23.2080  -17.0490   -0.8520 C.3       1 V28         0.1118
     43 O39       -23.0010  -18.4450   -1.0870 O.3       1 V28        -0.3867
     44 H1        -16.0483  -14.7380   -2.3659 H         1 V28         0.0637
     45 H2        -13.8102  -15.7176   -2.6301 H         1 V28         0.0624
     46 H3        -10.5468  -13.1414   -1.3903 H         1 V28         0.0624
     47 H4         -8.3149  -14.2074   -1.6070 H         1 V28         0.0618
     48 H5         -8.0269  -16.1350   -3.1241 H         1 V28         0.0618
     49 H6         -9.9385  -17.0015   -4.4151 H         1 V28         0.0618
     50 H7        -12.1502  -15.9297   -4.2073 H         1 V28         0.0624
     51 H8        -12.0962  -11.8100   -2.5954 H         1 V28         0.0624
     52 H9        -14.3399  -10.8262   -2.3882 H         1 V28         0.0637
     53 H10       -16.5600  -10.1556   -3.9075 H         1 V28         0.0687
     54 H11       -18.8462  -11.2434   -5.5619 H         1 V28         0.0332
     55 H12       -20.0506   -9.2630   -4.7074 H         1 V28         0.0234
     56 H13       -18.6128   -8.8264   -3.7232 H         1 V28         0.0234
     57 H14       -19.4984  -10.3536   -3.3913 H         1 V28         0.0234
     58 H15       -17.2710  -10.0377   -7.0420 H         1 V28         0.0234
     59 H16       -17.3904   -8.5981   -5.9745 H         1 V28         0.0234
     60 H17       -18.8403   -9.1833   -6.8588 H         1 V28         0.0234
     61 H18       -17.7340  -13.9919   -3.9406 H         1 V28         0.0596
     62 H19       -18.3423  -12.8379   -5.1755 H         1 V28         0.0596
     63 H20       -19.4384  -14.5839   -1.8526 H         1 V28         0.0900
     64 H21       -23.4043  -14.2500   -1.7920 H         1 V28         0.1028
     65 H22       -21.5589  -16.6174   -2.1333 H         1 V28         0.0641
     66 H23       -24.3470  -16.4968   -3.0855 H         1 V28         0.1857
     67 H24       -23.1306  -16.7413   -6.4143 H         1 V28         0.0467
     68 H25       -24.3237  -15.7306   -5.5302 H         1 V28         0.0467
     69 H26       -24.3658  -17.5190   -5.3673 H         1 V28         0.0467
     70 H27       -23.8566  -14.8766    0.4821 H         1 V28         0.0647
     71 H28       -21.3210  -14.4454    2.0688 H         1 V28         0.0584
     72 H29       -22.7118  -15.3137    2.8025 H         1 V28         0.0584
     73 H30       -22.8438  -12.7961    1.4330 H         1 V28         0.2095
     74 H31       -21.5712  -16.8922    0.5386 H         1 V28         0.0647
     75 H32       -23.2315  -18.2696    1.3728 H         1 V28         0.2100
     76 H33       -24.2907  -16.8549   -0.8468 H         1 V28         0.0645
     77 H34       -23.4305  -18.9470   -0.4043 H         1 V28         0.2100
@<TRIPOS>BOND
     1    1    2 2  
     2    2    3 2  
     3    2    4 1  
     4    2   16 am 
     5    4    5 ar 
     6    4   15 ar 
     7    5    6 ar 
     8    6    7 ar 
     9    7    8 1  
    10    7   14 ar 
    11    8    9 ar 
    12    8   13 ar 
    13    9   10 ar 
    14   10   11 ar 
    15   11   12 ar 
    16   12   13 ar 
    17   14   15 ar 
    18   16   17 1  
    19   16   24 1  
    20   17   18 1  
    21   17   21 1  
    22   18   19 ar 
    23   18   20 ar 
    24   21   22 1  
    25   21   23 1  
    26   24   25 1  
    27   25   26 1  
    28   25   28 2  
    29   26   27 2  
    30   27   29 1  
    31   28   29 1  
    32   29   30 1  
    33   30   31 1  
    34   30   36 1  
    35   31   32 1  
    36   31   42 1  
    37   32   33 am 
    38   33   34 1  
    39   33   35 2  
    40   36   37 1  
    41   37   38 1  
    42   37   40 1  
    43   38   39 1  
    44   40   41 1  
    45   40   42 1  
    46   42   43 1  
    47    5   44 1  
    48    6   45 1  
    49    9   46 1  
    50   10   47 1  
    51   11   48 1  
    52   12   49 1  
    53   13   50 1  
    54   14   51 1  
    55   15   52 1  
    56   17   53 1  
    57   21   54 1  
    58   22   55 1  
    59   22   56 1  
    60   22   57 1  
    61   23   58 1  
    62   23   59 1  
    63   23   60 1  
    64   24   61 1  
    65   24   62 1  
    66   28   63 1  
    67   30   64 1  
    68   31   65 1  
    69   32   66 1  
    70   34   67 1  
    71   34   68 1  
    72   34   69 1  
    73   37   70 1  
    74   38   71 1  
    75   38   72 1  
    76   39   73 1  
    77   40   74 1  
    78   41   75 1  
    79   42   76 1  
    80   43   77 1  
@<TRIPOS>SUBSTRUCTURE
     1 V28         1

