### 
### Created by X-TOOL on Mon Sep 10 21:13:29 2018
### 

@<TRIPOS>MOLECULE
5i4v_ligand
   60    62     1     0     0
SMALL
GAST_HUCK


@<TRIPOS>ATOM
      1 O4         -8.3200    6.1200  -28.6500 O.2       1 67S        -0.1708
      2 S          -8.7940    6.2330  -27.3030 S.o2      1 67S        -0.0109
      3 O3        -10.0210    5.5120  -27.1070 O.2       1 67S        -0.1708
      4 C19        -9.1380    7.8220  -27.0510 C.3       1 67S         0.0583
      5 C18        -7.7520    5.6000  -26.2480 C.ar      1 67S         0.0803
      6 C20        -7.2520    6.3810  -25.2020 C.ar      1 67S        -0.0258
      7 C16        -7.3540    4.2570  -26.3330 C.ar      1 67S        -0.0059
      8 C17        -7.8240    3.2810  -27.4030 C.3       1 67S         0.0740
      9 O2         -8.9250    2.5480  -26.8530 O.3       1 67S        -0.3845
     10 C15        -6.4760    3.7420  -25.4020 C.ar      1 67S        -0.0677
     11 C14        -5.9830    4.5320  -24.3840 C.ar      1 67S        -0.0504
     12 C13        -6.3690    5.8640  -24.2580 C.ar      1 67S         0.0353
     13 N4         -5.8110    6.6840  -23.1660 N.pl3     1 67S        -0.3082
     14 C21        -5.7830    5.9700  -21.8980 C.3       1 67S         0.0491
     15 C4         -4.8190    6.6620  -20.9500 C.3       1 67S         0.0661
     16 C2         -3.3880    6.6710  -21.4900 C.3       1 67S        -0.0214
     17 C3         -2.6000    7.9180  -21.1050 C.3       1 67S        -0.0605
     18 C1         -2.6610    5.4610  -20.9110 C.3       1 67S        -0.0605
     19 C12        -6.4060    8.0110  -22.9540 C.3       1 67S         0.0461
     20 C11        -5.7830    8.8240  -21.8010 C.3       1 67S         0.0531
     21 N1         -5.3340    7.9900  -20.6990 N.pl3     1 67S        -0.2654
     22 C5         -5.3740    8.3450  -19.4020 C.ar      1 67S         0.2183
     23 N2         -5.8110    9.5230  -18.9420 N.ar      1 67S        -0.2371
     24 C6         -5.7940    9.7460  -17.6050 C.ar      1 67S         0.1249
     25 C7         -6.3070   11.0760  -17.1100 C.3       1 67S         0.3932
     26 F2         -5.4570   11.5980  -16.2450 F         1 67S        -0.2156
     27 F1         -6.4470   11.8550  -18.1740 F         1 67S        -0.2156
     28 F3         -7.4630   10.8750  -16.4970 F         1 67S        -0.2156
     29 N3         -4.9260    7.4190  -18.5260 N.ar      1 67S        -0.2211
     30 C10        -4.8880    7.5970  -17.1950 C.ar      1 67S         0.0571
     31 C8         -5.3330    8.8000  -16.6890 C.ar      1 67S         0.0569
     32 C9         -5.3110    9.0470  -15.1800 C.3       1 67S         0.1000
     33 O1         -4.7070    7.9380  -14.5050 O.3       1 67S        -0.3751
     34 H1         -8.2259    8.4211  -27.1897 H         1 67S         0.0467
     35 H2         -9.5135    7.9578  -26.0260 H         1 67S         0.0467
     36 H3         -9.9045    8.1496  -27.7687 H         1 67S         0.0467
     37 H4         -7.5602    7.4173  -25.1238 H         1 67S         0.0518
     38 H5         -7.0086    2.5926  -27.6697 H         1 67S         0.0696
     39 H6         -8.1474    3.8310  -28.2990 H         1 67S         0.0696
     40 H7         -8.6373    2.0813  -26.0772 H         1 67S         0.2122
     41 H8         -6.1698    2.7044  -25.4710 H         1 67S         0.0526
     42 H9         -5.2843    4.1092  -23.6712 H         1 67S         0.0499
     43 H10        -5.4517    4.9348  -22.0670 H         1 67S         0.0534
     44 H11        -6.7908    5.9651  -21.4573 H         1 67S         0.0534
     45 H12        -4.8086    6.1098  -19.9987 H         1 67S         0.0582
     46 H13        -3.4227    6.5982  -22.5870 H         1 67S         0.0319
     47 H14        -1.5856    7.8552  -21.5258 H         1 67S         0.0233
     48 H15        -2.5385    7.9891  -20.0090 H         1 67S         0.0233
     49 H16        -3.1072    8.8095  -21.5024 H         1 67S         0.0233
     50 H17        -3.2086    4.5439  -21.1738 H         1 67S         0.0233
     51 H18        -2.6070    5.5549  -19.8164 H         1 67S         0.0233
     52 H19        -1.6433    5.4118  -21.3255 H         1 67S         0.0233
     53 H20        -7.4759    7.8754  -22.7376 H         1 67S         0.0531
     54 H21        -6.2901    8.5899  -23.8821 H         1 67S         0.0531
     55 H22        -6.5366    9.5301  -21.4223 H         1 67S         0.0544
     56 H23        -4.9202    9.3832  -22.1920 H         1 67S         0.0544
     57 H24        -4.5184    6.8179  -16.5382 H         1 67S         0.0957
     58 H25        -6.3418    9.1748  -14.8179 H         1 67S         0.0814
     59 H26        -4.7327    9.9588  -14.9697 H         1 67S         0.0814
     60 H27        -5.2061    7.1498  -14.6840 H         1 67S         0.2142
@<TRIPOS>BOND
     1    1    2 2  
     2    2    3 2  
     3    2    4 1  
     4    2    5 1  
     5    5    6 ar 
     6    5    7 ar 
     7    6   12 ar 
     8    7    8 1  
     9    7   10 ar 
    10    8    9 1  
    11   10   11 ar 
    12   11   12 ar 
    13   12   13 1  
    14   13   14 1  
    15   13   19 1  
    16   14   15 1  
    17   15   16 1  
    18   15   21 1  
    19   16   17 1  
    20   16   18 1  
    21   19   20 1  
    22   20   21 1  
    23   21   22 1  
    24   22   23 ar 
    25   22   29 ar 
    26   23   24 ar 
    27   24   25 1  
    28   24   31 ar 
    29   25   26 1  
    30   25   27 1  
    31   25   28 1  
    32   29   30 ar 
    33   30   31 ar 
    34   31   32 1  
    35   32   33 1  
    36    4   34 1  
    37    4   35 1  
    38    4   36 1  
    39    6   37 1  
    40    8   38 1  
    41    8   39 1  
    42    9   40 1  
    43   10   41 1  
    44   11   42 1  
    45   14   43 1  
    46   14   44 1  
    47   15   45 1  
    48   16   46 1  
    49   17   47 1  
    50   17   48 1  
    51   17   49 1  
    52   18   50 1  
    53   18   51 1  
    54   18   52 1  
    55   19   53 1  
    56   19   54 1  
    57   20   55 1  
    58   20   56 1  
    59   30   57 1  
    60   32   58 1  
    61   32   59 1  
    62   33   60 1  
@<TRIPOS>SUBSTRUCTURE
     1 67S         1

