### 
### Created by X-TOOL on Mon Sep 10 21:13:28 2018
### 

@<TRIPOS>MOLECULE
5i56_ligand
   48    50     1     0     0
SMALL
GAST_HUCK


@<TRIPOS>ATOM
      1 C01       -25.1850   15.2890  -24.5530 C.ar      1 67P        -0.0575
      2 C02       -25.2620   13.8870  -24.7020 C.ar      1 67P        -0.0562
      3 C03       -24.1540   13.1580  -25.1630 C.ar      1 67P        -0.0419
      4 C04       -22.9600   13.8300  -25.4850 C.ar      1 67P         0.0517
      5 C05       -22.8790   15.2260  -25.3260 C.ar      1 67P        -0.0419
      6 C06       -23.9970   15.9570  -24.8640 C.ar      1 67P        -0.0562
      7 C07       -21.7260   13.0390  -25.9770 C.2       1 67P         0.2259
      8 O08       -20.6250   13.5980  -25.9590 O.2       1 67P        -0.3827
      9 N09       -21.8210   11.6940  -26.4450 N.am      1 67P        -0.1823
     10 N10       -20.6790   11.0730  -26.8190 N.am      1 67P        -0.1831
     11 C11       -20.2530   10.7970  -28.1200 C.2       1 67P         0.2209
     12 O12       -20.9020   11.1130  -29.0830 O.2       1 67P        -0.3858
     13 C13       -18.8850   10.0690  -28.2860 C.ar      1 67P         0.0446
     14 C14       -18.1100   10.2390  -29.4440 C.ar      1 67P        -0.0484
     15 C15       -16.8900    9.5860  -29.5720 C.ar      1 67P        -0.0529
     16 C16       -16.4240    8.7600  -28.5420 C.ar      1 67P        -0.0199
     17 C17       -17.1930    8.5970  -27.3880 C.ar      1 67P        -0.0529
     18 C18       -18.4220    9.2570  -27.2610 C.ar      1 67P        -0.0484
     19 C19       -15.0720    8.0270  -28.6630 C.3       1 67P         0.0623
     20 N20       -13.9660    8.9000  -28.9920 N.am      1 67P        -0.2358
     21 S21       -13.4000   10.0190  -27.9080 S.o2      1 67P         0.0682
     22 O22       -13.0280    9.4160  -26.6690 O.2       1 67P        -0.1507
     23 O23       -12.1740   10.6070  -28.3650 O.2       1 67P        -0.1507
     24 C24       -14.6600   11.2990  -27.7130 C.ar      1 67P         0.1047
     25 C25       -14.8290   12.2510  -28.6730 C.ar      1 67P        -0.0369
     26 C26       -15.8160   13.2290  -28.5280 C.ar      1 67P        -0.0257
     27 C27       -16.6370   13.2150  -27.3820 C.ar      1 67P         0.1467
     28 C28       -16.4710   12.2500  -26.4200 C.ar      1 67P         0.0753
     29 C29       -15.4930   11.2850  -26.5640 C.ar      1 67P        -0.0230
     30 CL        -17.4790   12.2040  -24.9840 Cl        1 67P        -0.0721
     31 F31       -17.5850   14.1550  -27.2460 F         1 67P        -0.1826
     32 H1        -26.0448   15.8459  -24.1984 H         1 67P         0.0653
     33 H2        -26.1831   13.3698  -24.4588 H         1 67P         0.0629
     34 H3        -24.2180   12.0812  -25.2705 H         1 67P         0.0669
     35 H4        -21.9551   15.7429  -25.5589 H         1 67P         0.0669
     36 H5        -23.9334   17.0332  -24.7511 H         1 67P         0.0629
     37 H6        -22.7033   11.2259  -26.4948 H         1 67P         0.2158
     38 H7        -20.0717   10.7785  -26.0811 H         1 67P         0.2156
     39 H8        -18.4645   10.8821  -30.2414 H         1 67P         0.0652
     40 H9        -16.2982    9.7164  -30.4708 H         1 67P         0.0570
     41 H10       -16.8378    7.9577  -26.5879 H         1 67P         0.0570
     42 H11       -19.0122    9.1330  -26.3603 H         1 67P         0.0652
     43 H12       -15.1593    7.2646  -29.4511 H         1 67P         0.0649
     44 H13       -14.8546    7.5378  -27.7021 H         1 67P         0.0649
     45 H14       -13.5345    8.8268  -29.8912 H         1 67P         0.1700
     46 H15       -14.1953   12.2495  -29.5525 H         1 67P         0.0628
     47 H16       -15.9491   13.9902  -29.2882 H         1 67P         0.0604
     48 H17       -15.3627   10.5224  -25.8047 H         1 67P         0.0632
@<TRIPOS>BOND
     1    1    2 ar 
     2    1    6 ar 
     3    2    3 ar 
     4    3    4 ar 
     5    4    5 ar 
     6    4    7 1  
     7    5    6 ar 
     8    7    8 2  
     9    7    9 am 
    10    9   10 1  
    11   10   11 am 
    12   11   12 2  
    13   11   13 1  
    14   13   14 ar 
    15   13   18 ar 
    16   14   15 ar 
    17   15   16 ar 
    18   16   17 ar 
    19   16   19 1  
    20   17   18 ar 
    21   19   20 1  
    22   20   21 am 
    23   21   22 2  
    24   21   23 2  
    25   21   24 1  
    26   24   25 ar 
    27   24   29 ar 
    28   25   26 ar 
    29   26   27 ar 
    30   27   28 ar 
    31   27   31 1  
    32   28   29 ar 
    33   28   30 1  
    34    1   32 1  
    35    2   33 1  
    36    3   34 1  
    37    5   35 1  
    38    6   36 1  
    39    9   37 1  
    40   10   38 1  
    41   14   39 1  
    42   15   40 1  
    43   17   41 1  
    44   18   42 1  
    45   19   43 1  
    46   19   44 1  
    47   20   45 1  
    48   25   46 1  
    49   26   47 1  
    50   29   48 1  
@<TRIPOS>SUBSTRUCTURE
     1 67P         1

