### 
### Created by X-TOOL on Mon Sep 10 21:13:30 2018
### 

@<TRIPOS>MOLECULE
5i58_ligand
   44    46     1     0     0
SMALL
GAST_HUCK


@<TRIPOS>ATOM
      1 C01       -17.9950  -13.7650   28.0420 C.ar      1 67R         0.1467
      2 C02       -17.7610  -12.9400   26.9900 C.ar      1 67R         0.0753
      3 C03       -16.7760  -12.0020   27.0320 C.ar      1 67R        -0.0230
      4 C04       -16.0490  -11.8930   28.1350 C.ar      1 67R         0.1048
      5 C05       -16.3040  -12.6980   29.1810 C.ar      1 67R        -0.0369
      6 C06       -17.2790  -13.6550   29.1340 C.ar      1 67R        -0.0257
      7 C07       -16.3230   -8.6970   28.6700 C.3       1 67R         0.0841
      8 C08       -17.6950   -9.3610   28.6970 C.ar      1 67R         0.0813
      9 C09       -18.4540   -9.3500   27.5680 C.ar      1 67R         0.0503
     10 C10       -20.0890  -10.4930   28.5800 C.ar      1 67R         0.1450
     11 C11       -19.3440  -10.5180   29.7330 C.ar      1 67R         0.0532
     12 C12       -21.4850  -11.1330   28.4880 C.2       1 67R         0.2289
     13 C13       -23.6810  -11.1960   27.3430 C.3       1 67R         0.0730
     14 C14       -23.5860  -12.5890   26.7730 C.2       1 67R         0.0440
     15 C15       -22.4530  -13.4360   26.7830 C.2       1 67R        -0.0334
     16 C16       -23.8570  -14.8710   25.7100 C.2       1 67R         0.0805
     17 C17       -24.2670  -16.1200   25.0440 C.3       1 67R         0.0018
     18 N18       -15.3130   -9.5130   29.2500 N.am      1 67R        -0.2322
     19 N19       -19.6050   -9.8830   27.5050 N.ar      1 67R        -0.2589
     20 N20       -18.2010   -9.9730   29.7960 N.ar      1 67R        -0.2653
     21 O21       -21.8010  -12.0040   29.2570 O.2       1 67R        -0.3789
     22 N22       -22.4360  -10.6720   27.4630 N.am      1 67R        -0.2721
     23 S23       -24.7640  -13.5190   25.9820 S.3       1 67R         0.0005
     24 N24       -22.6210  -14.6330   26.1900 N.2       1 67R        -0.3397
     25 S25       -14.7740  -10.6860   28.3080 S.o2      1 67R         0.0686
     26 O26       -13.6230  -11.3520   29.0510 O.2       1 67R        -0.1506
     27 O27       -14.2870  -10.1750   27.0870 O.2       1 67R        -0.1506
     28 CL        -18.7200  -13.1520   25.6190 Cl        1 67R        -0.0721
     29 F29       -18.9340  -14.6530   27.9540 F         1 67R        -0.1826
     30 H1        -16.5897  -11.3571   26.1808 H         1 67R         0.0632
     31 H2        -15.7200  -12.5851   30.0872 H         1 67R         0.0628
     32 H3        -17.4559  -14.3081   29.9809 H         1 67R         0.0604
     33 H4        -16.3773   -7.7515   29.2294 H         1 67R         0.0694
     34 H5        -16.0518   -8.4894   27.6244 H         1 67R         0.0694
     35 H6        -18.0588   -8.8647   26.6829 H         1 67R         0.0884
     36 H7        -19.7424  -11.0153   30.6099 H         1 67R         0.0955
     37 H8        -24.1590  -11.2364   28.3329 H         1 67R         0.0692
     38 H9        -24.2815  -10.5649   26.6713 H         1 67R         0.0692
     39 H10       -21.5094  -13.1401   27.2391 H         1 67R         0.0385
     40 H11       -23.4202  -16.8219   25.0277 H         1 67R         0.0467
     41 H12       -24.5806  -15.8999   24.0129 H         1 67R         0.0467
     42 H13       -25.1061  -16.5706   25.5942 H         1 67R         0.0467
     43 H14       -14.9666   -9.3642   30.1762 H         1 67R         0.1706
     44 H15       -22.1542   -9.9477   26.8337 H         1 67R         0.1876
@<TRIPOS>BOND
     1    2    1 ar 
     2    6    1 ar 
     3    1   29 1  
     4    3    2 ar 
     5    2   28 1  
     6    4    3 ar 
     7    4    5 ar 
     8   25    4 1  
     9    5    6 ar 
    10    7    8 1  
    11   18    7 1  
    12    8    9 ar 
    13    8   20 ar 
    14    9   19 ar 
    15   11   10 ar 
    16   10   12 1  
    17   19   10 ar 
    18   20   11 ar 
    19   12   21 2  
    20   12   22 am 
    21   13   14 1  
    22   22   13 1  
    23   14   15 2  
    24   14   23 1  
    25   15   24 1  
    26   16   17 1  
    27   23   16 1  
    28   16   24 2  
    29   18   25 am 
    30   25   26 2  
    31   25   27 2  
    32    3   30 1  
    33    5   31 1  
    34    6   32 1  
    35    7   33 1  
    36    7   34 1  
    37    9   35 1  
    38   11   36 1  
    39   13   37 1  
    40   13   38 1  
    41   15   39 1  
    42   17   40 1  
    43   17   41 1  
    44   17   42 1  
    45   18   43 1  
    46   22   44 1  
@<TRIPOS>SUBSTRUCTURE
     1 67R         1

