### 
### Created by X-TOOL on Mon Sep 10 21:13:28 2018
### 

@<TRIPOS>MOLECULE
5i59_ligand
   47    49     1     0     0
SMALL
GAST_HUCK


@<TRIPOS>ATOM
      1 C10        17.8790   95.8980   28.5420 C.ar      1 67Q         0.0828
      2 C11        18.7870   95.5290   27.5860 C.ar      1 67Q         0.0640
      3 C13        20.3190   96.9780   28.4130 C.ar      1 67Q         0.1352
      4 C14        19.4110   97.3550   29.3770 C.ar      1 67Q         0.0448
      5 C16        21.7170   97.5930   28.3730 C.2       1 67Q         0.2264
      6 C22        23.9850  101.7230   25.6660 C.2       1 67Q         0.0805
      7 C24        22.4950  100.2250   26.5120 C.2       1 67Q        -0.0334
      8 C25        24.5190  103.0310   25.1040 C.3       1 67Q         0.0018
      9 C26        18.4190   94.4790   26.6040 C.3       1 67Q        -0.0098
     10 C01        18.3100  100.2050   27.7900 C.ar      1 67Q         0.1654
     11 C02        18.1270   99.2390   26.8290 C.ar      1 67Q         0.1671
     12 C03        17.0780   98.3880   26.9330 C.ar      1 67Q        -0.0033
     13 C04        16.2250   98.5020   27.9570 C.ar      1 67Q         0.1025
     14 C05        16.3990   99.4480   28.9160 C.ar      1 67Q        -0.0410
     15 C06        17.4410  100.3120   28.8300 C.ar      1 67Q        -0.0280
     16 S07        14.9040   97.3740   28.0600 S.o2      1 67Q         0.0676
     17 N08        15.3470   95.9930   28.7400 N.am      1 67Q        -0.2333
     18 C09        16.5030   95.2390   28.5590 C.3       1 67Q         0.0820
     19 N12        19.9940   96.0610   27.5260 N.ar      1 67Q        -0.2616
     20 N15        18.2050   96.8030   29.4290 N.ar      1 67Q        -0.2732
     21 O17        22.2200   98.1510   29.3130 O.2       1 67Q        -0.3792
     22 N18        22.4470   97.4430   27.1840 N.am      1 67Q        -0.2722
     23 C19        23.7370   97.9670   27.0360 C.3       1 67Q         0.0730
     24 C20        23.6350   99.3970   26.5550 C.2       1 67Q         0.0440
     25 S21        24.8580  100.3690   25.9370 S.3       1 67Q         0.0005
     26 N23        22.7530  101.4570   26.0230 N.2       1 67Q        -0.3397
     27 O27        13.9150   97.8220   28.8190 O.2       1 67Q        -0.1507
     28 O28        14.2510   97.1640   26.9310 O.2       1 67Q        -0.1507
     29 F29        18.9180   99.0920   25.7980 F         1 67Q        -0.1842
     30 F30        19.2900  101.0420   27.7520 F         1 67Q        -0.1843
     31 H1         19.6846   98.1123   30.1028 H         1 67Q         0.0890
     32 H2         21.5073   99.9040   26.8396 H         1 67Q         0.0385
     33 H3         23.6996  103.7615   25.0337 H         1 67Q         0.0467
     34 H4         24.9403  102.8553   24.1032 H         1 67Q         0.0467
     35 H5         25.3033  103.4226   25.7685 H         1 67Q         0.0467
     36 H6         19.2601   94.3099   25.9156 H         1 67Q         0.0424
     37 H7         17.5372   94.8043   26.0325 H         1 67Q         0.0424
     38 H8         18.1870   93.5445   27.1359 H         1 67Q         0.0424
     39 H9         16.9301   97.6155   26.1871 H         1 67Q         0.0613
     40 H10        15.7069   99.5123   29.7479 H         1 67Q         0.0592
     41 H11        17.5794  101.0798   29.5826 H         1 67Q         0.0594
     42 H12        14.6929   95.6145   29.3949 H         1 67Q         0.1704
     43 H13        16.5221   94.4970   29.3708 H         1 67Q         0.0681
     44 H14        16.3916   94.7236   27.5936 H         1 67Q         0.0681
     45 H15        22.0338   96.9474   26.4200 H         1 67Q         0.1875
     46 H16        24.2957   97.3695   26.3006 H         1 67Q         0.0692
     47 H17        24.2595   97.9397   28.0036 H         1 67Q         0.0692
@<TRIPOS>BOND
     1    2    1 ar 
     2    1   18 1  
     3   20    1 ar 
     4    2    9 1  
     5   19    2 ar 
     6    3    4 ar 
     7    5    3 1  
     8    3   19 ar 
     9    4   20 ar 
    10    5   21 2  
    11   22    5 am 
    12    6    8 1  
    13    6   25 1  
    14   26    6 2  
    15   24    7 2  
    16    7   26 1  
    17   11   10 ar 
    18   15   10 ar 
    19   10   30 1  
    20   12   11 ar 
    21   11   29 1  
    22   13   12 ar 
    23   13   14 ar 
    24   16   13 1  
    25   14   15 ar 
    26   17   16 am 
    27   16   27 2  
    28   16   28 2  
    29   18   17 1  
    30   23   22 1  
    31   23   24 1  
    32   24   25 1  
    33    4   31 1  
    34    7   32 1  
    35    8   33 1  
    36    8   34 1  
    37    8   35 1  
    38    9   36 1  
    39    9   37 1  
    40    9   38 1  
    41   12   39 1  
    42   14   40 1  
    43   15   41 1  
    44   17   42 1  
    45   18   43 1  
    46   18   44 1  
    47   22   45 1  
    48   23   46 1  
    49   23   47 1  
@<TRIPOS>SUBSTRUCTURE
     1 67Q         1

