### 
### Created by X-TOOL on Mon Sep 10 21:13:27 2018
### 

@<TRIPOS>MOLECULE
5i5x_ligand
   26    28     1     0     0
SMALL
GAST_HUCK


@<TRIPOS>ATOM
      1 C5        -12.5170   38.3800   23.7810 C.2       1 68C         0.0921
      2 C7        -14.6840   37.9580   23.8110 C.2       1 68C         0.1353
      3 C15        -6.5100   38.5290   22.2620 C.2       1 68C         0.2218
      4 C1        -10.2190   36.4100   21.5670 C.3       1 68C        -0.0365
      5 C2        -10.8200   37.3580   22.5310 C.2       1 68C        -0.0289
      6 C3        -10.1320   38.3170   23.2570 C.2       1 68C         0.0956
      7 S4        -11.1340   39.2650   24.2960 S.3       1 68C        -0.0237
      8 N6        -13.7290   38.6900   24.2890 N.2       1 68C        -0.2678
      9 N8        -14.5210   36.9540   22.8820 N.am      1 68C        -0.1991
     10 C9        -13.3020   36.6140   22.3440 C.2       1 68C         0.2202
     11 O10       -13.2050   35.7200   21.5170 O.2       1 68C        -0.4028
     12 C11       -12.2090   37.4170   22.8500 C.2       1 68C         0.0658
     13 C12        -8.6730   38.6870   23.3350 C.2       1 68C         0.2272
     14 O13        -8.2460   39.2990   24.2990 O.2       1 68C        -0.3885
     15 N14        -7.8620   38.2740   22.3220 N.am      1 68C        -0.1974
     16 N16        -5.7780   38.3030   21.1950 N.2       1 68C        -0.2593
     17 N17        -4.4800   38.6600   21.4420 N.2       1 68C        -0.2728
     18 C18        -4.2730   39.1090   22.6380 C.2       1 68C         0.0841
     19 S19        -5.6790   39.1650   23.6270 S.3       1 68C         0.0574
     20 H1        -15.6935   38.1508   24.1710 H         1 68C         0.1547
     21 H2         -9.1338   36.5813   21.5124 H         1 68C         0.0379
     22 H3        -10.6651   36.5651   20.5736 H         1 68C         0.0379
     23 H4        -10.4112   35.3789   21.8984 H         1 68C         0.0379
     24 H5        -15.3297   36.4470   22.5839 H         1 68C         0.2596
     25 H6         -8.2741   37.7528   21.5747 H         1 68C         0.2391
     26 H7         -3.2915   39.4247   22.9886 H         1 68C         0.1105
@<TRIPOS>BOND
     1    7    1 1  
     2    1    8 1  
     3    1   12 2  
     4    8    2 2  
     5    2    9 1  
     6   15    3 1  
     7    3   16 2  
     8    3   19 1  
     9    5    4 1  
    10    6    5 2  
    11    5   12 1  
    12    6    7 1  
    13   13    6 1  
    14   10    9 am 
    15   10   11 2  
    16   12   10 1  
    17   13   14 2  
    18   13   15 am 
    19   16   17 1  
    20   17   18 2  
    21   18   19 1  
    22    2   20 1  
    23    4   21 1  
    24    4   22 1  
    25    4   23 1  
    26    9   24 1  
    27   15   25 1  
    28   18   26 1  
@<TRIPOS>SUBSTRUCTURE
     1 68C         1

