### 
### Created by X-TOOL on Mon Sep 10 21:13:30 2018
### 

@<TRIPOS>MOLECULE
5i5z_ligand
   42    45     1     0     0
SMALL
GAST_HUCK


@<TRIPOS>ATOM
      1 C1         36.8380   57.9070   55.3620 C.3       1 68U         0.0194
      2 C3         38.8830   59.0990   55.9990 C.2       1 68U         0.2284
      3 C5         40.1200   59.8280   55.6090 C.ar      1 68U         0.1263
      4 C7         41.7280   60.2360   53.9660 C.ar      1 68U         0.0717
      5 C8         42.4180   61.1120   54.8500 C.ar      1 68U         0.0324
      6 C11        43.5900   61.7400   54.4010 C.ar      1 68U         0.0243
      7 C15        41.6350   59.1410   51.6960 C.ar      1 68U        -0.0298
      8 C16        41.5400   57.7890   52.0170 C.ar      1 68U        -0.0618
      9 C17        40.9470   56.8920   51.1460 C.ar      1 68U         0.0031
     10 C18        40.7810   55.4100   51.4000 C.3       1 68U         0.1200
     11 O20        38.5900   54.5270   50.1820 O.2       1 68U        -0.1477
     12 N22        39.8470   56.3250   49.1040 N.am      1 68U        -0.1785
     13 C23        39.2480   56.5160   47.7770 C.3       1 68U         0.0451
     14 C24        40.4310   57.3060   49.9280 C.ar      1 68U         0.0754
     15 N2         38.0530   58.6450   55.0330 N.am      1 68U        -0.2862
     16 O4         38.6460   58.8830   57.1780 O.2       1 68U        -0.3755
     17 N6         40.6200   59.6370   54.3870 N.ar      1 68U        -0.2656
     18 C9         41.9100   61.3260   56.1500 C.ar      1 68U        -0.0249
     19 C10        40.7630   60.6820   56.5280 C.ar      1 68U        -0.0095
     20 N12        44.0510   61.5230   53.1850 N.ar      1 68U        -0.2955
     21 C13        43.4400   60.7120   52.3280 C.ar      1 68U         0.0159
     22 C14        42.2740   60.0460   52.6630 C.ar      1 68U         0.0168
     23 S19        39.9350   54.8680   49.8900 S.o2      1 68U         0.0702
     24 O21        40.8210   54.0840   49.1130 O.2       1 68U        -0.1477
     25 C25        40.5450   58.6900   49.6060 C.ar      1 68U        -0.0457
     26 C26        41.1350   59.5880   50.4730 C.ar      1 68U        -0.0715
     27 H1         36.3130   57.6331   54.4350 H         1 68U         0.0484
     28 H2         36.1830   58.5367   55.9819 H         1 68U         0.0484
     29 H3         37.1020   56.9947   55.9170 H         1 68U         0.0484
     30 H4         44.1234   62.4126   55.0629 H         1 68U         0.0852
     31 H5         41.9359   57.4347   52.9619 H         1 68U         0.0531
     32 H6         40.1662   55.2229   52.2927 H         1 68U         0.0656
     33 H7         41.7549   54.9116   51.5144 H         1 68U         0.0656
     34 H8         39.3210   57.5756   47.4909 H         1 68U         0.0521
     35 H9         38.1901   56.2160   47.8056 H         1 68U         0.0521
     36 H10        39.7842   55.8996   47.0405 H         1 68U         0.0521
     37 H11        38.2763   58.8185   54.0738 H         1 68U         0.1846
     38 H12        42.4206   61.9901   56.8380 H         1 68U         0.0796
     39 H13        40.3542   60.8268   57.5215 H         1 68U         0.0752
     40 H14        43.8656   60.5684   51.3414 H         1 68U         0.0778
     41 H15        40.1592   59.0459   48.6576 H         1 68U         0.0478
     42 H16        41.2093   60.6356   50.2045 H         1 68U         0.0550
@<TRIPOS>BOND
     1   15    1 1  
     2    3    2 1  
     3    2   15 am 
     4    2   16 2  
     5   17    3 ar 
     6    3   19 ar 
     7    4    5 ar 
     8    4   17 ar 
     9   22    4 ar 
    10    5    6 ar 
    11    5   18 ar 
    12    6   20 ar 
    13    8    7 ar 
    14    7   22 1  
    15    7   26 ar 
    16    9    8 ar 
    17    9   10 1  
    18   14    9 ar 
    19   10   23 1  
    20   23   11 2  
    21   12   13 1  
    22   12   14 1  
    23   12   23 am 
    24   14   25 ar 
    25   18   19 ar 
    26   20   21 ar 
    27   21   22 ar 
    28   23   24 2  
    29   25   26 ar 
    30    1   27 1  
    31    1   28 1  
    32    1   29 1  
    33    6   30 1  
    34    8   31 1  
    35   10   32 1  
    36   10   33 1  
    37   13   34 1  
    38   13   35 1  
    39   13   36 1  
    40   15   37 1  
    41   18   38 1  
    42   19   39 1  
    43   21   40 1  
    44   25   41 1  
    45   26   42 1  
@<TRIPOS>SUBSTRUCTURE
     1 68U         1

