### 
### Created by X-TOOL on Mon Sep 10 21:13:26 2018
### 

@<TRIPOS>MOLECULE
5i7u_ligand
   55    59     1     0     0
SMALL
GAST_HUCK


@<TRIPOS>ATOM
      1 C1         36.9960   49.1690   37.1540 C.ar      1 6AJ         0.0235
      2 C2         36.4270   47.9790   36.6050 C.ar      1 6AJ        -0.0121
      3 C3         35.0680   48.0110   36.2180 C.ar      1 6AJ         0.1363
      4 C4         34.2500   49.1230   36.3540 C.ar      1 6AJ        -0.0233
      5 C5         34.8110   50.3260   36.8960 C.ar      1 6AJ        -0.0348
      6 C6         36.1850   50.3270   37.2980 C.ar      1 6AJ         0.0955
      7 C7         37.5980   48.5230   40.6170 C.2       1 6AJ         0.3033
      8 C8         38.5540   49.4460   40.0060 C.2       1 6AJ         0.2973
      9 C9         39.3550   50.2940   40.7840 C.2       1 6AJ         0.2526
     10 C11        39.9360   50.6950   38.7960 C.2       1 6AJ         0.3025
     11 C15        38.4600   49.0550   37.4630 C.3       1 6AJ         0.1198
     12 C17        40.8020   52.6100   37.6810 C.3       1 6AJ         0.0936
     13 C18        41.1610   53.1190   36.2740 C.3       1 6AJ         0.0005
     14 C19        42.3660   52.2850   35.6930 C.3       1 6AJ        -0.0054
     15 C20        42.0740   50.7240   35.7630 C.3       1 6AJ        -0.0234
     16 C21        41.6450   50.2800   37.1750 C.3       1 6AJ         0.0515
     17 C30        36.7210   51.5310   37.7900 C.1       1 6AJ         0.0894
     18 C26        37.4860   48.1480   44.2400 C.2       1 6AJ         0.2028
     19 C23        38.5390   49.4180   42.7200 C.cat     1 6AJ         0.2343
     20 C25        36.8850   47.7210   42.9090 C.3       1 6AJ         0.1260
     21 C29        39.1560   49.7790   45.1360 C.3       1 6AJ         0.0253
     22 N31        37.1570   52.5060   38.1880 N.1       1 6AJ        -0.3380
     23 N10        40.1590   51.0830   40.0430 N.2       1 6AJ        -0.1838
     24 N13        39.3490   50.2910   42.2000 N.pl3     1 6AJ        -0.2142
     25 N12        38.9320   49.6920   38.7270 N.pl3     1 6AJ        -0.1168
     26 N16        40.5470   51.1590   37.6730 N.pl3     1 6AJ        -0.2216
     27 N24        37.6490   48.5560   42.0000 N.am      1 6AJ        -0.1954
     28 N27        38.4150   49.1480   44.0490 N.am      1 6AJ        -0.2282
     29 N22        39.8890   52.9010   35.4540 N.4       1 6AJ         0.2224
     30 O14        36.8480   47.7770   40.0330 O.2       1 6AJ        -0.3462
     31 O28        37.1910   47.6710   45.3350 O.2       1 6AJ        -0.3947
     32 F32        34.5990   46.8950   35.7010 F         1 6AJ        -0.1773
     33 H1         37.0196   47.0788   36.4888 H         1 6AJ         0.0567
     34 H2         33.2083   49.0833   36.0567 H         1 6AJ         0.0574
     35 H3         34.2054   51.2191   36.9996 H         1 6AJ         0.0690
     36 H4         39.0127   49.5163   36.6313 H         1 6AJ         0.0832
     37 H5         38.7063   47.9843   37.5178 H         1 6AJ         0.0832
     38 H6         39.8990   53.1311   38.0317 H         1 6AJ         0.0628
     39 H7         41.6373   52.8238   38.3640 H         1 6AJ         0.0628
     40 H8         41.4288   54.1856   36.2983 H         1 6AJ         0.0874
     41 H9         43.2707   52.5070   36.2780 H         1 6AJ         0.0321
     42 H10        42.5281   52.5726   34.6437 H         1 6AJ         0.0321
     43 H11        42.9870   50.1789   35.4814 H         1 6AJ         0.0290
     44 H12        41.2685   50.4812   35.0543 H         1 6AJ         0.0290
     45 H13        42.5056   50.3502   37.8565 H         1 6AJ         0.0571
     46 H14        41.2905   49.2394   37.1380 H         1 6AJ         0.0571
     47 H15        35.8088   47.9430   42.8584 H         1 6AJ         0.0764
     48 H16        37.0483   46.6510   42.7132 H         1 6AJ         0.0764
     49 H17        38.8347   49.3496   46.0964 H         1 6AJ         0.0486
     50 H18        38.9592   50.8612   45.1341 H         1 6AJ         0.0486
     51 H19        40.2327   49.6018   44.9971 H         1 6AJ         0.0486
     52 H20        39.9332   50.9229   42.7660 H         1 6AJ         0.2417
     53 H21        39.1378   53.4454   35.8481 H         1 6AJ         0.1998
     54 H22        39.6411   51.9241   35.4716 H         1 6AJ         0.1998
     55 H23        40.0495   53.1898   34.5017 H         1 6AJ         0.1998
@<TRIPOS>BOND
     1    1    2 ar 
     2    1    6 ar 
     3   11    1 1  
     4    2    3 ar 
     5    3    4 ar 
     6    3   32 1  
     7    5    4 ar 
     8    6    5 ar 
     9    6   17 1  
    10    7    8 1  
    11   27    7 am 
    12    7   30 2  
    13    9    8 2  
    14    8   25 1  
    15    9   23 1  
    16   24    9 1  
    17   23   10 2  
    18   25   10 1  
    19   10   26 1  
    20   25   11 1  
    21   12   13 1  
    22   26   12 1  
    23   13   14 1  
    24   13   29 1  
    25   15   14 1  
    26   16   15 1  
    27   26   16 1  
    28   17   22 3  
    29   18   20 1  
    30   28   18 am 
    31   18   31 2  
    32   19   24 ar 
    33   19   27 ar 
    34   19   28 ar 
    35   20   27 1  
    36   28   21 1  
    37    2   33 1  
    38    4   34 1  
    39    5   35 1  
    40   11   36 1  
    41   11   37 1  
    42   12   38 1  
    43   12   39 1  
    44   13   40 1  
    45   14   41 1  
    46   14   42 1  
    47   15   43 1  
    48   15   44 1  
    49   16   45 1  
    50   16   46 1  
    51   20   47 1  
    52   20   48 1  
    53   21   49 1  
    54   21   50 1  
    55   21   51 1  
    56   24   52 1  
    57   29   53 1  
    58   29   54 1  
    59   29   55 1  
@<TRIPOS>SUBSTRUCTURE
     1 6AJ         1

