### 
### Created by X-TOOL on Mon Sep 10 21:13:26 2018
### 

@<TRIPOS>MOLECULE
5i7y_ligand
   46    48     1     0     0
SMALL
GAST_HUCK


@<TRIPOS>ATOM
      1 C4        -19.2420    3.2350    9.7250 C.3       1 69G         0.0835
      2 C14       -19.1040    4.7130   11.6390 C.2       1 69G         0.2399
      3 C6        -17.3190    4.6930   10.0650 C.2       1 69G         0.0611
      4 C7        -16.5930    5.6240   10.7410 C.2       1 69G        -0.0151
      5 C8        -17.1710    6.1580   11.9860 C.2       1 69G        -0.0362
      6 C9        -16.7530    7.1080   12.9380 C.2       1 69G        -0.0722
      7 C10       -17.7210    7.1880   13.8750 C.2       1 69G         0.0187
      8 C13       -18.4290    5.6840   12.4000 C.2       1 69G         0.1258
      9 C3        -20.1120    3.8940    8.6800 C.2       1 69G        -0.0675
     10 C1        -21.1290    5.8340    7.5980 C.3       1 69G        -0.0485
     11 C2        -20.2530    5.1960    8.6440 C.2       1 69G        -0.0990
     12 N5        -18.5320    4.2440   10.5090 N.am      1 69G        -0.2041
     13 N11       -18.7380    6.3370   13.5700 N.pl3     1 69G        -0.2839
     14 O15       -20.1970    4.2910   12.0020 O.2       1 69G        -0.4055
     15 C16       -15.2800    6.1050   10.2160 C.ar      1 69G        -0.0387
     16 C17       -14.3730    5.1960    9.6670 C.ar      1 69G        -0.0627
     17 C18       -13.1560    5.6440    9.1770 C.ar      1 69G        -0.0651
     18 C19       -12.8340    6.9870    9.2060 C.ar      1 69G        -0.0504
     19 C20       -13.7260    7.9130    9.7490 C.ar      1 69G         0.0415
     20 C21       -14.9550    7.4620   10.2400 C.ar      1 69G        -0.0468
     21 C22       -13.3750    9.3570    9.7970 C.2       1 69G         0.2050
     22 O23       -13.1680    9.9830    8.7760 O.2       1 69G        -0.3845
     23 N24       -13.2570    9.9970   10.9810 N.am      1 69G        -0.2786
     24 C25       -12.9010   11.4170   11.0000 C.3       1 69G         0.0218
     25 C26       -13.4790    9.2970   12.2500 C.3       1 69G         0.0218
     26 H1        -18.5100    2.5819    9.2274 H         1 69G         0.0758
     27 H2        -19.8737    2.6338   10.3955 H         1 69G         0.0758
     28 H3        -16.9192    4.2902    9.1355 H         1 69G         0.1126
     29 H4        -15.8221    7.6728   12.9212 H         1 69G         0.0281
     30 H5        -17.6923    7.8387   14.7478 H         1 69G         0.0890
     31 H6        -20.6293    3.2777    7.9461 H         1 69G         0.0478
     32 H7        -21.1206    6.9261    7.7292 H         1 69G         0.0353
     33 H8        -22.1580    5.4599    7.7036 H         1 69G         0.0353
     34 H9        -20.7481    5.5820    6.5973 H         1 69G         0.0353
     35 H10       -19.7355    5.8186    9.3723 H         1 69G         0.0448
     36 H11       -19.5965    6.2041   14.1234 H         1 69G         0.2309
     37 H12       -14.6203    4.1414    9.6241 H         1 69G         0.0579
     38 H13       -12.4490    4.9323    8.7664 H         1 69G         0.0605
     39 H14       -11.8845    7.3231    8.8053 H         1 69G         0.0597
     40 H15       -15.6642    8.1752   10.6443 H         1 69G         0.0600
     41 H16       -12.8503   11.7684   12.0411 H         1 69G         0.0486
     42 H17       -13.6631   11.9934   10.4552 H         1 69G         0.0486
     43 H18       -11.9220   11.5561   10.5181 H         1 69G         0.0486
     44 H19       -13.7356    8.2464   12.0492 H         1 69G         0.0486
     45 H20       -14.3045    9.7783   12.7948 H         1 69G         0.0486
     46 H21       -12.5634    9.3410   12.8581 H         1 69G         0.0486
@<TRIPOS>BOND
     1    1    9 1  
     2   12    1 1  
     3    2    8 1  
     4   12    2 am 
     5    2   14 2  
     6    3    4 2  
     7    3   12 1  
     8    4    5 1  
     9    4   15 1  
    10    5    6 1  
    11    5    8 2  
    12    6    7 2  
    13    7   13 1  
    14    8   13 1  
    15    9   11 2  
    16   11   10 1  
    17   15   16 ar 
    18   15   20 ar 
    19   16   17 ar 
    20   17   18 ar 
    21   18   19 ar 
    22   19   20 ar 
    23   19   21 1  
    24   21   22 2  
    25   21   23 am 
    26   23   24 1  
    27   23   25 1  
    28    1   26 1  
    29    1   27 1  
    30    3   28 1  
    31    6   29 1  
    32    7   30 1  
    33    9   31 1  
    34   10   32 1  
    35   10   33 1  
    36   10   34 1  
    37   11   35 1  
    38   13   36 1  
    39   16   37 1  
    40   17   38 1  
    41   18   39 1  
    42   20   40 1  
    43   24   41 1  
    44   24   42 1  
    45   24   43 1  
    46   25   44 1  
    47   25   45 1  
    48   25   46 1  
@<TRIPOS>SUBSTRUCTURE
     1 69G         1

