### 
### Created by X-TOOL on Mon Sep 10 21:13:26 2018
### 

@<TRIPOS>MOLECULE
5i80_ligand
   39    41     1     0     0
SMALL
GAST_HUCK


@<TRIPOS>ATOM
      1 C4        -14.9500   -0.3860   10.2200 C.ar      1 67B        -0.0504
      2 C2        -15.0510   -0.4560    7.7270 C.2       1 67B         0.2050
      3 C1        -14.6270    0.1380    5.4130 C.3       1 67B         0.0218
      4 C5        -14.7070   -1.0290   11.4230 C.ar      1 67B        -0.0651
      5 C8        -14.3760   -2.4330    9.0980 C.ar      1 67B        -0.0468
      6 C9        -13.6580   -4.4860   10.2790 C.2       1 67B        -0.0153
      7 C6        -14.2920   -2.3570   11.4830 C.ar      1 67B        -0.0627
      8 C10       -12.6530   -4.8560   11.1250 C.2       1 67B         0.0588
      9 C11       -11.0340   -6.3960   12.0710 C.3       1 67B         0.0555
     10 O1        -12.0690   -8.2200   10.3350 O.2       1 67B        -0.4057
     11 C12       -12.5660   -7.0890   10.3080 C.2       1 67B         0.2381
     12 N1        -12.1340   -6.1180   11.1370 N.am      1 67B        -0.2151
     13 C13       -13.6070   -6.8040    9.4080 C.2       1 67B         0.1256
     14 N2        -14.2510   -7.5610    8.4690 N.pl3     1 67B        -0.2840
     15 C16       -15.1900   -6.7880    7.8530 C.2       1 67B         0.0187
     16 C15       -15.1750   -5.5420    8.3720 C.2       1 67B        -0.0722
     17 C14       -14.1760   -5.5140    9.3660 C.2       1 67B        -0.0362
     18 C7        -14.1310   -3.0770   10.3000 C.ar      1 67B        -0.0387
     19 C3        -14.7690   -1.0940    9.0330 C.ar      1 67B         0.0415
     20 O         -16.1090    0.1290    7.6120 O.2       1 67B        -0.3845
     21 N         -14.2120   -0.5080    6.6610 N.am      1 67B        -0.2786
     22 C         -12.8920   -1.1610    6.6730 C.3       1 67B         0.0218
     23 H1        -15.2747    0.6481   10.2022 H         1 67B         0.0597
     24 H2        -13.8423    0.0064    4.6535 H         1 67B         0.0486
     25 H3        -14.7880    1.2114    5.5916 H         1 67B         0.0486
     26 H4        -15.5622   -0.3188    5.0570 H         1 67B         0.0486
     27 H5        -14.8444   -0.4804   12.3478 H         1 67B         0.0605
     28 H6        -14.2585   -2.9883    8.1745 H         1 67B         0.0600
     29 H7        -14.0960   -2.8264   12.4403 H         1 67B         0.0579
     30 H8        -12.2504   -4.1168   11.8160 H         1 67B         0.1124
     31 H9        -10.8188   -5.4941   12.6629 H         1 67B         0.0596
     32 H10       -10.1365   -6.6857   11.5048 H         1 67B         0.0596
     33 H11       -11.3233   -7.2162   12.7445 H         1 67B         0.0596
     34 H12       -14.0586   -8.5513    8.2614 H         1 67B         0.2309
     35 H13       -15.8544   -7.1260    7.0591 H         1 67B         0.0890
     36 H14       -15.8159   -4.7123    8.0774 H         1 67B         0.0281
     37 H15       -12.7099   -1.6016    7.6643 H         1 67B         0.0486
     38 H16       -12.1125   -0.4164    6.4540 H         1 67B         0.0486
     39 H17       -12.8676   -1.9528    5.9098 H         1 67B         0.0486
@<TRIPOS>BOND
     1    4    1 ar 
     2   19    1 ar 
     3   19    2 1  
     4    2   20 2  
     5    2   21 am 
     6   21    3 1  
     7    7    4 ar 
     8   18    5 ar 
     9    5   19 ar 
    10    8    6 2  
    11    6   17 1  
    12    6   18 1  
    13   18    7 ar 
    14   12    8 1  
    15   12    9 1  
    16   11   10 2  
    17   11   12 am 
    18   11   13 1  
    19   13   14 1  
    20   13   17 2  
    21   14   15 1  
    22   15   16 2  
    23   16   17 1  
    24   21   22 1  
    25    1   23 1  
    26    3   24 1  
    27    3   25 1  
    28    3   26 1  
    29    4   27 1  
    30    5   28 1  
    31    7   29 1  
    32    8   30 1  
    33    9   31 1  
    34    9   32 1  
    35    9   33 1  
    36   14   34 1  
    37   15   35 1  
    38   16   36 1  
    39   22   37 1  
    40   22   38 1  
    41   22   39 1  
@<TRIPOS>SUBSTRUCTURE
     1 67B         1

