### 
### Created by X-TOOL on Mon Sep 10 21:13:26 2018
### 

@<TRIPOS>MOLECULE
5i83_ligand
   42    44     1     0     0
SMALL
GAST_HUCK


@<TRIPOS>ATOM
      1 CAJ         2.0480   -2.0670    3.3240 C.ar      1 68Y        -0.0279
      2 CAF         3.4390   -2.1750    3.4300 C.ar      1 68Y         0.0534
      3 NAE         4.1590   -2.1160    2.2450 N.pl3     1 68Y        -0.3252
      4 CAD         5.3850   -1.2900    2.0350 C.3       1 68Y         0.0470
      5 CAH         6.4050   -2.0110    1.1580 C.3       1 68Y        -0.0409
      6 CAC         6.0410   -0.8850    3.3720 C.3       1 68Y         0.0635
      7 CAB         6.3570   -2.0440    4.1260 C.2       1 68Y         0.1998
      8 OAI         7.5070   -2.4760    4.2760 O.2       1 68Y        -0.3878
      9 NAA         5.3780   -2.6940    4.8090 N.am      1 68Y        -0.2445
     10 CAG         4.0100   -2.4260    4.6440 C.ar      1 68Y         0.0748
     11 CAM         3.2340   -2.5360    5.7840 C.ar      1 68Y        -0.0601
     12 CAL         1.8440   -2.5090    5.6780 C.ar      1 68Y        -0.0595
     13 CAK         1.2400   -2.3010    4.4410 C.ar      1 68Y         0.0674
     14 OAN        -0.1380   -2.2200    4.3990 O.3       1 68Y        -0.3154
     15 CAO        -0.8070   -2.3890    3.1410 C.3       1 68Y         0.1088
     16 CAP        -2.2870   -2.1090    3.3900 C.3       1 68Y        -0.0246
     17 CAQ        -0.6990   -3.6960    2.5780 C.ar      1 68Y        -0.0106
     18 CAR        -0.1460   -4.8140    3.2130 C.ar      1 68Y        -0.0575
     19 CAS        -0.1600   -6.0620    2.5490 C.ar      1 68Y        -0.0685
     20 CAT        -0.6440   -6.1630    1.2500 C.ar      1 68Y        -0.0687
     21 CAU        -1.1630   -5.0360    0.6190 C.ar      1 68Y        -0.0685
     22 CAV        -1.1930   -3.8280    1.2850 C.ar      1 68Y        -0.0575
     23 H1          1.5963   -1.8017    2.3750 H         1 68Y         0.0397
     24 H2          3.8234   -2.6829    1.4532 H         1 68Y         0.1718
     25 H3          5.0802   -0.3698    1.5150 H         1 68Y         0.0566
     26 H4          7.2914   -1.3731    1.0265 H         1 68Y         0.0253
     27 H5          5.9581   -2.2248    0.1759 H         1 68Y         0.0253
     28 H6          6.7007   -2.9547    1.6396 H         1 68Y         0.0253
     29 H7          5.3433   -0.2564    3.9448 H         1 68Y         0.0528
     30 H8          6.9624   -0.3194    3.1695 H         1 68Y         0.0528
     31 H9          5.6465   -3.4006    5.4637 H         1 68Y         0.2181
     32 H10         3.7043   -2.6427    6.7548 H         1 68Y         0.0435
     33 H11         1.2318   -2.6504    6.5614 H         1 68Y         0.0395
     34 H12        -0.3987   -1.6632    2.4224 H         1 68Y         0.0806
     35 H13        -2.8456   -2.2264    2.4497 H         1 68Y         0.0280
     36 H14        -2.4081   -1.0811    3.7625 H         1 68Y         0.0280
     37 H15        -2.6737   -2.8178    4.1371 H         1 68Y         0.0280
     38 H16         0.2879   -4.7240    4.2023 H         1 68Y         0.0558
     39 H17         0.2092   -6.9460    3.0563 H         1 68Y         0.0599
     40 H18        -0.6175   -7.1143    0.7311 H         1 68Y         0.0559
     41 H19        -1.5429   -5.1073   -0.3938 H         1 68Y         0.0599
     42 H20        -1.6120   -2.9605    0.7880 H         1 68Y         0.0558
@<TRIPOS>BOND
     1    1    2 ar 
     2    1   13 ar 
     3    2    3 1  
     4    2   10 ar 
     5    3    4 1  
     6    4    5 1  
     7    4    6 1  
     8    6    7 1  
     9    7    8 2  
    10    7    9 am 
    11    9   10 1  
    12   10   11 ar 
    13   11   12 ar 
    14   12   13 ar 
    15   13   14 1  
    16   14   15 1  
    17   15   16 1  
    18   15   17 1  
    19   17   18 ar 
    20   17   22 ar 
    21   18   19 ar 
    22   19   20 ar 
    23   20   21 ar 
    24   21   22 ar 
    25    1   23 1  
    26    3   24 1  
    27    4   25 1  
    28    5   26 1  
    29    5   27 1  
    30    5   28 1  
    31    6   29 1  
    32    6   30 1  
    33    9   31 1  
    34   11   32 1  
    35   12   33 1  
    36   15   34 1  
    37   16   35 1  
    38   16   36 1  
    39   16   37 1  
    40   18   38 1  
    41   19   39 1  
    42   20   40 1  
    43   21   41 1  
    44   22   42 1  
@<TRIPOS>SUBSTRUCTURE
     1 68Y         1

