### 
### Created by X-TOOL on Mon Sep 10 21:13:25 2018
### 

@<TRIPOS>MOLECULE
5i86_ligand
   42    44     1     0     0
SMALL
GAST_HUCK


@<TRIPOS>ATOM
      1 CAI       -53.1300    4.2930  -10.2470 C.ar      1 69A        -0.0693
      2 CAJ       -53.9900    5.3700  -10.3950 C.ar      1 69A        -0.0837
      3 CAK       -55.3510    5.1160  -10.5570 C.ar      1 69A        -0.0478
      4 CAE       -55.8230    3.8040  -10.4910 C.ar      1 69A         0.0922
      5 NAF       -57.1910    3.6060  -10.7990 N.am      1 69A        -0.2371
      6 CAG       -58.0390    2.7540  -10.1340 C.2       1 69A         0.2028
      7 OAM       -59.1920    2.5980  -10.5870 O.2       1 69A        -0.3863
      8 CAA       -57.5610    2.1250   -8.9440 C.3       1 69A         0.0645
      9 CAB       -56.5670    0.9950   -9.2430 C.3       1 69A         0.0487
     10 CAL       -57.2930   -0.2130   -9.7890 C.3       1 69A        -0.0406
     11 NAC       -55.4510    1.4350  -10.1570 N.pl3     1 69A        -0.3185
     12 CAD       -54.9680    2.7420  -10.2600 C.ar      1 69A         0.0837
     13 CAH       -53.5740    2.9770  -10.1790 C.ar      1 69A         0.0546
     14 CAN       -52.6210    1.9510  -10.1630 C.2       1 69A         0.1944
     15 OAP       -52.8950    0.7980   -9.8350 O.2       1 69A        -0.3927
     16 NAO       -51.4240    2.2680  -10.7100 N.am      1 69A        -0.2774
     17 CAQ       -50.3630    1.2600  -10.8840 C.3       1 69A         0.0636
     18 CAR       -50.4860    0.4310  -12.0290 C.ar      1 69A        -0.0211
     19 CAS       -49.6460   -0.6730  -12.1050 C.ar      1 69A        -0.0584
     20 CAT       -49.6380   -1.5150  -13.2110 C.ar      1 69A        -0.0685
     21 CAU       -50.5950   -1.3420  -14.1950 C.ar      1 69A        -0.0687
     22 CAV       -51.4270   -0.2320  -14.1490 C.ar      1 69A        -0.0685
     23 CAW       -51.4020    0.6300  -13.0510 C.ar      1 69A        -0.0584
     24 H1        -52.0651    4.4850  -10.1814 H         1 69A         0.0501
     25 H2        -53.6129    6.3862  -10.3850 H         1 69A         0.0479
     26 H3        -56.0400    5.9340  -10.7335 H         1 69A         0.0490
     27 H4        -57.5705    4.1287  -11.5624 H         1 69A         0.2219
     28 H5        -58.4181    1.7066   -8.3960 H         1 69A         0.0529
     29 H6        -57.0607    2.8807   -8.3206 H         1 69A         0.0529
     30 H7        -56.1065    0.7013   -8.2882 H         1 69A         0.0569
     31 H8        -56.5677   -1.0132   -9.9980 H         1 69A         0.0253
     32 H9        -57.8141    0.0613  -10.7181 H         1 69A         0.0253
     33 H10       -58.0254   -0.5664   -9.0483 H         1 69A         0.0253
     34 H11       -55.0113    0.7172  -10.7506 H         1 69A         0.1748
     35 H12       -51.2556    3.2091  -11.0032 H         1 69A         0.1866
     36 H13       -50.3632    0.6117   -9.9954 H         1 69A         0.0682
     37 H14       -49.4011    1.7894  -10.9514 H         1 69A         0.0682
     38 H15       -48.9776   -0.8838  -11.2780 H         1 69A         0.0557
     39 H16       -48.8922   -2.2964  -13.3013 H         1 69A         0.0599
     40 H17       -50.6942   -2.0669  -14.9948 H         1 69A         0.0559
     41 H18       -52.1024   -0.0325  -14.9731 H         1 69A         0.0599
     42 H19       -52.1006    1.4571  -12.9972 H         1 69A         0.0557
@<TRIPOS>BOND
     1    1    2 ar 
     2    1   13 ar 
     3    2    3 ar 
     4    3    4 ar 
     5    4    5 1  
     6    4   12 ar 
     7    5    6 am 
     8    6    7 2  
     9    6    8 1  
    10    8    9 1  
    11    9   10 1  
    12    9   11 1  
    13   11   12 1  
    14   12   13 ar 
    15   13   14 1  
    16   14   15 2  
    17   14   16 am 
    18   16   17 1  
    19   17   18 1  
    20   18   19 ar 
    21   18   23 ar 
    22   19   20 ar 
    23   20   21 ar 
    24   21   22 ar 
    25   22   23 ar 
    26    1   24 1  
    27    2   25 1  
    28    3   26 1  
    29    5   27 1  
    30    8   28 1  
    31    8   29 1  
    32    9   30 1  
    33   10   31 1  
    34   10   32 1  
    35   10   33 1  
    36   11   34 1  
    37   16   35 1  
    38   17   36 1  
    39   17   37 1  
    40   19   38 1  
    41   20   39 1  
    42   21   40 1  
    43   22   41 1  
    44   23   42 1  
@<TRIPOS>SUBSTRUCTURE
     1 69A         1

