### 
### Created by X-TOOL on Mon Sep 10 21:13:26 2018
### 

@<TRIPOS>MOLECULE
5i88_ligand
   46    48     1     0     0
SMALL
GAST_HUCK


@<TRIPOS>ATOM
      1 C4        -10.8300   -6.4110   11.9310 C.3       1 69G         0.0835
      2 C14       -12.4950   -7.1240   10.3320 C.2       1 69G         0.2399
      3 C6        -12.6100   -4.9090   11.2090 C.2       1 69G         0.0611
      4 C7        -13.7080   -4.5990   10.4700 C.2       1 69G        -0.0151
      5 C8        -14.2520   -5.6250    9.5780 C.2       1 69G        -0.0362
      6 C9        -15.3270   -5.6770    8.6720 C.2       1 69G        -0.0722
      7 C10       -15.3320   -6.9040    8.1150 C.2       1 69G         0.0187
      8 C13       -13.6220   -6.8770    9.5260 C.2       1 69G         0.1258
      9 C3        -11.0700   -6.4010   13.4180 C.2       1 69G        -0.0675
     10 C1        -10.7200   -5.3090   15.6000 C.3       1 69G        -0.0485
     11 C2        -10.5430   -5.4040   14.1010 C.2       1 69G        -0.0990
     12 N5        -12.0400   -6.1510   11.1410 N.am      1 69G        -0.2041
     13 N11       -14.3030   -7.6470    8.6160 N.pl3     1 69G        -0.2839
     14 O15       -11.9310   -8.2210   10.2840 O.2       1 69G        -0.4055
     15 C16       -14.2530   -3.2330   10.5270 C.ar      1 69G        -0.0387
     16 C17       -14.4210   -2.5590   11.7340 C.ar      1 69G        -0.0627
     17 C18       -14.8980   -1.2660   11.7470 C.ar      1 69G        -0.0651
     18 C19       -15.1930   -0.6130   10.5630 C.ar      1 69G        -0.0504
     19 C20       -15.0010   -1.2710    9.3470 C.ar      1 69G         0.0415
     20 C21       -14.5300   -2.5830    9.3270 C.ar      1 69G        -0.0468
     21 C22       -15.3310   -0.5620    8.0910 C.2       1 69G         0.2050
     22 O23       -16.4080   -0.0150    8.0120 O.2       1 69G        -0.3845
     23 N24       -14.4830   -0.4920    7.0400 N.am      1 69G        -0.2786
     24 C25       -14.9090    0.2370    5.8430 C.3       1 69G         0.0218
     25 C26       -13.1540   -1.1070    7.0460 C.3       1 69G         0.0218
     26 H1        -10.4352   -7.3981   11.6486 H         1 69G         0.0758
     27 H2        -10.0858   -5.6367   11.6931 H         1 69G         0.0758
     28 H3        -12.1768   -4.1563   11.8661 H         1 69G         0.1126
     29 H4        -16.0282   -4.8714    8.4593 H         1 69G         0.0281
     30 H5        -16.0510   -7.2513    7.3745 H         1 69G         0.0890
     31 H6        -11.6519   -7.1812   13.9064 H         1 69G         0.0478
     32 H7        -10.2068   -4.4106   15.9736 H         1 69G         0.0353
     33 H8        -10.2901   -6.2019   16.0773 H         1 69G         0.0353
     34 H9        -11.7917   -5.2452   15.8394 H         1 69G         0.0353
     35 H10        -9.9721   -4.6380   13.5783 H         1 69G         0.0448
     36 H11       -14.0764   -8.6176    8.3564 H         1 69G         0.2309
     37 H12       -14.1756   -3.0533   12.6670 H         1 69G         0.0579
     38 H13       -15.0433   -0.7562   12.6926 H         1 69G         0.0605
     39 H14       -15.5707    0.4029   10.5798 H         1 69G         0.0597
     40 H15       -14.3803   -3.0942    8.3829 H         1 69G         0.0600
     41 H16       -14.1106    0.1993    5.0873 H         1 69G         0.0486
     42 H17       -15.1157    1.2849    6.1060 H         1 69G         0.0486
     43 H18       -15.8205   -0.2258    5.4368 H         1 69G         0.0486
     44 H19       -12.9881   -1.6120    8.0090 H         1 69G         0.0486
     45 H20       -12.3894   -0.3292    6.9034 H         1 69G         0.0486
     46 H21       -13.0863   -1.8418    6.2302 H         1 69G         0.0486
@<TRIPOS>BOND
     1    1    9 1  
     2   12    1 1  
     3    2    8 1  
     4   12    2 am 
     5    2   14 2  
     6    3    4 2  
     7    3   12 1  
     8    4    5 1  
     9    4   15 1  
    10    5    6 1  
    11    5    8 2  
    12    6    7 2  
    13    7   13 1  
    14    8   13 1  
    15    9   11 2  
    16   11   10 1  
    17   15   16 ar 
    18   15   20 ar 
    19   16   17 ar 
    20   17   18 ar 
    21   18   19 ar 
    22   19   20 ar 
    23   19   21 1  
    24   21   22 2  
    25   21   23 am 
    26   23   24 1  
    27   23   25 1  
    28    1   26 1  
    29    1   27 1  
    30    3   28 1  
    31    6   29 1  
    32    7   30 1  
    33    9   31 1  
    34   10   32 1  
    35   10   33 1  
    36   10   34 1  
    37   11   35 1  
    38   13   36 1  
    39   16   37 1  
    40   17   38 1  
    41   18   39 1  
    42   20   40 1  
    43   24   41 1  
    44   24   42 1  
    45   24   43 1  
    46   25   44 1  
    47   25   45 1  
    48   25   46 1  
@<TRIPOS>SUBSTRUCTURE
     1 69G         1

