### 
### Created by X-TOOL on Mon Sep 10 21:13:25 2018
### 

@<TRIPOS>MOLECULE
5i89_ligand
   48    52     1     0     0
SMALL
GAST_HUCK


@<TRIPOS>ATOM
      1 CAY       -23.7190   -0.0350   21.5660 C.3       1 69B        -0.0385
      2 CAZ       -24.0830   -1.2350   22.4170 C.3       1 69B        -0.0385
      3 CAW       -22.8930   -0.3640   22.8000 C.3       1 69B         0.0014
      4 CAV       -21.4600   -0.8740   22.5770 C.2       1 69B         0.0376
      5 CAR       -20.7690   -1.7750   23.3250 C.ar      1 69B         0.0140
      6 CAS       -21.0630   -2.5260   24.4230 C.ar      1 69B        -0.0591
      7 NAU       -20.6740   -0.3350   21.6530 N.2       1 69B        -0.2162
      8 NAT       -19.5280   -0.9430   21.7430 N.pl3     1 69B        -0.2136
      9 CAX       -18.3690   -0.5420   20.9180 C.3       1 69B         0.0517
     10 CAQ       -19.5310   -1.8110   22.7820 C.ar      1 69B         0.0856
     11 CAP       -18.5700   -2.6430   23.2600 C.ar      1 69B        -0.0365
     12 CAO       -18.8600   -3.4850   24.3390 C.ar      1 69B        -0.0655
     13 CAN       -20.1090   -3.4150   24.9780 C.ar      1 69B        -0.0375
     14 CAJ       -20.4080   -4.1610   26.1640 C.ar      1 69B        -0.0174
     15 CAF       -20.4630   -5.5730   26.2030 C.ar      1 69B         0.0698
     16 NAE       -20.2270   -6.2860   25.0120 N.pl3     1 69B        -0.3220
     17 CAD       -19.1890   -7.3330   24.9070 C.3       1 69B         0.0477
     18 CAI       -19.5260   -8.2620   23.7490 C.3       1 69B        -0.0408
     19 CAC       -19.0580   -8.1250   26.2370 C.3       1 69B         0.0643
     20 CAB       -20.3340   -8.5320   26.7290 C.2       1 69B         0.2025
     21 OAH       -20.7570   -9.6960   26.6170 O.2       1 69B        -0.3864
     22 NAA       -21.1220   -7.5990   27.3740 N.am      1 69B        -0.2385
     23 CAG       -20.8620   -6.2240   27.3620 C.ar      1 69B         0.0861
     24 CAM       -21.1900   -5.5110   28.5200 C.ar      1 69B        -0.0527
     25 CAL       -21.0840   -4.1240   28.5180 C.ar      1 69B        -0.0891
     26 CAK       -20.7400   -3.4680   27.3370 C.ar      1 69B        -0.0824
     27 H1        -24.3692    0.8523   21.5607 H         1 69B         0.0290
     28 H2        -23.2911   -0.1821   20.5634 H         1 69B         0.0290
     29 H3        -23.9185   -2.2522   22.0321 H         1 69B         0.0290
     30 H4        -24.9965   -1.2179   23.0295 H         1 69B         0.0290
     31 H5        -22.9361    0.2692   23.6984 H         1 69B         0.0457
     32 H6        -22.0426   -2.4422   24.8796 H         1 69B         0.0583
     33 H7        -17.5096   -1.1863   21.1553 H         1 69B         0.0571
     34 H8        -18.1117    0.5059   21.1318 H         1 69B         0.0571
     35 H9        -18.6231   -0.6472   19.8529 H         1 69B         0.0571
     36 H10       -17.5846   -2.6546   22.8084 H         1 69B         0.0556
     37 H11       -18.1170   -4.1951   24.6837 H         1 69B         0.0573
     38 H12       -20.7990   -6.0699   24.1831 H         1 69B         0.1731
     39 H13       -18.2234   -6.8491   24.6983 H         1 69B         0.0568
     40 H14       -18.7549   -9.0423   23.6686 H         1 69B         0.0253
     41 H15       -19.5617   -7.6841   22.8137 H         1 69B         0.0253
     42 H16       -20.5048   -8.7309   23.9279 H         1 69B         0.0253
     43 H17       -18.5725   -7.4849   26.9883 H         1 69B         0.0529
     44 H18       -18.4405   -9.0183   26.0621 H         1 69B         0.0529
     45 H19       -21.9226   -7.9240   27.8774 H         1 69B         0.2216
     46 H20       -21.5232   -6.0337   29.4093 H         1 69B         0.0453
     47 H21       -21.2669   -3.5593   29.4250 H         1 69B         0.0468
     48 H22       -20.7288   -2.3841   27.3250 H         1 69B         0.0449
@<TRIPOS>BOND
     1    1    2 1  
     2    1    3 1  
     3    2    3 1  
     4    3    4 1  
     5    4    5 1  
     6    4    7 2  
     7    5    6 ar 
     8    5   10 ar 
     9    6   13 ar 
    10    7    8 1  
    11    8    9 1  
    12    8   10 1  
    13   10   11 ar 
    14   11   12 ar 
    15   12   13 ar 
    16   13   14 1  
    17   14   15 ar 
    18   14   26 ar 
    19   15   16 1  
    20   15   23 ar 
    21   16   17 1  
    22   17   18 1  
    23   17   19 1  
    24   19   20 1  
    25   20   21 2  
    26   20   22 am 
    27   22   23 1  
    28   23   24 ar 
    29   24   25 ar 
    30   25   26 ar 
    31    1   27 1  
    32    1   28 1  
    33    2   29 1  
    34    2   30 1  
    35    3   31 1  
    36    6   32 1  
    37    9   33 1  
    38    9   34 1  
    39    9   35 1  
    40   11   36 1  
    41   12   37 1  
    42   16   38 1  
    43   17   39 1  
    44   18   40 1  
    45   18   41 1  
    46   18   42 1  
    47   19   43 1  
    48   19   44 1  
    49   22   45 1  
    50   24   46 1  
    51   25   47 1  
    52   26   48 1  
@<TRIPOS>SUBSTRUCTURE
     1 69B         1

