### 
### Created by X-TOOL on Mon Sep 10 21:13:28 2018
### 

@<TRIPOS>MOLECULE
5i8b_ligand
   49    52     1     0     0
SMALL
GAST_HUCK


@<TRIPOS>ATOM
      1 C4         26.5240   12.3280   14.7010 C.3       1 69F         0.0643
      2 C5         26.3070   12.4370   13.2270 C.2       1 69F         0.2026
      3 C11        30.7420   14.8730   13.8000 C.ar      1 69F        -0.0803
      4 C8         28.3500   13.7320   13.0030 C.ar      1 69F         0.0879
      5 C9         28.6860   15.0090   12.5750 C.ar      1 69F        -0.0513
      6 C10        29.8750   15.5830   12.9920 C.ar      1 69F        -0.0877
      7 C12        30.4270   13.5740   14.2240 C.ar      1 69F        -0.0136
      8 C13        29.2120   12.9840   13.8240 C.ar      1 69F         0.0724
      9 C1         27.2050    9.9600   14.6170 C.3       1 69F        -0.0407
     10 C2         27.6740   11.3660   14.9910 C.3       1 69F         0.0481
     11 O6         25.3490   11.9340   12.6600 O.2       1 69F        -0.3864
     12 N7         27.1760   13.1510   12.5120 N.am      1 69F        -0.2381
     13 N14        28.9190   11.6700   14.2350 N.pl3     1 69F        -0.3209
     14 C15        31.4010   12.8540   15.0830 C.ar      1 69F        -0.0369
     15 C16        31.1260   12.4870   16.4000 C.ar      1 69F        -0.0690
     16 C17        32.0910   11.8220   17.1400 C.ar      1 69F        -0.0722
     17 C18        33.3250   11.5140   16.5930 C.ar      1 69F        -0.0349
     18 C19        33.6010   11.8710   15.2800 C.ar      1 69F         0.0918
     19 C20        32.6490   12.5470   14.5300 C.ar      1 69F        -0.0298
     20 O21        34.8170   11.5630   14.7520 O.3       1 69F        -0.3062
     21 C22        35.0940   11.8670   13.3790 C.3       1 69F         0.1042
     22 C23        36.5010   11.4050   13.0960 C.ar      1 69F        -0.0129
     23 C24        37.4670   12.3080   12.6800 C.ar      1 69F        -0.0578
     24 C25        38.7560   11.8710   12.4310 C.ar      1 69F        -0.0685
     25 C26        39.0800   10.5360   12.6050 C.ar      1 69F        -0.0687
     26 C27        38.1160    9.6360   13.0210 C.ar      1 69F        -0.0685
     27 C28        36.8270   10.0720   13.2720 C.ar      1 69F        -0.0578
     28 H1         25.6064   11.9525   15.1773 H         1 69F         0.0529
     29 H2         26.7684   13.3205   15.1074 H         1 69F         0.0529
     30 H3         31.6770   15.3255   14.1099 H         1 69F         0.0461
     31 H4         28.0199   15.5549   11.9167 H         1 69F         0.0464
     32 H5         30.1261   16.5915   12.6839 H         1 69F         0.0472
     33 H6         28.0125    9.2396   14.8142 H         1 69F         0.0253
     34 H7         26.9423    9.9330   13.5492 H         1 69F         0.0253
     35 H8         26.3228    9.6956   15.2185 H         1 69F         0.0253
     36 H9         27.9025   11.4061   16.0663 H         1 69F         0.0568
     37 H10        26.9714   13.2826   11.5420 H         1 69F         0.2217
     38 H11        29.5752   10.9088   14.0094 H         1 69F         0.1737
     39 H12        30.1641   12.7202   16.8420 H         1 69F         0.0510
     40 H13        31.8760   11.5384   18.1639 H         1 69F         0.0584
     41 H14        34.0709   10.9974   17.1861 H         1 69F         0.0527
     42 H15        32.8734   12.8387   13.5104 H         1 69F         0.0521
     43 H16        35.0116   12.9506   13.2087 H         1 69F         0.0778
     44 H17        34.3849   11.3381   12.7252 H         1 69F         0.0778
     45 H18        37.2132   13.3538   12.5501 H         1 69F         0.0557
     46 H19        39.5121   12.5736   12.0998 H         1 69F         0.0599
     47 H20        40.0915   10.1957   12.4147 H         1 69F         0.0559
     48 H21        38.3699    8.5901   13.1503 H         1 69F         0.0599
     49 H22        36.0726    9.3691   13.6065 H         1 69F         0.0557
@<TRIPOS>BOND
     1    2    1 1  
     2    1   10 1  
     3    2   11 2  
     4   12    2 am 
     5    6    3 ar 
     6    3    7 ar 
     7    5    4 ar 
     8    4    8 ar 
     9    4   12 1  
    10    5    6 ar 
    11    7    8 ar 
    12    7   14 1  
    13    8   13 1  
    14   10    9 1  
    15   10   13 1  
    16   14   15 ar 
    17   14   19 ar 
    18   15   16 ar 
    19   16   17 ar 
    20   17   18 ar 
    21   18   19 ar 
    22   18   20 1  
    23   20   21 1  
    24   21   22 1  
    25   22   23 ar 
    26   22   27 ar 
    27   23   24 ar 
    28   24   25 ar 
    29   25   26 ar 
    30   26   27 ar 
    31    1   28 1  
    32    1   29 1  
    33    3   30 1  
    34    5   31 1  
    35    6   32 1  
    36    9   33 1  
    37    9   34 1  
    38    9   35 1  
    39   10   36 1  
    40   12   37 1  
    41   13   38 1  
    42   15   39 1  
    43   16   40 1  
    44   17   41 1  
    45   19   42 1  
    46   21   43 1  
    47   21   44 1  
    48   23   45 1  
    49   24   46 1  
    50   25   47 1  
    51   26   48 1  
    52   27   49 1  
@<TRIPOS>SUBSTRUCTURE
     1 69F         1

