### 
### Created by X-TOOL on Mon Sep 10 21:13:28 2018
### 

@<TRIPOS>MOLECULE
5i8g_ligand
   51    55     1     0     0
SMALL
GAST_HUCK


@<TRIPOS>ATOM
      1 C4         26.5660   12.3470   14.6420 C.3       1 69E         0.0643
      2 C5         26.3530   12.4300   13.1650 C.2       1 69E         0.2025
      3 C11        30.8660   14.7020   13.7390 C.ar      1 69E        -0.0824
      4 C8         28.4460   13.6390   12.9540 C.ar      1 69E         0.0862
      5 C9         28.8360   14.8920   12.4980 C.ar      1 69E        -0.0526
      6 C10        30.0430   15.4290   12.9080 C.ar      1 69E        -0.0891
      7 C12        30.4960   13.4290   14.1880 C.ar      1 69E        -0.0173
      8 C13        29.2650   12.8800   13.8050 C.ar      1 69E         0.0699
      9 C1         27.1630    9.9360   14.5940 C.3       1 69E        -0.0408
     10 C2         27.6600   11.3340   14.9610 C.3       1 69E         0.0478
     11 O6         25.3880   11.9460   12.6080 O.2       1 69E        -0.3864
     12 N7         27.2530   13.0970   12.4550 N.am      1 69E        -0.2385
     13 N14        28.9320   11.5880   14.2400 N.pl3     1 69E        -0.3220
     14 C15        31.4690   12.7470   15.0810 C.ar      1 69E        -0.0374
     15 C16        31.1990   12.5750   16.4470 C.ar      1 69E        -0.0653
     16 C17        32.1310   11.9920   17.2560 C.ar      1 69E        -0.0357
     17 C18        33.3440   11.5490   16.7250 C.ar      1 69E         0.0878
     18 C19        33.6330   11.7040   15.3620 C.ar      1 69E         0.0114
     19 C20        32.6830   12.3170   14.5400 C.ar      1 69E        -0.0594
     20 C21        34.9840   11.1320   15.1680 C.2       1 69E         0.0444
     21 N22        35.4000   10.6860   16.3190 N.2       1 69E        -0.2135
     22 N23        34.4340   10.9300   17.2840 N.pl3     1 69E        -0.2096
     23 C24        34.5660   10.5860   18.6930 C.3       1 69E         0.0536
     24 C25        35.7620   11.0060   13.9170 C.2       1 69E         0.0091
     25 C26        36.9500   10.2580   13.7840 C.2       1 69E         0.0056
     26 N27        37.3330   10.3530   12.5430 N.2       1 69E        -0.2144
     27 N28        36.3990   11.1350   11.8580 N.pl3     1 69E        -0.2070
     28 C29        35.4340   11.5230   12.7080 C.2       1 69E         0.0625
     29 C30        36.4410   11.4850   10.4480 C.3       1 69E         0.0611
     30 H1         25.6294   12.0348   15.1271 H         1 69E         0.0529
     31 H2         26.8641   13.3352   15.0221 H         1 69E         0.0529
     32 H3         31.8155   15.1223   14.0503 H         1 69E         0.0449
     33 H4         28.1958   15.4476   11.8224 H         1 69E         0.0454
     34 H5         30.3397   16.4176   12.5767 H         1 69E         0.0468
     35 H6         27.9459    9.1973   14.8207 H         1 69E         0.0253
     36 H7         26.9259    9.9012   13.5204 H         1 69E         0.0253
     37 H8         26.2596    9.7033   15.1768 H         1 69E         0.0253
     38 H9         27.8618   11.3745   16.0416 H         1 69E         0.0568
     39 H10        27.0648   13.2242   11.4811 H         1 69E         0.2216
     40 H11        29.5779   10.8069   14.0567 H         1 69E         0.1731
     41 H12        30.2521   12.9045   16.8591 H         1 69E         0.0574
     42 H13        31.9288   11.8725   18.3143 H         1 69E         0.0558
     43 H14        32.8879   12.4584   13.4850 H         1 69E         0.0580
     44 H15        35.5382   10.1000   18.8622 H         1 69E         0.0576
     45 H16        33.7572    9.8978   18.9798 H         1 69E         0.0576
     46 H17        34.5024   11.5003   19.3012 H         1 69E         0.0576
     47 H18        37.4543    9.7031   14.5737 H         1 69E         0.0670
     48 H19        34.5621   12.1315   12.4726 H         1 69E         0.1022
     49 H20        35.5705   12.1097   10.1992 H         1 69E         0.0607
     50 H21        36.4192   10.5675    9.8416 H         1 69E         0.0607
     51 H22        37.3651   12.0428   10.2360 H         1 69E         0.0607
@<TRIPOS>BOND
     1    2    1 1  
     2    1   10 1  
     3    2   11 2  
     4   12    2 am 
     5    6    3 ar 
     6    3    7 ar 
     7    5    4 ar 
     8    4    8 ar 
     9    4   12 1  
    10    5    6 ar 
    11    7    8 ar 
    12    7   14 1  
    13    8   13 1  
    14   10    9 1  
    15   10   13 1  
    16   14   15 ar 
    17   14   19 ar 
    18   15   16 ar 
    19   16   17 ar 
    20   17   18 ar 
    21   17   22 1  
    22   18   19 ar 
    23   18   20 1  
    24   20   21 2  
    25   20   24 1  
    26   21   22 1  
    27   22   23 1  
    28   24   25 1  
    29   24   28 2  
    30   25   26 2  
    31   26   27 1  
    32   27   28 1  
    33   27   29 1  
    34    1   30 1  
    35    1   31 1  
    36    3   32 1  
    37    5   33 1  
    38    6   34 1  
    39    9   35 1  
    40    9   36 1  
    41    9   37 1  
    42   10   38 1  
    43   12   39 1  
    44   13   40 1  
    45   15   41 1  
    46   16   42 1  
    47   19   43 1  
    48   23   44 1  
    49   23   45 1  
    50   23   46 1  
    51   25   47 1  
    52   28   48 1  
    53   29   49 1  
    54   29   50 1  
    55   29   51 1  
@<TRIPOS>SUBSTRUCTURE
     1 69E         1

