### 
### Created by X-TOOL on Mon Sep 10 21:13:29 2018
### 

@<TRIPOS>MOLECULE
5i8p_ligand
   57    60     1     0     0
SMALL
GAST_HUCK


@<TRIPOS>ATOM
      1 O4        121.8610   31.3010   24.8030 O.2       1 VQ7        -0.4085
      2 C22       123.1040   31.1910   24.9040 C.2       1 VQ7         0.2414
      3 N         123.6470   30.0210   24.5670 N.am      1 VQ7        -0.1752
      4 C         122.6060   29.0610   24.1540 C.3       1 VQ7         0.0611
      5 N2        123.8330   32.2350   25.3340 N.2       1 VQ7        -0.2859
      6 C7        125.1660   32.1180   25.4330 C.2       1 VQ7         0.1266
      7 C6        125.7710   30.9030   25.1000 C.2       1 VQ7         0.0288
      8 C1        125.0020   29.8150   24.6520 C.2       1 VQ7         0.1870
      9 N1        125.7020   28.6100   24.3200 N.pl3     1 VQ7        -0.2586
     10 C5        126.9980   28.3630   24.9620 C.3       1 VQ7         0.0583
     11 C4        127.1970   26.8440   25.0910 C.3       1 VQ7         0.0872
     12 S         127.2320   26.0660   23.6120 S.o2      1 VQ7        -0.0270
     13 O         126.7380   24.7180   23.7110 O.2       1 VQ7        -0.1742
     14 O1        128.5640   26.0500   23.0890 O.2       1 VQ7        -0.1742
     15 C3        126.2880   26.9260   22.5680 C.3       1 VQ7         0.0872
     16 C2        125.1890   27.6120   23.3640 C.3       1 VQ7         0.0583
     17 O2        125.8590   33.2170   25.8800 O.3       1 VQ7        -0.2878
     18 C8        125.1460   34.3440   26.4330 C.3       1 VQ7         0.1055
     19 C9        126.0270   34.9850   27.4860 C.ar      1 VQ7        -0.0253
     20 C21       126.4930   36.2890   27.3150 C.ar      1 VQ7        -0.0353
     21 C20       127.3130   36.8730   28.2790 C.ar      1 VQ7         0.1569
     22 F4        127.7700   38.1270   28.1040 F         1 VQ7        -0.1919
     23 C12       127.6630   36.1660   29.4210 C.ar      1 VQ7         0.1766
     24 C11       127.2070   34.8680   29.5920 C.ar      1 VQ7         0.1569
     25 F         127.5900   34.2190   30.7190 F         1 VQ7        -0.1919
     26 C10       126.3920   34.2730   28.6260 C.ar      1 VQ7        -0.0353
     27 O3        128.4970   36.7060   30.3810 O.3       1 VQ7        -0.2546
     28 C13       129.7910   36.1970   30.4280 C.ar      1 VQ7         0.1407
     29 C19       130.6890   36.5480   31.4350 C.ar      1 VQ7         0.0001
     30 C17       131.9810   36.0190   31.4450 C.ar      1 VQ7         0.0522
     31 C18       132.9580   36.4020   32.5330 C.3       1 VQ7         0.3729
     32 F3        133.8890   35.4690   32.6640 F         1 VQ7        -0.2221
     33 F2        133.5650   37.5400   32.2460 F         1 VQ7        -0.2221
     34 F1        132.2990   36.5380   33.6710 F         1 VQ7        -0.2221
     35 C16       132.3720   35.1280   30.4560 C.ar      1 VQ7         0.0637
     36 CL        134.0340   34.4440   30.4710 Cl        1 VQ7        -0.0503
     37 C15       131.4850   34.7620   29.4470 C.ar      1 VQ7        -0.0242
     38 C14       130.2110   35.3060   29.4360 C.ar      1 VQ7         0.0007
     39 H1        121.6205   29.5478   24.1970 H         1 VQ7         0.0594
     40 H2        122.6167   28.1945   24.8315 H         1 VQ7         0.0594
     41 H3        122.8044   28.7249   23.1256 H         1 VQ7         0.0594
     42 H4        126.8513   30.7979   25.1887 H         1 VQ7         0.0211
     43 H5        127.0117   28.8250   25.9602 H         1 VQ7         0.0553
     44 H6        127.8038   28.7919   24.3483 H         1 VQ7         0.0553
     45 H7        126.3692   26.4306   25.6858 H         1 VQ7         0.0521
     46 H8        128.1494   26.6572   25.6086 H         1 VQ7         0.0521
     47 H9        125.8408   26.2471   21.8270 H         1 VQ7         0.0521
     48 H10       126.8987   27.6813   22.0518 H         1 VQ7         0.0521
     49 H11       124.5112   28.1176   22.6605 H         1 VQ7         0.0553
     50 H12       124.6320   26.8459   23.9233 H         1 VQ7         0.0553
     51 H13       124.2057   34.0027   26.8905 H         1 VQ7         0.0771
     52 H14       124.9243   35.0717   25.6385 H         1 VQ7         0.0771
     53 H15       126.2164   36.8498   26.4295 H         1 VQ7         0.0485
     54 H16       126.0432   33.2559   28.7638 H         1 VQ7         0.0485
     55 H17       130.3823   37.2357   32.2148 H         1 VQ7         0.0763
     56 H18       131.7879   34.0595   28.6790 H         1 VQ7         0.0681
     57 H19       129.5253   35.0351   28.6414 H         1 VQ7         0.0800
@<TRIPOS>BOND
     1    1    2 2  
     2    2    3 am 
     3    2    5 1  
     4    3    4 1  
     5    3    8 1  
     6    5    6 2  
     7    6    7 1  
     8    6   17 1  
     9    7    8 2  
    10    8    9 1  
    11    9   10 1  
    12    9   16 1  
    13   10   11 1  
    14   11   12 1  
    15   12   13 2  
    16   12   14 2  
    17   12   15 1  
    18   15   16 1  
    19   17   18 1  
    20   18   19 1  
    21   19   20 ar 
    22   19   26 ar 
    23   20   21 ar 
    24   21   22 1  
    25   21   23 ar 
    26   23   24 ar 
    27   23   27 1  
    28   24   25 1  
    29   24   26 ar 
    30   27   28 1  
    31   28   29 ar 
    32   28   38 ar 
    33   29   30 ar 
    34   30   31 1  
    35   30   35 ar 
    36   31   32 1  
    37   31   33 1  
    38   31   34 1  
    39   35   36 1  
    40   35   37 ar 
    41   37   38 ar 
    42    4   39 1  
    43    4   40 1  
    44    4   41 1  
    45    7   42 1  
    46   10   43 1  
    47   10   44 1  
    48   11   45 1  
    49   11   46 1  
    50   15   47 1  
    51   15   48 1  
    52   16   49 1  
    53   16   50 1  
    54   18   51 1  
    55   18   52 1  
    56   20   53 1  
    57   26   54 1  
    58   29   55 1  
    59   37   56 1  
    60   38   57 1  
@<TRIPOS>SUBSTRUCTURE
     1 VQ7         1

