### 
### Created by X-TOOL on Mon Sep 10 21:13:27 2018
### 

@<TRIPOS>MOLECULE
5i94_ligand
   62    66     1     0     0
SMALL
GAST_HUCK


@<TRIPOS>ATOM
      1 N12       121.0150  159.5160   43.5800 N.am      1 69V        -0.1958
      2 C13       121.7970  160.4340   44.3350 C.2       1 69V         0.2244
      3 C15       121.2990  162.8370   45.2840 C.ar      1 69V        -0.0236
      4 C17       122.3780  164.8060   44.4060 C.ar      1 69V        -0.0681
      5 C20       120.4710  163.6400   46.0610 C.ar      1 69V        -0.0579
      6 C26       110.3670  160.1490   40.4060 C.2       1 69V         0.2123
      7 C28       108.9510  162.1380   40.2200 C.2       1 69V         0.2240
      8 C01       115.8350  157.5520   40.6730 C.3       1 69V        -0.0002
      9 C02       114.4270  157.8600   40.2040 C.3       1 69V         0.0369
     10 N03       113.4370  157.7700   41.2130 N.pl3     1 69V        -0.2751
     11 C04       113.4590  156.8850   42.3170 C.3       1 69V         0.0369
     12 C05       114.8420  156.2920   42.4870 C.3       1 69V        -0.0002
     13 C06       115.9520  157.2670   42.1560 C.3       1 69V         0.0941
     14 O07       115.8420  158.4510   42.9170 O.3       1 69V        -0.2736
     15 C08       117.1300  158.8240   43.3570 C.2       1 69V         0.2399
     16 N09       117.4710  159.2920   44.5660 N.2       1 69V        -0.2751
     17 N10       118.7740  159.5650   44.7400 N.2       1 69V        -0.2845
     18 C11       119.5960  159.3450   43.6920 C.2       1 69V         0.2153
     19 C14       121.1380  161.3310   45.3780 C.3       1 69V         0.0779
     20 C16       122.2550  163.4220   44.4630 C.ar      1 69V        -0.0579
     21 C18       121.5440  165.6050   45.1800 C.ar      1 69V        -0.0684
     22 C19       120.5890  165.0230   46.0060 C.ar      1 69V        -0.0681
     23 O21       123.0020  160.4570   44.1310 O.2       1 69V        -0.3782
     24 S22       118.5790  158.7470   42.4410 S.3       1 69V         0.0952
     25 C23       112.3470  158.6840   41.0810 C.2       1 69V         0.1864
     26 N24       111.9290  159.5930   41.9770 N.2       1 69V        -0.2910
     27 N25       110.8820  160.3620   41.6290 N.2       1 69V        -0.2899
     28 N27       109.2740  160.8200   39.8190 N.am      1 69V        -0.1967
     29 C29       107.7810  162.8630   39.6060 C.3       1 69V         0.0779
     30 C30       108.1370  164.3330   39.5840 C.ar      1 69V        -0.0236
     31 C31       109.1390  164.7880   38.7240 C.ar      1 69V        -0.0579
     32 C32       109.4820  166.1320   38.7080 C.ar      1 69V        -0.0681
     33 C33       108.8200  167.0100   39.5590 C.ar      1 69V        -0.0684
     34 C34       107.8250  166.5560   40.4230 C.ar      1 69V        -0.0681
     35 C35       107.4820  165.2120   40.4410 C.ar      1 69V        -0.0579
     36 O36       109.6110  162.7120   41.0600 O.2       1 69V        -0.3783
     37 S37       111.3080  158.8820   39.7160 S.3       1 69V         0.0828
     38 H1        121.4950  158.9425   42.9161 H         1 69V         0.2384
     39 H2        123.1212  165.2601   43.7606 H         1 69V         0.0600
     40 H3        119.7319  163.1857   46.7110 H         1 69V         0.0561
     41 H4        116.4730  158.4166   40.4374 H         1 69V         0.0315
     42 H5        116.1954  156.6698   40.1237 H         1 69V         0.0315
     43 H6        114.1683  157.1496   39.4050 H         1 69V         0.0527
     44 H7        114.4154  158.8839   39.8022 H         1 69V         0.0527
     45 H8        112.7350  156.0745   42.1470 H         1 69V         0.0527
     46 H9        113.1856  157.4356   43.2292 H         1 69V         0.0527
     47 H10       114.9328  155.4198   41.8229 H         1 69V         0.0315
     48 H11       114.9589  155.9706   43.5325 H         1 69V         0.0315
     49 H12       116.9266  156.8030   42.3676 H         1 69V         0.0665
     50 H13       121.5371  161.0281   46.3572 H         1 69V         0.0666
     51 H14       120.0585  161.1228   45.3416 H         1 69V         0.0666
     52 H15       122.9077  162.7970   43.8644 H         1 69V         0.0561
     53 H16       121.6386  166.6841   45.1394 H         1 69V         0.0561
     54 H17       119.9374  165.6476   46.6063 H         1 69V         0.0600
     55 H18       108.7262  160.3633   39.1180 H         1 69V         0.2379
     56 H19       106.8765  162.7020   40.2109 H         1 69V         0.0666
     57 H20       107.6066  162.5008   38.5821 H         1 69V         0.0666
     58 H21       109.6487  164.0908   38.0689 H         1 69V         0.0561
     59 H22       110.2562  166.4931   38.0407 H         1 69V         0.0600
     60 H23       109.0813  168.0620   39.5504 H         1 69V         0.0561
     61 H24       107.3191  167.2533   41.0810 H         1 69V         0.0600
     62 H25       106.7131  164.8510   41.1145 H         1 69V         0.0561
@<TRIPOS>BOND
     1    1    2 am 
     2   18    1 1  
     3    2   19 1  
     4    2   23 2  
     5    3    5 ar 
     6   19    3 1  
     7    3   20 ar 
     8   20    4 ar 
     9    4   21 ar 
    10    5   22 ar 
    11    6   27 2  
    12    6   28 1  
    13   37    6 1  
    14   28    7 am 
    15    7   29 1  
    16    7   36 2  
    17    9    8 1  
    18    8   13 1  
    19   10    9 1  
    20   10   11 1  
    21   25   10 1  
    22   11   12 1  
    23   12   13 1  
    24   13   14 1  
    25   14   15 1  
    26   15   16 2  
    27   15   24 1  
    28   16   17 1  
    29   18   17 2  
    30   24   18 1  
    31   22   21 ar 
    32   25   26 2  
    33   25   37 1  
    34   26   27 1  
    35   29   30 1  
    36   30   31 ar 
    37   30   35 ar 
    38   31   32 ar 
    39   32   33 ar 
    40   33   34 ar 
    41   34   35 ar 
    42    1   38 1  
    43    4   39 1  
    44    5   40 1  
    45    8   41 1  
    46    8   42 1  
    47    9   43 1  
    48    9   44 1  
    49   11   45 1  
    50   11   46 1  
    51   12   47 1  
    52   12   48 1  
    53   13   49 1  
    54   19   50 1  
    55   19   51 1  
    56   20   52 1  
    57   21   53 1  
    58   22   54 1  
    59   28   55 1  
    60   29   56 1  
    61   29   57 1  
    62   31   58 1  
    63   32   59 1  
    64   33   60 1  
    65   34   61 1  
    66   35   62 1  
@<TRIPOS>SUBSTRUCTURE
     1 69V         1

