### 
### Created by X-TOOL on Mon Sep 10 21:13:28 2018
### 

@<TRIPOS>MOLECULE
5i9i_ligand
   85    89     1     0     0
SMALL
GAST_HUCK


@<TRIPOS>ATOM
      1 C01       205.2970   20.0200  116.3280 C.3       1 5HV        -0.0245
      2 C05       204.2680   20.4150  117.3750 C.3       1 5HV        -0.0347
      3 N08       203.0260   20.9270  116.8200 N.4       1 5HV         0.2363
      4 C09       201.9120   20.0370  117.0110 C.3       1 5HV        -0.0347
      5 C12       202.1230   18.6420  116.3660 C.3       1 5HV        -0.0245
      6 C16       203.1280   21.3730  115.4230 C.3       1 5HV        -0.0108
      7 C19       203.4090   22.9110  115.4190 C.3       1 5HV         0.0762
      8 N22       203.2020   23.5500  114.0750 N.am      1 5HV        -0.2545
      9 C23       204.3040   24.2530  113.3470 C.3       1 5HV         0.0711
     10 C26       204.9050   25.3930  114.2350 C.ar      1 5HV        -0.0134
     11 C27       206.2370   25.7880  114.0650 C.ar      1 5HV        -0.0503
     12 C29       206.7650   26.8040  114.8620 C.ar      1 5HV        -0.0507
     13 C31       205.9280   27.4340  115.8110 C.ar      1 5HV        -0.0034
     14 C32       204.6170   27.0370  115.9860 C.ar      1 5HV        -0.0507
     15 C34       204.0930   26.0110  115.1820 C.ar      1 5HV        -0.0503
     16 C36       206.4160   28.4150  116.6750 C.ar      1 5HV         0.0064
     17 C37       207.7190   28.1920  117.1830 C.ar      1 5HV        -0.0274
     18 C39       208.2880   29.0880  118.0940 C.ar      1 5HV        -0.0348
     19 C41       207.5440   30.1990  118.5240 C.ar      1 5HV         0.0394
     20 C42       206.2210   30.4190  118.0460 C.ar      1 5HV        -0.0348
     21 C44       205.6500   29.5200  117.1220 C.ar      1 5HV        -0.0274
     22 C46       208.2460   31.1250  119.5380 C.3       1 5HV         0.3675
     23 F47       208.8740   32.1360  118.8990 F         1 5HV        -0.2294
     24 F48       207.3550   31.6020  120.4250 F         1 5HV        -0.2294
     25 F49       209.1020   30.3400  120.2160 F         1 5HV        -0.2294
     26 C50       201.8750   23.4940  113.4560 C.2       1 5HV         0.1968
     27 O51       200.9370   22.9330  113.9950 O.2       1 5HV        -0.3953
     28 C52       201.6420   24.1390  112.1070 C.3       1 5HV         0.1171
     29 N55       200.2010   24.4380  112.0160 N.2       1 5HV        -0.2455
     30 C56       199.3660   23.4890  111.5240 C.2       1 5HV         0.1458
     31 C57       199.6660   22.0620  111.0050 C.3       1 5HV         0.1029
     32 C60       198.3520   21.5280  110.5390 C.2       1 5HV         0.0399
     33 C63       197.2920   22.5250  110.8550 C.2       1 5HV         0.0578
     34 C66       197.9890   23.7510  111.4330 C.3       1 5HV         0.1952
     35 C67       197.5150   25.0020  111.8720 C.2       1 5HV         0.2536
     36 O68       196.3240   25.2520  111.7860 O.2       1 5HV        -0.3430
     37 N69       198.3980   25.9310  112.3690 N.2       1 5HV        -0.1865
     38 C70       199.7200   25.6450  112.4440 C.2       1 5HV         0.1925
     39 S71       200.8490   26.8590  113.0820 S.3       1 5HV        -0.0197
     40 C72       199.9150   28.4030  113.3780 C.3       1 5HV         0.0503
     41 C75       200.5890   29.1410  114.5640 C.ar      1 5HV        -0.0335
     42 C76       200.4310   28.6170  115.8620 C.ar      1 5HV        -0.0610
     43 C78       201.0330   29.2630  116.9350 C.ar      1 5HV        -0.0349
     44 C80       201.7880   30.4240  116.7270 C.ar      1 5HV         0.1248
     45 F81       202.3530   31.0280  117.7680 F         1 5HV        -0.1893
     46 C82       201.9400   30.9430  115.4300 C.ar      1 5HV        -0.0349
     47 C84       201.3370   30.2930  114.3390 C.ar      1 5HV        -0.0610
     48 H1        206.2026   19.6449  116.8272 H         1 5HV         0.0281
     49 H2        205.5526   20.8974  115.7158 H         1 5HV         0.0281
     50 H3        204.8805   19.2319  115.6835 H         1 5HV         0.0281
     51 H4        204.7076   21.1939  118.0154 H         1 5HV         0.0812
     52 H5        204.0354   19.5284  117.9831 H         1 5HV         0.0812
     53 H6        202.8142   21.7541  117.3557 H         1 5HV         0.2034
     54 H7        201.0177   20.4963  116.5646 H         1 5HV         0.0812
     55 H8        201.7544   19.9018  118.0912 H         1 5HV         0.0812
     56 H9        201.2376   18.0156  116.5493 H         1 5HV         0.0281
     57 H10       203.0088   18.1634  116.8090 H         1 5HV         0.0281
     58 H11       202.2721   18.7578  115.2823 H         1 5HV         0.0281
     59 H12       202.1848   21.1657  114.8964 H         1 5HV         0.0834
     60 H13       203.9516   20.8430  114.9223 H         1 5HV         0.0834
     61 H14       204.4520   23.0761  115.7270 H         1 5HV         0.0577
     62 H15       202.7329   23.3913  116.1416 H         1 5HV         0.0577
     63 H16       203.9050   24.6887  112.4191 H         1 5HV         0.0703
     64 H17       205.0954   23.5295  113.1017 H         1 5HV         0.0703
     65 H18       206.8560   25.3062  113.3168 H         1 5HV         0.0579
     66 H19       207.8007   27.1055  114.7552 H         1 5HV         0.0660
     67 H20       203.9974   27.5130  116.7374 H         1 5HV         0.0660
     68 H21       203.0606   25.7018  115.2985 H         1 5HV         0.0579
     69 H22       208.2794   27.3208  116.8636 H         1 5HV         0.0693
     70 H23       209.2938   28.9264  118.4647 H         1 5HV         0.0835
     71 H24       205.6540   31.2758  118.3917 H         1 5HV         0.0835
     72 H25       204.6400   29.6720  116.7590 H         1 5HV         0.0693
     73 H26       201.9363   23.4491  111.3024 H         1 5HV         0.0686
     74 H27       202.2264   25.0674  112.0260 H         1 5HV         0.0686
     75 H28       200.0718   21.4355  111.8130 H         1 5HV         0.1049
     76 H29       200.3843   22.0978  110.1727 H         1 5HV         0.1049
     77 H30       198.1947   20.5682  110.0491 H         1 5HV         0.1261
     78 H31       196.2209   22.4014  110.7020 H         1 5HV         0.1275
     79 H32       198.0765   24.1777  110.4229 H         1 5HV         0.1313
     80 H33       198.8703   28.1669  113.6286 H         1 5HV         0.0570
     81 H34       199.9423   29.0358  112.4787 H         1 5HV         0.0570
     82 H35       199.8457   27.7188  116.0222 H         1 5HV         0.0547
     83 H36       200.9177   28.8666  117.9373 H         1 5HV         0.0587
     84 H37       202.5217   31.8438  115.2709 H         1 5HV         0.0587
     85 H38       201.4532   30.6842  113.3348 H         1 5HV         0.0547
@<TRIPOS>BOND
     1    1    2 1  
     2    2    3 1  
     3    3    4 1  
     4    3    6 1  
     5    4    5 1  
     6    6    7 1  
     7    7    8 1  
     8    8    9 1  
     9    8   26 am 
    10    9   10 1  
    11   10   11 ar 
    12   10   15 ar 
    13   11   12 ar 
    14   12   13 ar 
    15   13   14 ar 
    16   13   16 1  
    17   14   15 ar 
    18   16   17 ar 
    19   16   21 ar 
    20   17   18 ar 
    21   18   19 ar 
    22   19   20 ar 
    23   19   22 1  
    24   20   21 ar 
    25   22   23 1  
    26   22   24 1  
    27   22   25 1  
    28   26   27 2  
    29   26   28 1  
    30   28   29 1  
    31   29   30 2  
    32   29   38 1  
    33   30   31 1  
    34   30   34 1  
    35   31   32 1  
    36   32   33 2  
    37   33   34 1  
    38   34   35 1  
    39   35   36 2  
    40   35   37 1  
    41   37   38 2  
    42   38   39 1  
    43   39   40 1  
    44   40   41 1  
    45   41   42 ar 
    46   41   47 ar 
    47   42   43 ar 
    48   43   44 ar 
    49   44   45 1  
    50   44   46 ar 
    51   46   47 ar 
    52    1   48 1  
    53    1   49 1  
    54    1   50 1  
    55    2   51 1  
    56    2   52 1  
    57    3   53 1  
    58    4   54 1  
    59    4   55 1  
    60    5   56 1  
    61    5   57 1  
    62    5   58 1  
    63    6   59 1  
    64    6   60 1  
    65    7   61 1  
    66    7   62 1  
    67    9   63 1  
    68    9   64 1  
    69   11   65 1  
    70   12   66 1  
    71   14   67 1  
    72   15   68 1  
    73   17   69 1  
    74   18   70 1  
    75   20   71 1  
    76   21   72 1  
    77   28   73 1  
    78   28   74 1  
    79   31   75 1  
    80   31   76 1  
    81   32   77 1  
    82   33   78 1  
    83   34   79 1  
    84   40   80 1  
    85   40   81 1  
    86   42   82 1  
    87   43   83 1  
    88   46   84 1  
    89   47   85 1  
@<TRIPOS>SUBSTRUCTURE
     1 5HV         1

