### 
### Created by X-TOOL on Mon Sep 10 21:13:26 2018
### 

@<TRIPOS>MOLECULE
5i9x_ligand
   67    70     1     0     0
SMALL
GAST_HUCK


@<TRIPOS>ATOM
      1 CAA       -84.4130  -15.3720    9.4560 C.3       1 DB8         0.0581
      2 O02       -92.5450  -18.9780    9.3680 O.3       1 DB8        -0.3228
      3 CAC       -82.3600  -12.2770    4.2680 C.3       1 DB8        -0.0290
      4 NAD       -92.7620  -14.7930    8.6760 N.1       1 DB8        -0.3470
      5 CL1       -93.8790  -18.4140   11.7950 Cl        1 DB8        -0.0883
      6 CL2       -90.4300  -14.3090   12.2050 Cl        1 DB8        -0.0884
      7 CAG       -91.7970  -14.6520    8.1820 C.1       1 DB8         0.0848
      8 CAH       -90.4350  -14.0760    6.2950 C.ar      1 DB8         0.0167
      9 CAI       -92.0260  -16.3960   11.8210 C.ar      1 DB8        -0.0510
     10 CAJ       -90.8710  -17.1780    9.4020 C.ar      1 DB8        -0.0078
     11 CAK       -86.8620  -13.8730    5.6540 C.ar      1 DB8        -0.0186
     12 CAL       -86.8650  -14.8020    8.3170 C.ar      1 DB8        -0.0192
     13 CAM       -82.9760  -13.6230    3.9240 C.3       1 DB8         0.0154
     14 CAN       -84.4430  -13.6150    4.3730 C.3       1 DB8         0.0758
     15 CAO       -76.8800  -11.0570    4.4970 C.3       1 DB8        -0.0427
     16 CAP       -80.5690  -10.7890    3.8170 C.3       1 DB8         0.0094
     17 CAQ       -80.1420  -12.8600    4.9740 C.3       1 DB8         0.0094
     18 CAR       -79.0760  -10.6150    3.5820 C.3       1 DB8         0.0092
     19 CAS       -78.6550  -12.6740    4.7390 C.3       1 DB8         0.0092
     20 NAT       -89.2130  -13.8720    5.6740 N.ar      1 DB8        -0.3220
     21 NAU       -89.3220  -15.2600    9.5980 N.pl3     1 DB8        -0.2555
     22 OAV       -84.4270  -14.7640    8.1610 O.3       1 DB8        -0.3205
     23 OAW       -84.4430  -13.9120    5.7750 O.3       1 DB8        -0.3133
     24 CAX       -91.9660  -17.8750    9.9450 C.ar      1 DB8         0.0967
     25 CAY       -92.5290  -17.4980   11.1520 C.ar      1 DB8         0.0570
     26 CAZ       -90.9610  -15.6830   11.2820 C.ar      1 DB8         0.0530
     27 CBA       -90.5030  -14.5290    7.6040 C.ar      1 DB8         0.1345
     28 CBB       -90.3480  -16.0570   10.0760 C.ar      1 DB8         0.0731
     29 CBC       -85.6760  -14.5690    7.6290 C.ar      1 DB8         0.1307
     30 CBD       -85.6750  -14.1110    6.3210 C.ar      1 DB8         0.1315
     31 CBE       -89.3140  -14.7940    8.3030 C.ar      1 DB8         0.1193
     32 CBF       -88.0580  -14.1040    6.3340 C.ar      1 DB8         0.0210
     33 CBG       -88.0790  -14.5680    7.6620 C.ar      1 DB8         0.0290
     34 NBH       -80.9310  -12.2150    3.9110 N.4       1 DB8         0.2428
     35 NBI       -78.3280  -11.2410    4.6810 N.4       1 DB8         0.2405
     36 C01       -92.1000  -19.1800    8.0260 C.3       1 DB8         0.0595
     37 H1        -83.3732  -15.4861    9.7962 H         1 DB8         0.0575
     38 H2        -84.8917  -16.3609    9.4020 H         1 DB8         0.0575
     39 H3        -84.9633  -14.7365   10.1654 H         1 DB8         0.0575
     40 H4        -82.4633  -12.1054    5.3496 H         1 DB8         0.0815
     41 H5        -82.8975  -11.4899    3.7188 H         1 DB8         0.0815
     42 H6        -91.3509  -13.8786    5.7497 H         1 DB8         0.0842
     43 H7        -92.4620  -16.0888   12.7647 H         1 DB8         0.0576
     44 H8        -90.4305  -17.5031    8.4664 H         1 DB8         0.0462
     45 H9        -86.8635  -13.5165    4.6303 H         1 DB8         0.0495
     46 H10       -86.8498  -15.1580    9.3408 H         1 DB8         0.0544
     47 H11       -82.4325  -14.4243    4.4460 H         1 DB8         0.0343
     48 H12       -82.9211  -13.7897    2.8381 H         1 DB8         0.0343
     49 H13       -85.0125  -14.3787    3.8232 H         1 DB8         0.0617
     50 H14       -84.8893  -12.6256    4.1946 H         1 DB8         0.0617
     51 H15       -76.6494   -9.9823    4.4553 H         1 DB8         0.0778
     52 H16       -76.5659  -11.5361    3.5580 H         1 DB8         0.0778
     53 H17       -76.3421  -11.5150    5.3401 H         1 DB8         0.0778
     54 H18       -81.1194  -10.3335    2.9806 H         1 DB8         0.0868
     55 H19       -80.8456  -10.2860    4.7553 H         1 DB8         0.0868
     56 H20       -80.4114  -12.4136    5.9426 H         1 DB8         0.0868
     57 H21       -80.3716  -13.9356    4.9895 H         1 DB8         0.0868
     58 H22       -78.8346   -9.5427    3.5391 H         1 DB8         0.0868
     59 H23       -78.7970  -11.0921    2.6309 H         1 DB8         0.0868
     60 H24       -78.3746  -13.1499    3.7878 H         1 DB8         0.0868
     61 H25       -78.0952  -13.1419    5.5622 H         1 DB8         0.0868
     62 H26       -88.5456  -15.0096   10.2269 H         1 DB8         0.2218
     63 H27       -80.7663  -12.6776    3.0307 H         1 DB8         0.2038
     64 H28       -78.6008  -10.8075    5.5491 H         1 DB8         0.2035
     65 H29       -92.5896  -20.0718    7.6077 H         1 DB8         0.0578
     66 H30       -91.0094  -19.3232    8.0189 H         1 DB8         0.0578
     67 H31       -92.3583  -18.3006    7.4177 H         1 DB8         0.0578
@<TRIPOS>BOND
     1   22    1 1  
     2   24    2 1  
     3    2   36 1  
     4   13    3 1  
     5    3   34 1  
     6    7    4 3  
     7   25    5 1  
     8   26    6 1  
     9   27    7 1  
    10   20    8 ar 
    11    8   27 ar 
    12    9   25 ar 
    13   26    9 ar 
    14   10   24 ar 
    15   28   10 ar 
    16   30   11 ar 
    17   11   32 ar 
    18   29   12 ar 
    19   12   33 ar 
    20   14   13 1  
    21   23   14 1  
    22   35   15 1  
    23   16   18 1  
    24   34   16 1  
    25   17   19 1  
    26   34   17 1  
    27   18   35 1  
    28   19   35 1  
    29   32   20 ar 
    30   21   28 1  
    31   31   21 1  
    32   29   22 1  
    33   30   23 1  
    34   24   25 ar 
    35   28   26 ar 
    36   27   31 ar 
    37   29   30 ar 
    38   31   33 ar 
    39   32   33 ar 
    40    1   37 1  
    41    1   38 1  
    42    1   39 1  
    43    3   40 1  
    44    3   41 1  
    45    8   42 1  
    46    9   43 1  
    47   10   44 1  
    48   11   45 1  
    49   12   46 1  
    50   13   47 1  
    51   13   48 1  
    52   14   49 1  
    53   14   50 1  
    54   15   51 1  
    55   15   52 1  
    56   15   53 1  
    57   16   54 1  
    58   16   55 1  
    59   17   56 1  
    60   17   57 1  
    61   18   58 1  
    62   18   59 1  
    63   19   60 1  
    64   19   61 1  
    65   21   62 1  
    66   34   63 1  
    67   35   64 1  
    68   36   65 1  
    69   36   66 1  
    70   36   67 1  
@<TRIPOS>SUBSTRUCTURE
     1 DB8         1

