### 
### Created by X-TOOL on Mon Sep 10 21:13:26 2018
### 

@<TRIPOS>MOLECULE
5i9y_ligand
   60    63     1     0     0
SMALL
GAST_HUCK


@<TRIPOS>ATOM
      1 C1        -70.6820  -13.9890   44.6090 C.2       1 1N1        -0.0104
      2 C2        -70.2230  -14.4390   45.7920 C.2       1 1N1         0.1128
      3 C3        -70.9090  -15.0190   46.8150 C.2       1 1N1         0.2261
      4 N6        -60.3690  -11.1110   42.1280 N.4       1 1N1         0.2397
      5 C7        -74.3690  -17.2310   49.6650 C.ar      1 1N1        -0.0834
      6 C8        -74.2670  -15.8460   49.6210 C.ar      1 1N1        -0.0735
      7 C9        -73.5430  -15.2260   48.6040 C.ar      1 1N1        -0.0235
      8 C10       -73.4690  -13.8370   48.5980 C.3       1 1N1        -0.0351
      9 C11       -66.1730  -12.9950   44.0890 C.ar      1 1N1         0.1348
     10 C12       -65.0860  -12.6810   43.2680 C.ar      1 1N1         0.0208
     11 C13       -63.8130  -12.6770   43.8380 C.ar      1 1N1         0.1091
     12 C14       -64.7090  -13.2650   45.9010 C.ar      1 1N1         0.0703
     13 C15       -64.5330  -13.5680   47.2500 C.3       1 1N1        -0.0028
     14 C16       -62.7490  -11.7810   41.8040 C.3       1 1N1         0.0716
     15 C19       -61.3910  -12.6530   43.7720 C.3       1 1N1         0.0716
     16 C20       -59.4310   -9.9810   42.0090 C.3       1 1N1        -0.0080
     17 C21       -58.0090  -10.3870   42.4130 C.3       1 1N1         0.0841
     18 N         -67.4210  -13.0060   43.5870 N.pl3     1 1N1        -0.2165
     19 C         -68.4870  -13.4800   44.2720 C.2       1 1N1         0.2125
     20 N1        -69.7360  -13.4640   43.7830 N.2       1 1N1        -0.2981
     21 S         -68.5490  -14.1670   45.8270 S.3       1 1N1         0.0354
     22 N2        -72.2070  -15.3970   46.6180 N.am      1 1N1        -0.2384
     23 C4        -72.9070  -16.0050   47.6270 C.ar      1 1N1         0.0817
     24 C5        -73.0190  -17.4040   47.6660 C.ar      1 1N1         0.0531
     25 C6        -73.7490  -18.0040   48.6900 C.ar      1 1N1        -0.0685
     26 CL        -72.2840  -18.4420   46.4860 Cl        1 1N1        -0.0853
     27 O         -70.3230  -15.2240   47.8760 O.2       1 1N1        -0.3859
     28 N3        -63.6560  -12.9680   45.1350 N.ar      1 1N1        -0.2701
     29 N4        -65.9330  -13.2730   45.3750 N.ar      1 1N1        -0.2662
     30 N5        -62.7030  -12.3820   43.1480 N.pl3     1 1N1        -0.2818
     31 C17       -61.7040  -10.6720   41.6830 C.3       1 1N1        -0.0108
     32 C18       -60.4250  -11.5140   43.5400 C.3       1 1N1        -0.0108
     33 O1        -57.7070   -9.8810   43.7190 O.3       1 1N1        -0.3898
     34 H1        -71.7341  -14.0413   44.3329 H         1 1N1         0.0652
     35 H2        -60.0560  -11.8836   41.5612 H         1 1N1         0.2036
     36 H3        -74.9317  -17.7084   50.4591 H         1 1N1         0.0471
     37 H4        -74.7527  -15.2449   50.3811 H         1 1N1         0.0515
     38 H5        -74.0376  -13.4359   49.4499 H         1 1N1         0.0362
     39 H6        -73.8937  -13.4512   47.6595 H         1 1N1         0.0362
     40 H7        -72.4172  -13.5255   48.6799 H         1 1N1         0.0362
     41 H8        -65.2283  -12.4475   42.2191 H         1 1N1         0.0519
     42 H9        -63.4637  -13.5114   47.5020 H         1 1N1         0.0460
     43 H10       -64.9033  -14.5845   47.4489 H         1 1N1         0.0460
     44 H11       -65.0930  -12.8471   47.8638 H         1 1N1         0.0460
     45 H12       -63.7492  -11.3577   41.6298 H         1 1N1         0.0577
     46 H13       -62.5432  -12.5571   41.0521 H         1 1N1         0.0577
     47 H14       -60.9712  -13.5724   43.3380 H         1 1N1         0.0577
     48 H15       -61.5307  -12.7890   44.8546 H         1 1N1         0.0577
     49 H16       -59.7695   -9.1648   42.6642 H         1 1N1         0.0837
     50 H17       -59.4206   -9.6333   40.9655 H         1 1N1         0.0837
     51 H18       -57.2924   -9.9741   41.6878 H         1 1N1         0.0610
     52 H19       -57.9318  -11.4842   42.4207 H         1 1N1         0.0610
     53 H20       -67.5719  -12.6366   42.6374 H         1 1N1         0.2300
     54 H21       -72.6471  -15.2297   45.7358 H         1 1N1         0.2226
     55 H22       -73.8343  -19.0840   48.7267 H         1 1N1         0.0526
     56 H23       -61.6409  -10.3587   40.6305 H         1 1N1         0.0835
     57 H24       -62.0203   -9.8189   42.3012 H         1 1N1         0.0835
     58 H25       -60.7445  -10.6507   44.1422 H         1 1N1         0.0835
     59 H26       -59.4208  -11.8312   43.8577 H         1 1N1         0.0835
     60 H27       -57.7722   -8.9332   43.7131 H         1 1N1         0.2096
@<TRIPOS>BOND
     1    2    1 2  
     2    1   20 1  
     3    3    2 1  
     4    2   21 1  
     5   22    3 am 
     6    3   27 2  
     7    4   16 1  
     8   31    4 1  
     9   32    4 1  
    10    6    5 ar 
    11    5   25 ar 
    12    7    6 ar 
    13    7    8 1  
    14   23    7 ar 
    15    9   10 ar 
    16   18    9 1  
    17    9   29 ar 
    18   10   11 ar 
    19   11   28 ar 
    20   11   30 1  
    21   12   13 1  
    22   12   28 ar 
    23   29   12 ar 
    24   30   14 1  
    25   14   31 1  
    26   30   15 1  
    27   15   32 1  
    28   16   17 1  
    29   17   33 1  
    30   19   18 1  
    31   19   20 2  
    32   21   19 1  
    33   22   23 1  
    34   23   24 ar 
    35   24   25 ar 
    36   24   26 1  
    37    1   34 1  
    38    4   35 1  
    39    5   36 1  
    40    6   37 1  
    41    8   38 1  
    42    8   39 1  
    43    8   40 1  
    44   10   41 1  
    45   13   42 1  
    46   13   43 1  
    47   13   44 1  
    48   14   45 1  
    49   14   46 1  
    50   15   47 1  
    51   15   48 1  
    52   16   49 1  
    53   16   50 1  
    54   17   51 1  
    55   17   52 1  
    56   18   53 1  
    57   22   54 1  
    58   25   55 1  
    59   31   56 1  
    60   31   57 1  
    61   32   58 1  
    62   32   59 1  
    63   33   60 1  
@<TRIPOS>SUBSTRUCTURE
     1 1N1         1

