### 
### Created by X-TOOL on Mon Sep 10 21:13:26 2018
### 

@<TRIPOS>MOLECULE
5i9z_ligand
   64    68     1     0     0
SMALL
GAST_HUCK


@<TRIPOS>ATOM
      1 N1       -102.0340  -16.2260   47.2230 N.am      1 627        -0.2009
      2 N2       -102.6900  -15.3280   43.7690 N.pl3     1 627        -0.2705
      3 C3       -100.5900  -15.1880   44.0200 C.2       1 627         0.1112
      4 N4       -101.6350  -15.0250   43.1930 N.2       1 627        -0.2451
      5 N5        -99.3400  -14.8820   43.5460 N.am      1 627        -0.2330
      6 C6        -98.2090  -15.1270   44.2660 C.2       1 627         0.2212
      7 C7        -96.9650  -14.7470   43.7250 C.ar      1 627         0.0419
      8 O8        -98.2030  -15.6460   45.3780 O.2       1 627        -0.3802
      9 C9        -96.7840  -14.2660   42.4310 C.ar      1 627        -0.0530
     10 C10       -95.5150  -13.9020   41.9630 C.ar      1 627        -0.0381
     11 C11       -94.5720  -14.5140   44.0800 C.ar      1 627        -0.0381
     12 C12       -95.8410  -14.8700   44.5400 C.ar      1 627        -0.0530
     13 C13      -102.4240  -15.7210   45.0260 C.2       1 627         0.0517
     14 C14      -101.0960  -15.6280   45.1960 C.2       1 627         0.0221
     15 C15      -100.7760  -16.0270   46.5270 C.2       1 627         0.0530
     16 C16      -103.0690  -16.1880   46.1890 C.2       1 627         0.0605
     17 N17       -93.1780  -13.6800   42.3380 N.pl3     1 627        -0.2958
     18 C18       -92.1560  -13.8550   43.3900 C.3       1 627         0.0680
     19 C19       -90.7720  -13.4290   42.9110 C.3       1 627        -0.0118
     20 N20       -90.8010  -12.0240   42.4790 N.4       1 627         0.2359
     21 C21       -91.7650  -11.8900   41.3720 C.3       1 627        -0.0118
     22 C22       -93.1570  -12.2870   41.8570 C.3       1 627         0.0680
     23 C23       -89.4620  -11.5800   42.0660 C.3       1 627        -0.0430
     24 C24       -94.3990  -14.0190   42.7900 C.ar      1 627         0.0460
     25 C25      -102.2840  -16.4680   48.5240 C.2       1 627         0.2946
     26 O26      -103.4190  -16.6580   48.9760 O.2       1 627        -0.3461
     27 C27      -100.6410  -15.1650   49.7290 C.ar      1 627         0.0065
     28 C28       -99.3000  -14.7990   49.6050 C.ar      1 627        -0.0553
     29 C29      -101.5670  -14.1930   50.1160 C.ar      1 627        -0.0553
     30 C31       -98.8860  -13.4920   49.8560 C.ar      1 627        -0.0680
     31 C33      -101.1500  -12.8810   50.3760 C.ar      1 627        -0.0680
     32 C20      -101.0560  -16.4860   49.4590 C.3       1 627         0.1995
     33 C35       -99.8070  -12.5280   50.2490 C.ar      1 627        -0.0684
     34 C36      -100.3750  -17.3350   51.5970 C.3       1 627         0.0425
     35 O34      -101.4590  -17.1570   50.6660 O.3       1 627        -0.3451
     36 H1       -103.6289  -15.2850   43.3476 H         1 627         0.2116
     37 H2        -99.2555  -14.4648   42.6411 H         1 627         0.2231
     38 H3        -97.6408  -14.1715   41.7737 H         1 627         0.0636
     39 H4        -95.4001  -13.5273   40.9523 H         1 627         0.0530
     40 H5        -93.7136  -14.6239   44.7328 H         1 627         0.0530
     41 H6        -95.9543  -15.2489   45.5493 H         1 627         0.0636
     42 H7        -99.7778  -16.1576   46.9423 H         1 627         0.0799
     43 H8       -104.1173  -16.4628   46.2957 H         1 627         0.0630
     44 H9        -92.1216  -14.9155   43.6802 H         1 627         0.0569
     45 H10       -92.4344  -13.2450   44.2620 H         1 627         0.0569
     46 H11       -90.4674  -14.0639   42.0660 H         1 627         0.0834
     47 H12       -90.0507  -13.5425   43.7337 H         1 627         0.0834
     48 H13       -91.1056  -11.4500   43.2496 H         1 627         0.2032
     49 H14       -91.4646  -12.5474   40.5428 H         1 627         0.0834
     50 H15       -91.7817  -10.8463   41.0249 H         1 627         0.0834
     51 H16       -93.4542  -11.6193   42.6791 H         1 627         0.0569
     52 H17       -93.8694  -12.1841   41.0252 H         1 627         0.0569
     53 H18       -88.7632  -11.6900   42.9084 H         1 627         0.0778
     54 H19       -89.5039  -10.5243   41.7599 H         1 627         0.0778
     55 H20       -89.1168  -12.1934   41.2207 H         1 627         0.0778
     56 H21       -98.5691  -15.5427   49.3089 H         1 627         0.0562
     57 H22      -102.6140  -14.4555   50.2157 H         1 627         0.0562
     58 H23       -97.8411  -13.2261   49.7442 H         1 627         0.0600
     59 H24      -101.8764  -12.1352   50.6780 H         1 627         0.0600
     60 H25      -100.2294  -17.0357   48.9853 H         1 627         0.1023
     61 H26       -99.4850  -11.5135   50.4544 H         1 627         0.0561
     62 H27      -100.7443  -17.8513   52.4954 H         1 627         0.0528
     63 H28       -99.9693  -16.3524   51.8796 H         1 627         0.0528
     64 H29       -99.5834  -17.9373   51.1273 H         1 627         0.0528
@<TRIPOS>BOND
     1    1   15 1  
     2    1   16 1  
     3   25    1 am 
     4    2    4 1  
     5   13    2 1  
     6    3    4 2  
     7    3    5 1  
     8   14    3 1  
     9    5    6 am 
    10    6    7 1  
    11    6    8 2  
    12    7    9 ar 
    13    7   12 ar 
    14    9   10 ar 
    15   10   24 ar 
    16   12   11 ar 
    17   11   24 ar 
    18   13   14 1  
    19   16   13 2  
    20   15   14 2  
    21   17   18 1  
    22   17   22 1  
    23   24   17 1  
    24   18   19 1  
    25   19   20 1  
    26   21   20 1  
    27   20   23 1  
    28   22   21 1  
    29   25   26 2  
    30   32   25 1  
    31   27   28 ar 
    32   27   29 ar 
    33   27   32 1  
    34   28   30 ar 
    35   29   31 ar 
    36   30   33 ar 
    37   31   33 ar 
    38   32   35 1  
    39   35   34 1  
    40    2   36 1  
    41    5   37 1  
    42    9   38 1  
    43   10   39 1  
    44   11   40 1  
    45   12   41 1  
    46   15   42 1  
    47   16   43 1  
    48   18   44 1  
    49   18   45 1  
    50   19   46 1  
    51   19   47 1  
    52   20   48 1  
    53   21   49 1  
    54   21   50 1  
    55   22   51 1  
    56   22   52 1  
    57   23   53 1  
    58   23   54 1  
    59   23   55 1  
    60   28   56 1  
    61   29   57 1  
    62   30   58 1  
    63   31   59 1  
    64   32   60 1  
    65   33   61 1  
    66   34   62 1  
    67   34   63 1  
    68   34   64 1  
@<TRIPOS>SUBSTRUCTURE
     1 627         1

