### 
### Created by X-TOOL on Mon Sep 10 21:13:28 2018
### 

@<TRIPOS>MOLECULE
5ia0_ligand
   56    60     1     0     0
SMALL
GAST_HUCK


@<TRIPOS>ATOM
      1 C26       -27.9460   -5.3080  -25.1200 C.3       1 A5B         0.0602
      2 O2        -27.1040   -6.4680  -25.2490 O.3       1 A5B        -0.3207
      3 C24       -26.1310   -6.4040  -26.2040 C.ar      1 A5B         0.0963
      4 C25       -26.0470   -5.3480  -27.1240 C.ar      1 A5B        -0.0069
      5 C23       -25.2260   -7.4730  -26.2330 C.ar      1 A5B         0.0270
      6 C27       -25.2430   -8.5410  -25.3150 C.2       1 A5B         0.0508
      7 O4        -24.7370   -9.6430  -25.6150 O.co2     1 A5B        -0.5673
      8 O3        -25.6400   -8.3720  -24.1420 O.co2     1 A5B        -0.5673
      9 C22       -24.2220   -7.4500  -27.1880 C.ar      1 A5B        -0.0652
     10 C21       -24.1530   -6.4080  -28.1100 C.ar      1 A5B        -0.0455
     11 C20       -25.0390   -5.3400  -28.0870 C.ar      1 A5B         0.0582
     12 N4        -24.8200   -4.4020  -29.0360 N.pl3     1 A5B        -0.2456
     13 C12       -25.4280   -3.2130  -29.1590 C.ar      1 A5B         0.2052
     14 N3        -26.5570   -2.8690  -28.5160 N.ar      1 A5B        -0.2522
     15 N2        -24.8650   -2.3530  -30.0410 N.ar      1 A5B        -0.2577
     16 C11       -25.4270   -1.0910  -30.2620 C.ar      1 A5B         0.0184
     17 C10       -26.5750   -0.7490  -29.5670 C.ar      1 A5B         0.0147
     18 C9        -27.0330    0.5280  -29.8960 C.3       1 A5B         0.0382
     19 N1        -27.2720    1.3110  -28.6670 N.2       1 A5B        -0.3379
     20 C13       -27.1230   -1.6660  -28.6810 C.ar      1 A5B         0.0632
     21 C14       -28.2830   -1.4570  -27.9470 C.ar      1 A5B         0.0180
     22 C19       -29.0150   -2.6210  -27.7130 C.ar      1 A5B        -0.0425
     23 C18       -30.2230   -2.5310  -27.0240 C.ar      1 A5B        -0.0389
     24 C17       -30.6760   -1.2940  -26.5660 C.ar      1 A5B         0.0501
     25 CL1       -32.1900   -1.1490  -25.6980 Cl        1 A5B        -0.0668
     26 C16       -29.9250   -0.1450  -26.7890 C.ar      1 A5B        -0.0268
     27 C15       -28.7380   -0.2230  -27.5050 C.ar      1 A5B         0.0237
     28 C8        -28.0660    0.9990  -27.6480 C.2       1 A5B         0.0498
     29 C7        -28.0430    1.8980  -26.5800 C.ar      1 A5B         0.0799
     30 C6        -27.4650    1.5370  -25.3530 C.ar      1 A5B         0.1463
     31 F1        -26.9230    0.2300  -25.1360 F         1 A5B        -0.1778
     32 C5        -27.4380    2.4460  -24.2960 C.ar      1 A5B        -0.0304
     33 C4        -27.9670    3.7230  -24.4710 C.ar      1 A5B        -0.0654
     34 C3        -28.5240    4.0940  -25.6950 C.ar      1 A5B        -0.0276
     35 C2        -28.5440    3.1760  -26.7360 C.ar      1 A5B         0.1123
     36 O1        -29.0580    3.4460  -27.9550 O.3       1 A5B        -0.3139
     37 C1        -28.7590    4.7810  -28.3290 C.3       1 A5B         0.0622
     38 H1        -28.6857   -5.4786  -24.3240 H         1 A5B         0.0579
     39 H2        -28.4669   -5.1253  -26.0715 H         1 A5B         0.0579
     40 H3        -27.3290   -4.4335  -24.8659 H         1 A5B         0.0579
     41 H4        -26.7663   -4.5379  -27.0860 H         1 A5B         0.0461
     42 H5        -23.4871   -8.2463  -27.2177 H         1 A5B         0.0595
     43 H6        -23.3814   -6.4322  -28.8710 H         1 A5B         0.0455
     44 H7        -24.1061   -4.6258  -29.7439 H         1 A5B         0.2167
     45 H8        -24.9744   -0.3970  -30.9610 H         1 A5B         0.0835
     46 H9        -27.9721    0.4435  -30.4624 H         1 A5B         0.0543
     47 H10       -26.2779    1.0384  -30.5119 H         1 A5B         0.0543
     48 H11       -28.6501   -3.5804  -28.0615 H         1 A5B         0.0662
     49 H12       -30.8113   -3.4235  -26.8438 H         1 A5B         0.0678
     50 H13       -30.2657    0.8096  -26.4046 H         1 A5B         0.0696
     51 H14       -27.0076    2.1606  -23.3429 H         1 A5B         0.0532
     52 H15       -27.9456    4.4322  -23.6515 H         1 A5B         0.0635
     53 H16       -28.9362    5.0872  -25.8315 H         1 A5B         0.0528
     54 H17       -29.1832    4.9871  -29.3228 H         1 A5B         0.0583
     55 H18       -27.6680    4.9174  -28.3606 H         1 A5B         0.0583
     56 H19       -29.1940    5.4740  -27.5938 H         1 A5B         0.0583
@<TRIPOS>BOND
     1    1    2 1  
     2    2    3 1  
     3    3    4 ar 
     4    3    5 ar 
     5    4   11 ar 
     6    5    6 1  
     7    5    9 ar 
     8    6    7 ar 
     9    6    8 ar 
    10    9   10 ar 
    11   10   11 ar 
    12   11   12 1  
    13   12   13 1  
    14   13   14 ar 
    15   13   15 ar 
    16   14   20 ar 
    17   15   16 ar 
    18   16   17 ar 
    19   17   18 1  
    20   17   20 ar 
    21   18   19 1  
    22   19   28 2  
    23   20   21 1  
    24   21   22 ar 
    25   21   27 ar 
    26   22   23 ar 
    27   23   24 ar 
    28   24   25 1  
    29   24   26 ar 
    30   26   27 ar 
    31   27   28 1  
    32   28   29 1  
    33   29   30 ar 
    34   29   35 ar 
    35   30   31 1  
    36   30   32 ar 
    37   32   33 ar 
    38   33   34 ar 
    39   34   35 ar 
    40   35   36 1  
    41   36   37 1  
    42    1   38 1  
    43    1   39 1  
    44    1   40 1  
    45    4   41 1  
    46    9   42 1  
    47   10   43 1  
    48   12   44 1  
    49   16   45 1  
    50   18   46 1  
    51   18   47 1  
    52   22   48 1  
    53   23   49 1  
    54   26   50 1  
    55   32   51 1  
    56   33   52 1  
    57   34   53 1  
    58   37   54 1  
    59   37   55 1  
    60   37   56 1  
@<TRIPOS>SUBSTRUCTURE
     1 A5B         1

