### 
### Created by X-TOOL on Mon Sep 10 21:13:27 2018
### 

@<TRIPOS>MOLECULE
5ia1_ligand
   48    52     1     0     0
SMALL
GAST_HUCK


@<TRIPOS>ATOM
      1 C13       -89.1230  -17.0030    8.3130 C.3       1 ZZL         0.0407
      2 C15       -88.0860  -16.5450   10.6070 C.2       1 ZZL         0.0550
      3 C17       -89.3100  -16.1590   12.7110 C.ar      1 ZZL         0.1522
      4 C20       -88.6250  -14.3500   14.1700 C.ar      1 ZZL        -0.0589
      5 C21       -87.6130  -14.0230   13.2880 C.ar      1 ZZL        -0.0237
      6 C22       -87.4520  -14.7620   12.1150 C.ar      1 ZZL         0.1522
      7 C24       -86.8490  -17.1490   10.3590 C.ar      1 ZZL         0.0251
      8 C26       -85.0000  -18.3040   11.3960 C.ar      1 ZZL         0.0501
      9 C28       -84.3480  -18.3640   10.1660 C.ar      1 ZZL        -0.0388
     10 O01       -79.0130  -14.1480    4.3370 O.co2     1 ZZL        -0.5638
     11 C02       -79.7530  -14.0700    5.3460 C.2       1 ZZL         0.0552
     12 O03       -79.2870  -13.6430    6.4310 O.co2     1 ZZL        -0.5638
     13 C04       -81.1040  -14.4010    5.2590 C.ar      1 ZZL        -0.0018
     14 C05       -81.7760  -14.2810    4.0480 C.ar      1 ZZL        -0.0573
     15 C06       -83.1310  -14.5940    3.9780 C.ar      1 ZZL        -0.0347
     16 C07       -83.8440  -15.0380    5.0950 C.ar      1 ZZL         0.0671
     17 N08       -85.1610  -15.3200    4.9070 N.pl3     1 ZZL        -0.2432
     18 C09       -86.0360  -15.7600    5.8390 C.ar      1 ZZL         0.2053
     19 N10       -87.3290  -15.6750    5.4850 N.ar      1 ZZL        -0.2577
     20 C11       -88.3680  -16.0950    6.3290 C.ar      1 ZZL         0.0185
     21 C12       -88.0120  -16.6120    7.5690 C.ar      1 ZZL         0.0154
     22 N14       -89.0680  -16.4430    9.6960 N.2       1 ZZL        -0.3323
     23 C16       -88.2840  -15.8480   11.8160 C.ar      1 ZZL         0.0838
     24 F18       -90.1890  -17.2110   12.4850 F         1 ZZL        -0.1759
     25 C19       -89.4600  -15.4190   13.8770 C.ar      1 ZZL        -0.0237
     26 F23       -86.4140  -14.4010   11.2610 F         1 ZZL        -0.1759
     27 C25       -86.2470  -17.6830   11.5010 C.ar      1 ZZL        -0.0267
     28 CL1       -84.2310  -19.0050   12.8130 Cl        1 ZZL        -0.0667
     29 C29       -84.9380  -17.8130    9.0270 C.ar      1 ZZL        -0.0425
     30 C30       -86.1910  -17.2110    9.1250 C.ar      1 ZZL         0.0182
     31 C31       -86.6670  -16.7070    7.9080 C.ar      1 ZZL         0.0633
     32 N32       -85.7060  -16.2970    7.0420 N.ar      1 ZZL        -0.2522
     33 C33       -83.1490  -15.1580    6.3010 C.ar      1 ZZL        -0.0347
     34 C34       -81.7910  -14.8360    6.3900 C.ar      1 ZZL        -0.0573
     35 H1        -89.1482  -18.1012    8.3709 H         1 ZZL         0.0550
     36 H2        -90.0345  -16.6410    7.8149 H         1 ZZL         0.0550
     37 H3        -88.7651  -13.7782   15.0802 H         1 ZZL         0.0651
     38 H4        -86.9469  -13.1960   13.5061 H         1 ZZL         0.0588
     39 H5        -83.3774  -18.8411   10.0931 H         1 ZZL         0.0679
     40 H6        -81.2479  -13.9455    3.1628 H         1 ZZL         0.0621
     41 H7        -83.6473  -14.4904    3.0305 H         1 ZZL         0.0543
     42 H8        -85.5305  -15.1842    3.9552 H         1 ZZL         0.2170
     43 H9        -89.4061  -16.0194    6.0263 H         1 ZZL         0.0835
     44 H10       -90.2473  -15.6826   14.5740 H         1 ZZL         0.0588
     45 H11       -86.7441  -17.6159   12.4620 H         1 ZZL         0.0697
     46 H12       -84.4250  -17.8532    8.0729 H         1 ZZL         0.0662
     47 H13       -83.6720  -15.5071    7.1840 H         1 ZZL         0.0543
     48 H14       -81.2734  -14.9248    7.3383 H         1 ZZL         0.0621
@<TRIPOS>BOND
     1   21    1 1  
     2    1   22 1  
     3    2    7 1  
     4   22    2 2  
     5    2   23 1  
     6   23    3 ar 
     7    3   24 1  
     8    3   25 ar 
     9    5    4 ar 
    10   25    4 ar 
    11    6    5 ar 
    12   23    6 ar 
    13    6   26 1  
    14    7   27 ar 
    15    7   30 ar 
    16    8    9 ar 
    17   27    8 ar 
    18    8   28 1  
    19    9   29 ar 
    20   11   10 ar 
    21   11   12 ar 
    22   13   11 1  
    23   14   13 ar 
    24   13   34 ar 
    25   15   14 ar 
    26   16   15 ar 
    27   17   16 1  
    28   16   33 ar 
    29   18   17 1  
    30   19   18 ar 
    31   18   32 ar 
    32   20   19 ar 
    33   20   21 ar 
    34   21   31 ar 
    35   29   30 ar 
    36   30   31 1  
    37   31   32 ar 
    38   33   34 ar 
    39    1   35 1  
    40    1   36 1  
    41    4   37 1  
    42    5   38 1  
    43    9   39 1  
    44   14   40 1  
    45   15   41 1  
    46   17   42 1  
    47   20   43 1  
    48   25   44 1  
    49   27   45 1  
    50   29   46 1  
    51   33   47 1  
    52   34   48 1  
@<TRIPOS>SUBSTRUCTURE
     1 ZZL         1

