### 
### Created by X-TOOL on Mon Sep 10 21:13:26 2018
### 

@<TRIPOS>MOLECULE
5ia2_ligand
   50    54     1     0     0
SMALL
GAST_HUCK


@<TRIPOS>ATOM
      1 O2        -85.2070  -10.6520    5.1060 O.2       1 L66        -0.3870
      2 C17       -86.2290  -11.0360    5.6700 C.2       1 L66         0.3155
      3 N4        -87.3950  -11.1380    4.9740 N.am      1 L66        -0.1875
      4 C16       -88.5430  -11.5470    5.5680 C.2       1 L66         0.2161
      5 O3        -89.7670  -11.6420    4.8260 O.2       1 L66        -0.4100
      6 N5        -86.2160  -11.3530    6.9850 N.am      1 L66        -0.2065
      7 C18       -84.9440  -11.2480    7.7810 C.3       1 L66         0.0448
      8 C2        -87.3180  -11.7720    7.6210 C.2       1 L66         0.1152
      9 C3        -88.5630  -11.8950    6.9200 C.2       1 L66         0.1580
     10 N1        -87.5480  -12.1500    8.9250 N.2       1 L66        -0.2898
     11 C1        -88.8730  -12.4810    9.0340 C.2       1 L66         0.2553
     12 N2        -89.5160  -12.3420    7.8310 N.pl3     1 L66        -0.2067
     13 C4        -90.8210  -12.6860    7.9900 C.2       1 L66         0.0739
     14 N3        -89.7420  -12.9280    9.9640 N.pl3     1 L66        -0.1829
     15 C5        -90.9620  -13.0610    9.3880 C.2       1 L66         0.1049
     16 C10       -92.1500  -13.5530   10.2030 C.ar      1 L66        -0.0070
     17 C11       -92.7150  -14.8210    9.9480 C.ar      1 L66        -0.0504
     18 C40       -92.1780  -15.6950    8.7760 C.3       1 L66        -0.0364
     19 C12       -93.7560  -15.2700   10.7140 C.ar      1 L66        -0.0715
     20 C13       -94.2490  -14.4360   11.8020 C.ar      1 L66        -0.0434
     21 C15       -92.6190  -12.7450   11.2760 C.ar      1 L66        -0.0358
     22 C14       -93.6640  -13.1900   12.0500 C.ar      1 L66         0.0766
     23 O41       -94.1010  -12.4130   13.0440 O.3       1 L66        -0.3387
     24 C32       -89.3850  -13.1730   11.4010 C.ar      1 L66         0.1198
     25 C33       -89.3190  -14.4580   11.9450 C.ar      1 L66        -0.0398
     26 C34       -88.9820  -14.6060   13.2820 C.ar      1 L66        -0.0799
     27 C35       -88.7250  -13.4890   14.0620 C.ar      1 L66        -0.0801
     28 C36       -88.7980  -12.2270   13.5260 C.ar      1 L66        -0.0394
     29 C37       -89.1360  -12.0720   12.1590 C.ar      1 L66         0.1215
     30 O38       -89.2190  -10.8120   11.5580 O.3       1 L66        -0.3233
     31 C39       -88.8560   -9.6830   12.3670 C.3       1 L66         0.0576
     32 H1        -87.4047  -10.9056    4.0014 H         1 L66         0.2249
     33 H2        -84.1318  -10.8939    7.1292 H         1 L66         0.0549
     34 H3        -84.6833  -12.2362    8.1877 H         1 L66         0.0549
     35 H4        -85.0867  -10.5371    8.6082 H         1 L66         0.0549
     36 H5        -91.5996  -12.6817    7.2286 H         1 L66         0.0828
     37 H6        -92.7392  -16.6402    8.7365 H         1 L66         0.0370
     38 H7        -91.1110  -15.9086    8.9369 H         1 L66         0.0370
     39 H8        -92.3046  -15.1535    7.8269 H         1 L66         0.0370
     40 H9        -94.2084  -16.2345   10.5138 H         1 L66         0.0520
     41 H10       -95.0699  -14.7814   12.4199 H         1 L66         0.0497
     42 H11       -92.1561  -11.7866   11.4814 H         1 L66         0.0486
     43 H12       -94.8204  -12.8451   13.4893 H         1 L66         0.2456
     44 H13       -89.5281  -15.3266   11.3311 H         1 L66         0.0527
     45 H14       -88.9194  -15.5965   13.7179 H         1 L66         0.0500
     46 H15       -88.4635  -13.6134   15.1066 H         1 L66         0.0509
     47 H16       -88.5990  -11.3580   14.1427 H         1 L66         0.0513
     48 H17       -88.9649   -8.7601   11.7785 H         1 L66         0.0574
     49 H18       -87.8112   -9.7876   12.6949 H         1 L66         0.0574
     50 H19       -89.5137   -9.6362   13.2475 H         1 L66         0.0574
@<TRIPOS>BOND
     1    1    2 2  
     2    2    3 am 
     3    2    6 am 
     4    3    4 am 
     5    4    5 2  
     6    4    9 1  
     7    6    7 1  
     8    6    8 am 
     9    8    9 2  
    10    8   10 1  
    11    9   12 1  
    12   10   11 2  
    13   11   12 1  
    14   11   14 1  
    15   12   13 1  
    16   13   15 2  
    17   14   15 1  
    18   14   24 1  
    19   15   16 1  
    20   16   17 ar 
    21   16   21 ar 
    22   17   18 1  
    23   17   19 ar 
    24   19   20 ar 
    25   20   22 ar 
    26   21   22 ar 
    27   22   23 1  
    28   24   25 ar 
    29   24   29 ar 
    30   25   26 ar 
    31   26   27 ar 
    32   27   28 ar 
    33   28   29 ar 
    34   29   30 1  
    35   30   31 1  
    36    3   32 1  
    37    7   33 1  
    38    7   34 1  
    39    7   35 1  
    40   13   36 1  
    41   18   37 1  
    42   18   38 1  
    43   18   39 1  
    44   19   40 1  
    45   20   41 1  
    46   21   42 1  
    47   23   43 1  
    48   25   44 1  
    49   26   45 1  
    50   27   46 1  
    51   28   47 1  
    52   31   48 1  
    53   31   49 1  
    54   31   50 1  
@<TRIPOS>SUBSTRUCTURE
     1 L66         1

