### 
### Created by X-TOOL on Mon Sep 10 21:13:28 2018
### 

@<TRIPOS>MOLECULE
5ia4_ligand
   81    86     1     0     0
SMALL
GAST_HUCK


@<TRIPOS>ATOM
      1 C1         15.1840   -4.9890   99.9780 C.ar      1 88Z         0.1283
      2 C2         13.8280   -4.7680  100.1590 C.ar      1 88Z         0.1288
      3 C3         13.1680   -5.1760  101.3120 C.ar      1 88Z        -0.0216
      4 C4         13.9200   -5.8260  102.2920 C.ar      1 88Z         0.0168
      5 C5         15.2960   -6.0460  102.1290 C.ar      1 88Z         0.0268
      6 C6         15.9470   -5.6350  100.9570 C.ar      1 88Z        -0.0224
      7 N7         13.2790   -6.2210  103.3970 N.ar      1 88Z        -0.3289
      8 C8         13.9910   -6.8680  104.4170 C.ar      1 88Z        -0.0140
      9 C9         15.3640   -7.1080  104.2990 C.ar      1 88Z        -0.0096
     10 C10        16.0270   -6.6900  103.1440 C.ar      1 88Z         0.1344
     11 O11        15.6650   -4.5340   98.7920 O.3       1 88Z        -0.3209
     12 C12        17.0460   -4.7790   98.5010 C.3       1 88Z         0.0581
     13 O13        13.2150   -4.1250   99.1300 O.3       1 88Z        -0.3150
     14 O14        17.3740   -6.8970  102.9180 O.3       1 88Z        -0.2531
     15 C15        18.1430   -7.0980  104.0540 C.ar      1 88Z         0.1420
     16 C16        18.4610   -6.0890  104.9450 C.ar      1 88Z        -0.0398
     17 C17        19.2160   -6.3580  106.0800 C.ar      1 88Z        -0.0498
     18 C18        19.7030   -7.6440  106.3540 C.ar      1 88Z         0.0574
     19 C19        19.3810   -8.6690  105.4450 C.ar      1 88Z        -0.0124
     20 C20        18.6110   -8.3880  104.3000 C.ar      1 88Z         0.1549
     21 F21        18.2770   -9.3560  103.4050 F         1 88Z        -0.1917
     22 N22        20.4230   -7.7700  107.4960 N.am      1 88Z        -0.2395
     23 C23        11.7850   -3.9730   99.2700 C.3       1 88Z         0.0752
     24 C24        11.2880   -3.4050   97.9360 C.3       1 88Z         0.0153
     25 C25        11.7340   -1.9360   97.8750 C.3       1 88Z        -0.0292
     26 N26        11.2500   -1.2640   96.6600 N.4       1 88Z         0.2385
     27 C27        12.1370   -1.5340   95.5180 C.3       1 88Z        -0.0078
     28 C28        11.6400   -0.7850   94.2800 C.3       1 88Z         0.0878
     29 O29        11.6230    0.6270   94.5580 O.3       1 88Z        -0.3693
     30 C30        10.7050    0.9000   95.6290 C.3       1 88Z         0.0878
     31 C31        11.1820    0.1850   96.8930 C.3       1 88Z        -0.0078
     32 C32        21.3530   -8.7370  107.6980 C.2       1 88Z         0.2296
     33 C33        22.0470   -8.7320  109.0700 C.3       1 88Z         0.1387
     34 C34        21.5380   -7.6760  110.0840 C.2       1 88Z         0.2316
     35 N35        22.0980   -7.7660  111.3220 N.am      1 88Z        -0.2358
     36 O36        21.6960   -9.5690  106.8630 O.2       1 88Z        -0.3416
     37 O37        20.6800   -6.8330  109.7640 O.2       1 88Z        -0.3396
     38 C38        21.7390   -6.8940  112.2860 C.ar      1 88Z         0.0640
     39 C39        20.4040   -6.5840  112.5380 C.ar      1 88Z        -0.0416
     40 C40        20.0330   -5.6780  113.5230 C.ar      1 88Z        -0.0409
     41 C41        21.0160   -5.0910  114.2910 C.ar      1 88Z         0.1166
     42 C42        22.3540   -5.4130  114.0690 C.ar      1 88Z        -0.0409
     43 C43        22.7220   -6.3090  113.0740 C.ar      1 88Z        -0.0416
     44 F44        20.6380   -4.1780  115.2820 F         1 88Z        -0.1956
     45 C45        23.5390   -9.1450  109.0760 C.3       1 88Z        -0.0349
     46 C46        22.4720  -10.0980  109.6330 C.3       1 88Z        -0.0349
     47 H1         12.1074   -4.9959  101.4455 H         1 88Z         0.0484
     48 H2         17.0069   -5.8120  100.8141 H         1 88Z         0.0520
     49 H3         13.4689   -7.1874  105.3117 H         1 88Z         0.0770
     50 H4         15.9049   -7.6109  105.0924 H         1 88Z         0.0545
     51 H5         17.2933   -4.3578   97.5154 H         1 88Z         0.0575
     52 H6         17.2325   -5.8630   98.4938 H         1 88Z         0.0575
     53 H7         17.6727   -4.3042   99.2703 H         1 88Z         0.0575
     54 H8         18.1178   -5.0783  104.7559 H         1 88Z         0.0516
     55 H9         19.4343   -5.5525  106.7718 H         1 88Z         0.0456
     56 H10        19.7275   -9.6799  105.6272 H         1 88Z         0.0473
     57 H11        20.2592   -7.1126  108.2315 H         1 88Z         0.2247
     58 H12        11.5530   -3.2788  100.0911 H         1 88Z         0.0616
     59 H13        11.3148   -4.9472   99.4695 H         1 88Z         0.0616
     60 H14        10.1911   -3.4685   97.8843 H         1 88Z         0.0343
     61 H15        11.7277   -3.9676   97.0993 H         1 88Z         0.0343
     62 H16        12.8332   -1.8976   97.8882 H         1 88Z         0.0815
     63 H17        11.3380   -1.4077   98.7548 H         1 88Z         0.0815
     64 H18        10.3273   -1.6077   96.4441 H         1 88Z         0.2035
     65 H19        12.1455   -2.6143   95.3109 H         1 88Z         0.0837
     66 H20        13.1562   -1.1992   95.7614 H         1 88Z         0.0837
     67 H21        10.6239   -1.1229   94.0285 H         1 88Z         0.0613
     68 H22        12.3132   -0.9854   93.4335 H         1 88Z         0.0613
     69 H23         9.7031    0.5368   95.3566 H         1 88Z         0.0613
     70 H24        10.6649    1.9839   95.8122 H         1 88Z         0.0613
     71 H25        12.1807    0.5566   97.1659 H         1 88Z         0.0837
     72 H26        10.4781    0.3887   97.7134 H         1 88Z         0.0837
     73 H27        22.7739   -8.4771  111.5158 H         1 88Z         0.2260
     74 H28        19.6321   -7.0643  111.9476 H         1 88Z         0.0499
     75 H29        18.9887   -5.4366  113.6851 H         1 88Z         0.0568
     76 H30        23.1207   -4.9559  114.6840 H         1 88Z         0.0568
     77 H31        23.7667   -6.5497  112.9137 H         1 88Z         0.0499
     78 H32        24.2447   -8.6493  109.7588 H         1 88Z         0.0240
     79 H33        24.0486   -9.3815  108.1303 H         1 88Z         0.0240
     80 H34        22.2201  -11.0189  109.0867 H         1 88Z         0.0240
     81 H35        22.4162  -10.2867  110.7152 H         1 88Z         0.0240
@<TRIPOS>BOND
     1    1    2 ar 
     2    1    6 ar 
     3    1   11 1  
     4    2    3 ar 
     5    2   13 1  
     6    3    4 ar 
     7    4    5 ar 
     8    4    7 ar 
     9    5    6 ar 
    10    5   10 ar 
    11    7    8 ar 
    12    8    9 ar 
    13    9   10 ar 
    14   10   14 1  
    15   11   12 1  
    16   13   23 1  
    17   14   15 1  
    18   15   16 ar 
    19   15   20 ar 
    20   16   17 ar 
    21   17   18 ar 
    22   18   19 ar 
    23   18   22 1  
    24   19   20 ar 
    25   20   21 1  
    26   22   32 am 
    27   23   24 1  
    28   24   25 1  
    29   25   26 1  
    30   26   27 1  
    31   26   31 1  
    32   27   28 1  
    33   28   29 1  
    34   29   30 1  
    35   30   31 1  
    36   32   33 1  
    37   32   36 2  
    38   33   34 1  
    39   33   45 1  
    40   33   46 1  
    41   34   35 am 
    42   34   37 2  
    43   35   38 1  
    44   38   39 ar 
    45   38   43 ar 
    46   39   40 ar 
    47   40   41 ar 
    48   41   42 ar 
    49   41   44 1  
    50   42   43 ar 
    51   45   46 1  
    52    3   47 1  
    53    6   48 1  
    54    8   49 1  
    55    9   50 1  
    56   12   51 1  
    57   12   52 1  
    58   12   53 1  
    59   16   54 1  
    60   17   55 1  
    61   19   56 1  
    62   22   57 1  
    63   23   58 1  
    64   23   59 1  
    65   24   60 1  
    66   24   61 1  
    67   25   62 1  
    68   25   63 1  
    69   26   64 1  
    70   27   65 1  
    71   27   66 1  
    72   28   67 1  
    73   28   68 1  
    74   30   69 1  
    75   30   70 1  
    76   31   71 1  
    77   31   72 1  
    78   35   73 1  
    79   39   74 1  
    80   40   75 1  
    81   42   76 1  
    82   43   77 1  
    83   45   78 1  
    84   45   79 1  
    85   46   80 1  
    86   46   81 1  
@<TRIPOS>SUBSTRUCTURE
     1 88Z         1

