### 
### Created by X-TOOL on Mon Sep 10 21:13:28 2018
### 

@<TRIPOS>MOLECULE
5ia5_ligand
   85    90     1     0     0
SMALL
GAST_HUCK


@<TRIPOS>ATOM
      1 CAV        10.6740   -1.2160   95.8560 C.3       1 GV0         0.0097
      2 CAZ        10.5510    0.2050   96.4630 C.3       1 GV0         0.0092
      3 NAI         9.2120    0.4510   97.0260 N.4       1 GV0         0.2405
      4 CBC         9.1860    1.7720   97.6780 C.3       1 GV0        -0.0427
      5 CBA         8.9230   -0.5910   98.0210 C.3       1 GV0         0.0092
      6 CAW         8.9280   -1.9740   97.3640 C.3       1 GV0         0.0097
      7 NAG        10.2400   -2.3000   96.7710 N.4       1 GV0         0.2449
      8 CAQ        11.2470   -2.8880   97.7020 C.3       1 GV0        -0.0168
      9 CAU        12.1740   -1.9050   98.4150 C.3       1 GV0         0.0107
     10 CAY        13.2770   -2.7140   99.0340 C.3       1 GV0         0.0400
     11 CAT        10.5710   -3.8300   98.7240 C.3       1 GV0         0.0107
     12 CAX        11.2720   -3.8800  100.0970 C.3       1 GV0         0.0400
     13 NAH        12.7200   -3.6300  100.0440 N.am      1 GV0        -0.2531
     14 CBB        13.5730   -4.2030  100.9150 C.2       1 GV0         0.2937
     15 OAE        14.7750   -3.9440  100.8210 O.2       1 GV0        -0.3886
     16 NAL        13.0400   -5.0040  101.8570 N.am      1 GV0        -0.2062
     17 CBJ        13.7730   -5.6950  102.7700 C.ar      1 GV0         0.1275
     18 CBQ        15.1000   -6.0900  102.5660 C.ar      1 GV0         0.0165
     19 NAM        13.1560   -6.0680  103.9000 N.ar      1 GV0        -0.3002
     20 CBT        13.8190   -6.7940  104.8880 C.ar      1 GV0        -0.0166
     21 CBS        15.1470   -7.1490  104.7080 C.ar      1 GV0        -0.0178
     22 CBR        15.7990   -6.8090  103.5280 C.ar      1 GV0         0.1186
     23 OAF        17.1180   -7.1670  103.2910 O.3       1 GV0        -0.2622
     24 CBO        17.9000   -7.4110  104.3970 C.ar      1 GV0         0.1036
     25 CBK        18.1990   -6.3630  105.2600 C.ar      1 GV0        -0.0056
     26 CBF        18.9890   -6.5890  106.3800 C.ar      1 GV0         0.1472
     27 FAA        19.2460   -5.5710  107.1900 F         1 GV0        -0.1950
     28 CBL        18.4450   -8.6720  104.6680 C.ar      1 GV0        -0.0433
     29 CBG        19.2450   -8.9050  105.7960 C.ar      1 GV0        -0.0474
     30 CBD        19.5330   -7.8410  106.6650 C.ar      1 GV0         0.0931
     31 NAJ        20.2640   -7.9000  107.8050 N.am      1 GV0        -0.2382
     32 CAR        21.2860   -8.7690  107.9930 C.2       1 GV0         0.2283
     33 OAC        21.6950   -9.5700  107.1470 O.2       1 GV0        -0.3428
     34 CAN        21.9980   -8.7140  109.3570 C.3       1 GV0         0.1384
     35 CAO        23.5090   -9.0710  109.3500 C.3       1 GV0        -0.0350
     36 CAP        22.5130  -10.0690  109.9320 C.3       1 GV0        -0.0350
     37 CAS        21.4760   -7.6740  110.3690 C.2       1 GV0         0.2315
     38 OAD        20.6250   -6.8370  110.0390 O.2       1 GV0        -0.3396
     39 NAK        22.0390   -7.7740  111.6060 N.am      1 GV0        -0.2358
     40 CBE        21.7040   -6.9270  112.6100 C.ar      1 GV0         0.0640
     41 CBH        22.7050   -6.4540  113.4360 C.ar      1 GV0        -0.0416
     42 CBM        22.3900   -5.5950  114.4880 C.ar      1 GV0        -0.0409
     43 CBP        21.0710   -5.2360  114.7370 C.ar      1 GV0         0.1166
     44 FAB        20.7730   -4.3860  115.7690 F         1 GV0        -0.1956
     45 CBN        20.0520   -5.7160  113.9320 C.ar      1 GV0        -0.0409
     46 CBI        20.3760   -6.5800  112.8870 C.ar      1 GV0        -0.0416
     47 H1         11.7271   -1.3888   95.5893 H         1 GV0         0.0868
     48 H2         10.0540   -1.2599   94.9485 H         1 GV0         0.0868
     49 H3         10.7461    0.9463   95.6740 H         1 GV0         0.0868
     50 H4         11.2981    0.3154   97.2627 H         1 GV0         0.0868
     51 H5          8.5224    0.4225   96.2913 H         1 GV0         0.2035
     52 H6          8.1857    1.9541   98.0978 H         1 GV0         0.0778
     53 H7          9.4202    2.5510   96.9376 H         1 GV0         0.0778
     54 H8          9.9326    1.7972   98.4855 H         1 GV0         0.0778
     55 H9          7.9338   -0.4042   98.4643 H         1 GV0         0.0868
     56 H10         9.6896   -0.5617   98.8093 H         1 GV0         0.0868
     57 H11         8.1655   -1.9934   96.5714 H         1 GV0         0.0868
     58 H12         8.6849   -2.7297   98.1254 H         1 GV0         0.0868
     59 H13        10.0432   -3.0687   96.1494 H         1 GV0         0.2040
     60 H14        11.9002   -3.5133   97.0757 H         1 GV0         0.0852
     61 H15        11.6206   -1.3613   99.1949 H         1 GV0         0.0339
     62 H16        12.5910   -1.1872   97.6933 H         1 GV0         0.0339
     63 H17        14.0001   -2.0381   99.5138 H         1 GV0         0.0522
     64 H18        13.7841   -3.2981   98.2519 H         1 GV0         0.0522
     65 H19        10.5628   -4.8464   98.3036 H         1 GV0         0.0339
     66 H20         9.5367   -3.4881   98.8769 H         1 GV0         0.0339
     67 H21        11.1099   -4.8777  100.5310 H         1 GV0         0.0522
     68 H22        10.8141   -3.1190  100.7460 H         1 GV0         0.0522
     69 H23        12.0447   -5.0962  101.8868 H         1 GV0         0.2304
     70 H24        15.5936   -5.8293  101.6368 H         1 GV0         0.0512
     71 H25        13.2978   -7.0802  105.7944 H         1 GV0         0.0742
     72 H26        15.6753   -7.6899  105.4848 H         1 GV0         0.0520
     73 H27        17.8156   -5.3692  105.0589 H         1 GV0         0.0508
     74 H28        18.2429   -9.4908  103.9870 H         1 GV0         0.0490
     75 H29        19.6367   -9.8960  105.9946 H         1 GV0         0.0476
     76 H30        20.0368   -7.2686  108.5464 H         1 GV0         0.2238
     77 H31        24.2011   -8.5360  110.0169 H         1 GV0         0.0240
     78 H32        24.0147   -9.2935  108.3988 H         1 GV0         0.0240
     79 H33        22.3012  -11.0074  109.3987 H         1 GV0         0.0240
     80 H34        22.4877  -10.2499  111.0167 H         1 GV0         0.0240
     81 H35        22.7159   -8.4898  111.7773 H         1 GV0         0.2260
     82 H36        23.7339   -6.7502  113.2665 H         1 GV0         0.0499
     83 H37        23.1812   -5.2037  115.1173 H         1 GV0         0.0568
     84 H38        19.0229   -5.4258  114.1107 H         1 GV0         0.0568
     85 H39        19.5820   -6.9925  112.2751 H         1 GV0         0.0499
@<TRIPOS>BOND
     1    1    2 1  
     2    1    7 1  
     3    2    3 1  
     4    3    4 1  
     5    3    5 1  
     6    5    6 1  
     7    6    7 1  
     8    7    8 1  
     9    8    9 1  
    10    8   11 1  
    11    9   10 1  
    12   10   13 1  
    13   11   12 1  
    14   12   13 1  
    15   13   14 am 
    16   14   15 2  
    17   14   16 am 
    18   16   17 1  
    19   17   18 ar 
    20   17   19 ar 
    21   18   22 ar 
    22   19   20 ar 
    23   20   21 ar 
    24   21   22 ar 
    25   22   23 1  
    26   23   24 1  
    27   24   25 ar 
    28   24   28 ar 
    29   25   26 ar 
    30   26   27 1  
    31   26   30 ar 
    32   28   29 ar 
    33   29   30 ar 
    34   30   31 1  
    35   31   32 am 
    36   32   33 2  
    37   32   34 1  
    38   34   35 1  
    39   34   36 1  
    40   34   37 1  
    41   35   36 1  
    42   37   38 2  
    43   37   39 am 
    44   39   40 1  
    45   40   41 ar 
    46   40   46 ar 
    47   41   42 ar 
    48   42   43 ar 
    49   43   44 1  
    50   43   45 ar 
    51   45   46 ar 
    52    1   47 1  
    53    1   48 1  
    54    2   49 1  
    55    2   50 1  
    56    3   51 1  
    57    4   52 1  
    58    4   53 1  
    59    4   54 1  
    60    5   55 1  
    61    5   56 1  
    62    6   57 1  
    63    6   58 1  
    64    7   59 1  
    65    8   60 1  
    66    9   61 1  
    67    9   62 1  
    68   10   63 1  
    69   10   64 1  
    70   11   65 1  
    71   11   66 1  
    72   12   67 1  
    73   12   68 1  
    74   16   69 1  
    75   18   70 1  
    76   20   71 1  
    77   21   72 1  
    78   25   73 1  
    79   28   74 1  
    80   29   75 1  
    81   31   76 1  
    82   35   77 1  
    83   35   78 1  
    84   36   79 1  
    85   36   80 1  
    86   39   81 1  
    87   41   82 1  
    88   42   83 1  
    89   45   84 1  
    90   46   85 1  
@<TRIPOS>SUBSTRUCTURE
     1 GV0         1

