### 
### Created by X-TOOL on Mon Sep 10 21:13:28 2018
### 

@<TRIPOS>MOLECULE
5icp_ligand
   38    41     1     0     0
SMALL
GAST_HUCK


@<TRIPOS>ATOM
      1 C2          4.7590   12.4540    6.5310 C.ar      1 69Z         0.0330
      2 C3          5.2540   13.4620    7.3520 C.ar      1 69Z        -0.0545
      3 C4          5.0200   13.4410    8.7200 C.ar      1 69Z        -0.0575
      4 C5          4.2860   12.3980    9.2850 C.ar      1 69Z        -0.0175
      5 C6          3.7930   11.3940    8.4580 C.ar      1 69Z        -0.0575
      6 C7          4.0240   11.4170    7.0910 C.ar      1 69Z        -0.0545
      7 C8          4.0000   12.3020   10.7720 C.3       1 69Z         0.0785
      8 C11         2.7620   14.2970   11.1990 C.3       1 69Z        -0.0284
      9 C12         4.1030   14.3640   11.9770 C.3       1 69Z         0.0365
     10 N13         4.8720   13.1510   11.6210 N.am      1 69Z        -0.2536
     11 C16         6.8440   11.6770   11.6350 C.2       1 69Z         0.2170
     12 C19         8.1060    9.5620   11.3220 C.2       1 69Z         0.1570
     13 C23         7.4210    9.3780    7.7180 C.3       1 69Z         0.0097
     14 CL1         5.0460   12.4810    4.8160 Cl        1 69Z        -0.0771
     15 C10         2.5560   12.7670   11.0480 C.3       1 69Z        -0.0178
     16 C14         6.1430   12.9100   12.0380 C.2       1 69Z         0.2510
     17 O15         6.7090   13.7140   12.7500 O.2       1 69Z        -0.3736
     18 N17         6.8690   11.2440   10.4260 N.2       1 69Z        -0.1298
     19 N18         7.5430   10.0690   10.1880 N.pl3     1 69Z        -0.1287
     20 C20         8.7330    8.4180   10.9590 C.2       1 69Z        -0.0256
     21 N21         8.5470    8.2240    9.6410 N.2       1 69Z        -0.3520
     22 C22         7.8470    9.2110    9.1580 C.2       1 69Z         0.1322
     23 S24         7.7590   10.6140   12.6970 S.3       1 69Z         0.0265
     24 H1          5.8287   14.2726    6.9187 H         1 69Z         0.0606
     25 H2          5.4073   14.2345    9.3488 H         1 69Z         0.0558
     26 H3          3.2195   10.5813    8.8888 H         1 69Z         0.0558
     27 H4          3.6317   10.6272    6.4606 H         1 69Z         0.0606
     28 H5          4.1197   11.2521   11.0776 H         1 69Z         0.0722
     29 H6          2.8434   14.7884   10.2183 H         1 69Z         0.0287
     30 H7          1.9433   14.7562   11.7725 H         1 69Z         0.0287
     31 H8          3.9107   14.3848   13.0598 H         1 69Z         0.0524
     32 H9          4.6633   15.2650   11.6867 H         1 69Z         0.0524
     33 H10         7.8096    8.5397    7.1211 H         1 69Z         0.0439
     34 H11         7.8207   10.3243    7.3247 H         1 69Z         0.0439
     35 H12         6.3226    9.3914    7.6597 H         1 69Z         0.0439
     36 H13         2.1570   12.3201   11.9705 H         1 69Z         0.0310
     37 H14         1.8876   12.5304   10.2070 H         1 69Z         0.0310
     38 H15         9.2947    7.7635   11.6239 H         1 69Z         0.0260
@<TRIPOS>BOND
     1    2    1 ar 
     2    6    1 ar 
     3    1   14 1  
     4    3    2 ar 
     5    4    3 ar 
     6    4    5 ar 
     7    7    4 1  
     8    5    6 ar 
     9   10    7 1  
    10    7   15 1  
    11    9    8 1  
    12    8   15 1  
    13   10    9 1  
    14   16   10 am 
    15   11   16 1  
    16   18   11 2  
    17   11   23 1  
    18   19   12 1  
    19   12   20 2  
    20   12   23 1  
    21   22   13 1  
    22   16   17 2  
    23   19   18 1  
    24   19   22 1  
    25   20   21 1  
    26   21   22 2  
    27    2   24 1  
    28    3   25 1  
    29    5   26 1  
    30    6   27 1  
    31    7   28 1  
    32    8   29 1  
    33    8   30 1  
    34    9   31 1  
    35    9   32 1  
    36   13   33 1  
    37   13   34 1  
    38   13   35 1  
    39   15   36 1  
    40   15   37 1  
    41   20   38 1  
@<TRIPOS>SUBSTRUCTURE
     1 69Z         1

