### 
### Created by X-TOOL on Mon Sep 10 21:13:29 2018
### 

@<TRIPOS>MOLECULE
5idn_ligand
   41    44     1     0     0
SMALL
GAST_HUCK


@<TRIPOS>ATOM
      1 C2         -5.6730   13.3040   -7.0670 C.ar      1 6A7         0.0330
      2 C3         -6.0900   14.3190   -7.9240 C.ar      1 6A7        -0.0545
      3 C4         -5.8510   14.2290   -9.2910 C.ar      1 6A7        -0.0575
      4 C5         -5.1840   13.1200   -9.8120 C.ar      1 6A7        -0.0175
      5 C6         -4.7810   12.1100   -8.9470 C.ar      1 6A7        -0.0575
      6 C7         -5.0140   12.2010   -7.5860 C.ar      1 6A7        -0.0545
      7 C8         -4.9170   12.9230  -11.2930 C.3       1 6A7         0.0780
      8 C11        -3.7730   14.9050  -11.9450 C.3       1 6A7        -0.0285
      9 C12        -5.1610   14.8730  -12.6340 C.3       1 6A7         0.0360
     10 N13        -5.8590   13.6440  -12.1800 N.am      1 6A7        -0.2586
     11 C16        -7.8450   12.0720  -12.1410 C.ar      1 6A7         0.0677
     12 C17        -7.9690   11.6760  -10.7860 C.ar      1 6A7        -0.0236
     13 C18        -8.6550   10.5080  -10.4650 C.ar      1 6A7         0.0472
     14 C19        -9.2510    9.7170  -11.5520 C.ar      1 6A7         0.1588
     15 C21        -8.4440   11.2920  -13.1310 C.ar      1 6A7         0.0196
     16 N22        -9.8190    8.6870  -10.9640 N.pl3     1 6A7        -0.2068
     17 C24        -8.9760    9.7840   -9.3000 C.2       1 6A7         0.0415
     18 CL1        -5.9680   13.4000   -5.3570 Cl        1 6A7        -0.0771
     19 C10        -3.5070   13.4050  -11.6690 C.3       1 6A7        -0.0179
     20 C14        -7.1300   13.3040  -12.5660 C.2       1 6A7         0.2092
     21 O15        -7.7260   14.0450  -13.3320 O.2       1 6A7        -0.3866
     22 N20        -9.1110   10.1660  -12.8430 N.ar      1 6A7        -0.2730
     23 N23        -9.6540    8.7280   -9.6910 N.2       1 6A7        -0.2112
     24 C25        -8.6010   10.1390   -7.8830 C.3       1 6A7        -0.0208
     25 H1         -6.6043   15.1849   -7.5231 H         1 6A7         0.0606
     26 H2         -6.1832   15.0211   -9.9522 H         1 6A7         0.0558
     27 H3         -4.2761   11.2370   -9.3446 H         1 6A7         0.0558
     28 H4         -4.6808   11.4088   -6.9253 H         1 6A7         0.0606
     29 H5         -4.9963   11.8463  -11.5037 H         1 6A7         0.0722
     30 H6         -3.8059   15.4824  -11.0093 H         1 6A7         0.0287
     31 H7         -3.0073   15.3293  -12.6110 H         1 6A7         0.0287
     32 H8         -5.0370   14.8519  -13.7268 H         1 6A7         0.0524
     33 H9         -5.7424   15.7619  -12.3480 H         1 6A7         0.0524
     34 H10        -7.5305   12.2814  -10.0010 H         1 6A7         0.0793
     35 H11        -8.3673   11.6068  -14.1654 H         1 6A7         0.0847
     36 H12       -10.3303    7.9433  -11.4604 H         1 6A7         0.2444
     37 H13        -3.1292   12.8901  -12.5646 H         1 6A7         0.0310
     38 H14        -2.7978   13.2662  -10.8397 H         1 6A7         0.0310
     39 H15        -8.9982    9.3766   -7.1967 H         1 6A7         0.0390
     40 H16        -9.0259   11.1206   -7.6262 H         1 6A7         0.0390
     41 H17        -7.5055   10.1787   -7.7926 H         1 6A7         0.0390
@<TRIPOS>BOND
     1    2    1 ar 
     2    6    1 ar 
     3    1   18 1  
     4    3    2 ar 
     5    4    3 ar 
     6    4    5 ar 
     7    7    4 1  
     8    5    6 ar 
     9   10    7 1  
    10    7   19 1  
    11    9    8 1  
    12    8   19 1  
    13   10    9 1  
    14   20   10 am 
    15   11   12 ar 
    16   11   15 ar 
    17   11   20 1  
    18   12   13 ar 
    19   13   14 ar 
    20   13   17 1  
    21   14   16 1  
    22   14   22 ar 
    23   15   22 ar 
    24   16   23 1  
    25   17   23 2  
    26   17   24 1  
    27   20   21 2  
    28    2   25 1  
    29    3   26 1  
    30    5   27 1  
    31    6   28 1  
    32    7   29 1  
    33    8   30 1  
    34    8   31 1  
    35    9   32 1  
    36    9   33 1  
    37   12   34 1  
    38   15   35 1  
    39   16   36 1  
    40   19   37 1  
    41   19   38 1  
    42   24   39 1  
    43   24   40 1  
    44   24   41 1  
@<TRIPOS>SUBSTRUCTURE
     1 6A7         1

