### 
### Created by X-TOOL on Mon Sep 10 21:13:30 2018
### 

@<TRIPOS>MOLECULE
5idp_ligand
   44    47     1     0     0
SMALL
GAST_HUCK


@<TRIPOS>ATOM
      1 C2         -3.1210  -12.8530    6.3030 C.ar      1 6A6         0.1248
      2 C3         -4.1110  -13.5980    6.9360 C.ar      1 6A6        -0.0348
      3 C4         -4.2280  -13.5910    8.3230 C.ar      1 6A6        -0.0598
      4 C5         -3.3500  -12.8410    9.1030 C.ar      1 6A6        -0.0217
      5 C6         -2.3670  -12.0860    8.4440 C.ar      1 6A6        -0.0598
      6 C7         -2.2450  -12.0970    7.0640 C.ar      1 6A6        -0.0348
      7 C8         -3.4660  -12.8110   10.6300 C.3       1 6A6         0.0759
      8 C11        -1.9260  -13.6870   12.3960 C.3       1 6A6        -0.0474
      9 C12        -2.0910  -15.1150   11.8780 C.3       1 6A6        -0.0322
     10 C15        -5.4390  -13.9040   11.8540 C.2       1 6A6         0.2014
     11 C17        -6.2390  -12.6540   11.9390 C.ar      1 6A6         0.0393
     12 C18        -6.4150  -11.9010   10.7810 C.ar      1 6A6        -0.0409
     13 C19        -7.1310  -10.7220   10.8030 C.ar      1 6A6         0.0406
     14 C21        -7.5720  -11.0460   13.1660 C.ar      1 6A6        -0.0325
     15 F1         -3.0030  -12.8610    4.9590 F         1 6A6        -0.1893
     16 C10        -2.0620  -12.7110   11.2580 C.3       1 6A6        -0.0202
     17 C13        -3.4590  -15.2630   11.2010 C.3       1 6A6         0.0356
     18 N14        -4.1980  -13.9740   11.2450 N.am      1 6A6        -0.2602
     19 O16        -5.9450  -14.8960   12.3530 O.2       1 6A6        -0.3893
     20 C20        -7.7260  -10.2740   12.0000 C.ar      1 6A6         0.0856
     21 C22        -6.8420  -12.2120   13.1390 C.ar      1 6A6        -0.0519
     22 N23        -8.3530   -9.0980   11.6830 N.pl3     1 6A6        -0.2309
     23 N24        -8.1490   -8.8130   10.3230 N.2       1 6A6        -0.2139
     24 C25        -7.4400   -9.7560    9.7640 C.2       1 6A6         0.1114
     25 N26        -7.0180   -9.8480    8.4370 N.pl3     1 6A6        -0.3310
     26 H1         -4.7984  -14.1901    6.3428 H         1 6A6         0.0587
     27 H2         -5.0080  -14.1734    8.8000 H         1 6A6         0.0548
     28 H3         -1.6861  -11.4790    9.0297 H         1 6A6         0.0548
     29 H4         -1.4670  -11.5162    6.5818 H         1 6A6         0.0587
     30 H5         -4.0259  -11.9011   10.8918 H         1 6A6         0.0713
     31 H6         -0.9318  -13.5775   12.8537 H         1 6A6         0.0268
     32 H7         -2.7010  -13.4801   13.1487 H         1 6A6         0.0268
     33 H8         -2.0211  -15.8199   12.7196 H         1 6A6         0.0285
     34 H9         -1.2966  -15.3340   11.1493 H         1 6A6         0.0285
     35 H10        -5.9831  -12.2463    9.8486 H         1 6A6         0.0667
     36 H11        -8.0316  -10.7200   14.0920 H         1 6A6         0.0561
     37 H12        -1.9056  -11.6898   11.6357 H         1 6A6         0.0309
     38 H13        -1.3054  -12.9388   10.4927 H         1 6A6         0.0309
     39 H14        -4.0423  -16.0338   11.7259 H         1 6A6         0.0523
     40 H15        -3.3146  -15.5629   10.1526 H         1 6A6         0.0523
     41 H16        -6.7283  -12.7963   14.0449 H         1 6A6         0.0623
     42 H17        -8.8902   -8.5139   12.3396 H         1 6A6         0.2349
     43 H18        -7.2820   -9.1173    7.7608 H         1 6A6         0.1705
     44 H19        -6.4426  -10.6466    8.1338 H         1 6A6         0.1705
@<TRIPOS>BOND
     1    2    1 ar 
     2    6    1 ar 
     3    1   15 1  
     4    3    2 ar 
     5    4    3 ar 
     6    4    5 ar 
     7    7    4 1  
     8    5    6 ar 
     9    7   16 1  
    10   18    7 1  
    11    8    9 1  
    12   16    8 1  
    13    9   17 1  
    14   10   11 1  
    15   10   18 am 
    16   10   19 2  
    17   11   12 ar 
    18   11   21 ar 
    19   12   13 ar 
    20   13   20 ar 
    21   13   24 1  
    22   20   14 ar 
    23   14   21 ar 
    24   17   18 1  
    25   20   22 1  
    26   22   23 1  
    27   23   24 2  
    28   24   25 1  
    29    2   26 1  
    30    3   27 1  
    31    5   28 1  
    32    6   29 1  
    33    7   30 1  
    34    8   31 1  
    35    8   32 1  
    36    9   33 1  
    37    9   34 1  
    38   12   35 1  
    39   14   36 1  
    40   16   37 1  
    41   16   38 1  
    42   17   39 1  
    43   17   40 1  
    44   21   41 1  
    45   22   42 1  
    46   25   43 1  
    47   25   44 1  
@<TRIPOS>SUBSTRUCTURE
     1 6A6         1

