### 
### Created by X-TOOL on Mon Sep 10 21:13:29 2018
### 

@<TRIPOS>MOLECULE
5ie1_ligand
   60    62     1     0     0
SMALL
GAST_HUCK


@<TRIPOS>ATOM
      1 C27        65.1100   50.8090   10.3690 C.3       1 6BS        -0.0600
      2 C26        64.3070   50.9420   11.6470 C.3       1 6BS        -0.0359
      3 C28        64.3080   52.4030   12.0900 C.3       1 6BS        -0.0600
      4 C29        64.9350   50.0820   12.7420 C.3       1 6BS        -0.0600
      5 C25        62.8580   50.4750   11.4540 C.3       1 6BS        -0.0278
      6 C23        62.6530   48.9960   11.0490 C.3       1 6BS         0.0314
      7 N21        63.1760   48.5200    9.7450 N.am      1 6BS        -0.2868
      8 C20        63.6110   47.2620    9.6140 C.2       1 6BS         0.1779
      9 O22        63.5850   46.4550   10.5400 O.2       1 6BS        -0.3969
     10 C19        64.1440   46.8310    8.2260 C.3       1 6BS         0.0467
     11 C18        65.6610   46.5560    8.0920 C.3       1 6BS         0.0031
     12 C9         66.4900   47.8020    8.3910 C.ar      1 6BS         0.0124
     13 C8         66.4220   48.9660    7.6300 C.ar      1 6BS         0.1140
     14 N7         67.1650   50.0360    7.9380 N.ar      1 6BS        -0.2949
     15 N24        65.6090   49.0260    6.5780 N.pl3     1 6BS        -0.3200
     16 C10        67.3570   47.7720    9.4750 C.ar      1 6BS        -0.0407
     17 C5         68.1140   48.8980    9.7680 C.ar      1 6BS        -0.0121
     18 C6         69.0180   48.8800   10.8170 C.ar      1 6BS        -0.0499
     19 C4         68.0050   50.0280    8.9770 C.ar      1 6BS         0.0225
     20 C3         68.7610   51.1530    9.2760 C.ar      1 6BS        -0.0502
     21 C2         69.6270   51.1320   10.3640 C.ar      1 6BS        -0.0568
     22 C1         69.7000   50.0260   11.2090 C.ar      1 6BS        -0.0227
     23 C11        70.6750   50.0910   12.2090 C.ar      1 6BS        -0.0170
     24 C12        70.6320   51.2940   12.9060 C.ar      1 6BS        -0.0608
     25 C13        71.4400   51.5340   14.0080 C.ar      1 6BS        -0.0683
     26 C14        72.2610   50.5380   14.4970 C.ar      1 6BS        -0.0686
     27 C15        72.2520   49.3070   13.8710 C.ar      1 6BS        -0.0597
     28 C16        71.3990   49.0480   12.8060 C.ar      1 6BS        -0.0374
     29 C17        71.5610   47.6540   12.1920 C.3       1 6BS        -0.0299
     30 H1         66.1400   51.1522   10.5458 H         1 6BS         0.0235
     31 H2         64.6493   51.4227    9.5809 H         1 6BS         0.0235
     32 H3         65.1238   49.7556   10.0525 H         1 6BS         0.0235
     33 H4         63.7261   52.5052   13.0179 H         1 6BS         0.0235
     34 H5         63.8560   53.0250   11.3034 H         1 6BS         0.0235
     35 H6         65.3426   52.7315   12.2680 H         1 6BS         0.0235
     36 H7         64.9357   49.0285   12.4256 H         1 6BS         0.0235
     37 H8         64.3524   50.1859   13.6693 H         1 6BS         0.0235
     38 H9         65.9691   50.4121   12.9197 H         1 6BS         0.0235
     39 H10        62.4077   51.1009   10.6695 H         1 6BS         0.0290
     40 H11        62.3262   50.6375   12.4031 H         1 6BS         0.0290
     41 H12        61.5686   48.8117   11.0461 H         1 6BS         0.0520
     42 H13        63.1273   48.3814   11.8283 H         1 6BS         0.0520
     43 H14        63.2034   49.1413    8.9619 H         1 6BS         0.1851
     44 H15        63.8909   47.6304    7.5141 H         1 6BS         0.0524
     45 H16        63.6166   45.9079    7.9436 H         1 6BS         0.0524
     46 H17        65.8737   46.2246    7.0649 H         1 6BS         0.0448
     47 H18        65.9431   45.7622    8.7993 H         1 6BS         0.0448
     48 H19        65.5583   49.8868    6.0147 H         1 6BS         0.1787
     49 H20        65.0305   48.2116    6.3271 H         1 6BS         0.1787
     50 H21        67.4417   46.8800   10.0851 H         1 6BS         0.0648
     51 H22        69.1979   47.9504   11.3448 H         1 6BS         0.0612
     52 H23        68.6768   52.0439    8.6643 H         1 6BS         0.0598
     53 H24        70.2572   51.9922   10.5586 H         1 6BS         0.0618
     54 H25        69.9466   52.0672   12.5783 H         1 6BS         0.0602
     55 H26        71.4265   52.5066   14.4864 H         1 6BS         0.0560
     56 H27        72.8994   50.7182   15.3543 H         1 6BS         0.0598
     57 H28        72.9228   48.5289   14.2171 H         1 6BS         0.0556
     58 H29        70.8511   47.5350   11.3602 H         1 6BS         0.0396
     59 H30        71.3599   46.8904   12.9578 H         1 6BS         0.0396
     60 H31        72.5883   47.5356   11.8170 H         1 6BS         0.0396
@<TRIPOS>BOND
     1    1    2 1  
     2    2    3 1  
     3    2    4 1  
     4    2    5 1  
     5    5    6 1  
     6    6    7 1  
     7    7    8 am 
     8    8    9 2  
     9    8   10 1  
    10   10   11 1  
    11   11   12 1  
    12   12   13 ar 
    13   12   16 ar 
    14   13   14 ar 
    15   13   15 1  
    16   14   19 ar 
    17   16   17 ar 
    18   17   18 ar 
    19   17   19 ar 
    20   18   22 ar 
    21   19   20 ar 
    22   20   21 ar 
    23   21   22 ar 
    24   22   23 1  
    25   23   24 ar 
    26   23   28 ar 
    27   24   25 ar 
    28   25   26 ar 
    29   26   27 ar 
    30   27   28 ar 
    31   28   29 1  
    32    1   30 1  
    33    1   31 1  
    34    1   32 1  
    35    3   33 1  
    36    3   34 1  
    37    3   35 1  
    38    4   36 1  
    39    4   37 1  
    40    4   38 1  
    41    5   39 1  
    42    5   40 1  
    43    6   41 1  
    44    6   42 1  
    45    7   43 1  
    46   10   44 1  
    47   10   45 1  
    48   11   46 1  
    49   11   47 1  
    50   15   48 1  
    51   15   49 1  
    52   16   50 1  
    53   18   51 1  
    54   20   52 1  
    55   21   53 1  
    56   24   54 1  
    57   25   55 1  
    58   26   56 1  
    59   27   57 1  
    60   29   58 1  
    61   29   59 1  
    62   29   60 1  
@<TRIPOS>SUBSTRUCTURE
     1 6BS         1

