### 
### Created by X-TOOL on Mon Sep 10 21:13:26 2018
### 

@<TRIPOS>MOLECULE
5iee_ligand
   25    25     1     0     0
SMALL
GAST_HUCK


@<TRIPOS>ATOM
      1 C1          4.1660   15.2720    7.8780 C.3       1 NOJ        -0.0040
      2 C2          5.4530   15.2270    7.0700 C.3       1 NOJ         0.1231
      3 O2          5.7270   16.5210    6.5400 O.3       1 NOJ        -0.3838
      4 C3          5.3660   14.1600    5.9890 C.3       1 NOJ         0.1171
      5 O3          6.5960   14.1610    5.2590 O.3       1 NOJ        -0.3862
      6 C4          5.0620   12.7910    6.5970 C.3       1 NOJ         0.1280
      7 O4          4.9130   11.8000    5.5780 O.3       1 NOJ        -0.3835
      8 C5          3.7810   12.8400    7.4280 C.3       1 NOJ         0.0301
      9 N5          3.8390   13.9430    8.3980 N.4       1 NOJ         0.2346
     10 C6          3.4680   11.5230    8.1360 C.3       1 NOJ         0.0893
     11 O6          4.4790   11.2200    9.0930 O.3       1 NOJ        -0.3894
     12 H1          3.3458   15.6199    7.2329 H         1 NOJ         0.0840
     13 H2          4.2914   15.9690    8.7197 H         1 NOJ         0.0840
     14 H3          6.2776   14.9549    7.7452 H         1 NOJ         0.0674
     15 H4          5.0095   16.7905    5.9787 H         1 NOJ         0.2101
     16 H5          4.5480   14.4175    5.3001 H         1 NOJ         0.0649
     17 H6          6.7284   15.0152    4.8650 H         1 NOJ         0.2100
     18 H7          5.8998   12.5059    7.2503 H         1 NOJ         0.0678
     19 H8          5.7176   11.7395    5.0766 H         1 NOJ         0.2102
     20 H9          2.9507   13.0436    6.7358 H         1 NOJ         0.0900
     21 H10         2.9363   14.0044    8.8422 H         1 NOJ         0.2019
     22 H11         4.5366   13.7060    9.0859 H         1 NOJ         0.2019
     23 H12         3.4195   10.7143    7.3919 H         1 NOJ         0.0614
     24 H13         2.4983   11.6086    8.6483 H         1 NOJ         0.0614
     25 H14         4.5214   11.9159    9.7383 H         1 NOJ         0.2097
@<TRIPOS>BOND
     1    1    2 1  
     2    1    9 1  
     3    2    3 1  
     4    2    4 1  
     5    4    5 1  
     6    4    6 1  
     7    6    7 1  
     8    6    8 1  
     9    8    9 1  
    10    8   10 1  
    11   10   11 1  
    12    1   12 1  
    13    1   13 1  
    14    2   14 1  
    15    3   15 1  
    16    4   16 1  
    17    5   17 1  
    18    6   18 1  
    19    7   19 1  
    20    8   20 1  
    21    9   21 1  
    22    9   22 1  
    23   10   23 1  
    24   10   24 1  
    25   11   25 1  
@<TRIPOS>SUBSTRUCTURE
     1 NOJ         1

