### 
### Created by X-TOOL on Mon Sep 10 21:13:28 2018
### 

@<TRIPOS>MOLECULE
5ief_ligand
   37    37     1     0     0
SMALL
GAST_HUCK


@<TRIPOS>ATOM
      1 O9        108.4040  529.4160   72.0730 O.3       1 NBV        -0.3894
      2 C12       107.6270  529.4880   70.9000 C.3       1 NBV         0.0894
      3 C11       107.7910  530.8200   70.1870 C.3       1 NBV         0.0319
      4 C10       109.1590  530.8740   69.5060 C.3       1 NBV         0.1281
      5 O1        109.1870  529.9340   68.4420 O.3       1 NBV        -0.3835
      6 C9        109.4410  532.2520   68.9350 C.3       1 NBV         0.1171
      7 O8        110.7200  532.2710   68.3120 O.3       1 NBV        -0.3862
      8 C8        109.3730  533.2820   70.0490 C.3       1 NBV         0.1231
      9 O7        109.7220  534.5780   69.5520 O.3       1 NBV        -0.3838
     10 N1        107.4880  531.9560   71.0950 N.4       1 NBV         0.2428
     11 C7        107.9880  533.2810   70.6820 C.3       1 NBV        -0.0023
     12 C13       106.0350  532.0540   71.3340 C.3       1 NBV        -0.0314
     13 C14       105.5650  531.7410   72.7390 C.3       1 NBV        -0.0128
     14 C15       104.0640  531.4650   72.8220 C.3       1 NBV        -0.0511
     15 C16       103.2350  532.5510   72.1410 C.3       1 NBV        -0.0651
     16 H1        108.1394  530.1063   72.6696 H         1 NBV         0.2097
     17 H2        106.5681  529.3567   71.1673 H         1 NBV         0.0614
     18 H3        107.9362  528.6810   70.2195 H         1 NBV         0.0614
     19 H4        107.0396  530.8580   69.3846 H         1 NBV         0.0901
     20 H5        109.9363  530.6221   70.2424 H         1 NBV         0.0678
     21 H6        110.0356  529.9645   68.0162 H         1 NBV         0.2102
     22 H7        108.6765  532.4911   68.1811 H         1 NBV         0.0649
     23 H8        110.8860  533.1370   67.9585 H         1 NBV         0.2100
     24 H9        110.1037  533.0044   70.8230 H         1 NBV         0.0674
     25 H10       109.1161  534.8256   68.8635 H         1 NBV         0.2101
     26 H11       107.9318  531.7412   71.9742 H         1 NBV         0.2039
     27 H12       107.2797  533.6997   69.9520 H         1 NBV         0.0841
     28 H13       108.0203  533.9255   71.5728 H         1 NBV         0.0841
     29 H14       105.5344  531.3538   70.6491 H         1 NBV         0.0814
     30 H15       105.7249  533.0826   71.0980 H         1 NBV         0.0814
     31 H16       105.7993  532.5993   73.3858 H         1 NBV         0.0317
     32 H17       106.1046  530.8526   73.0988 H         1 NBV         0.0317
     33 H18       103.7727  531.4102   73.8813 H         1 NBV         0.0264
     34 H19       103.8542  530.5019   72.3337 H         1 NBV         0.0264
     35 H20       102.1663  532.3056   72.2288 H         1 NBV         0.0230
     36 H21       103.5113  532.6108   71.0780 H         1 NBV         0.0230
     37 H22       103.4299  533.5191   72.6256 H         1 NBV         0.0230
@<TRIPOS>BOND
     1    1    2 1  
     2    2    3 1  
     3    3    4 1  
     4    3   10 1  
     5    4    5 1  
     6    4    6 1  
     7    6    7 1  
     8    6    8 1  
     9    8    9 1  
    10    8   11 1  
    11   10   11 1  
    12   10   12 1  
    13   12   13 1  
    14   13   14 1  
    15   14   15 1  
    16    1   16 1  
    17    2   17 1  
    18    2   18 1  
    19    3   19 1  
    20    4   20 1  
    21    5   21 1  
    22    6   22 1  
    23    7   23 1  
    24    8   24 1  
    25    9   25 1  
    26   10   26 1  
    27   11   27 1  
    28   11   28 1  
    29   12   29 1  
    30   12   30 1  
    31   13   31 1  
    32   13   32 1  
    33   14   33 1  
    34   14   34 1  
    35   15   35 1  
    36   15   36 1  
    37   15   37 1  
@<TRIPOS>SUBSTRUCTURE
     1 NBV         1

