### 
### Created by X-TOOL on Mon Sep 10 21:13:27 2018
### 

@<TRIPOS>MOLECULE
5ieg_ligand
   56    56     1     0     0
SMALL
GAST_HUCK


@<TRIPOS>ATOM
      1 C10        -3.6760   14.0010    9.1230 C.3       1 6A9        -0.0530
      2 C12        -4.9510   15.7000    7.7190 C.3       1 6A9        -0.0295
      3 C14        -6.2850   19.1220    8.1540 C.3       1 6A9         0.0364
      4 C15         4.0740   14.6050    7.9720 C.3       1 6A9        -0.0023
      5 O3          4.6650   10.6360    9.3040 O.3       1 6A9        -0.3894
      6 C4          3.7660   10.7970    8.1970 C.3       1 6A9         0.0894
      7 C3          3.9210   12.1770    7.5620 C.3       1 6A9         0.0319
      8 C2          5.2550   12.2290    6.7670 C.3       1 6A9         0.1281
      9 O2          5.2370   11.2460    5.7340 O.3       1 6A9        -0.3835
     10 C1          5.5040   13.6160    6.1790 C.3       1 6A9         0.1171
     11 O1          6.7600   13.6390    5.4960 O.3       1 6A9        -0.3862
     12 N           3.8660   13.2700    8.5660 N.4       1 6A9         0.2428
     13 C           5.4270   14.6730    7.2740 C.3       1 6A9         0.1231
     14 O           5.6710   16.0010    6.8110 O.3       1 6A9        -0.3838
     15 C5          2.6860   13.2630    9.4640 C.3       1 6A9        -0.0314
     16 C6          1.3050   13.3030    8.8000 C.3       1 6A9        -0.0125
     17 C7          0.1500   13.3240    9.7950 C.3       1 6A9        -0.0483
     18 C8         -1.1460   13.6790    9.0780 C.3       1 6A9        -0.0529
     19 C9         -2.4180   13.6610    9.9190 C.3       1 6A9        -0.0531
     20 C11        -3.8740   15.4730    8.7730 C.3       1 6A9        -0.0510
     21 C13        -5.9460   16.7980    8.0320 C.3       1 6A9         0.0473
     22 O4         -5.3380   18.0670    8.1080 O.3       1 6A9        -0.3830
     23 H1         -4.5452   13.6767    9.7141 H         1 6A9         0.0265
     24 H2         -3.6408   13.4339    8.1811 H         1 6A9         0.0265
     25 H3         -5.5099   14.7604    7.5972 H         1 6A9         0.0287
     26 H4         -4.4513   15.9547    6.7727 H         1 6A9         0.0287
     27 H5         -5.7578   20.0856    8.2125 H         1 6A9         0.0523
     28 H6         -6.9264   19.0007    9.0394 H         1 6A9         0.0523
     29 H7         -6.9052   19.0979    7.2458 H         1 6A9         0.0523
     30 H8          4.0381   15.3646    8.7668 H         1 6A9         0.0841
     31 H9          3.2781   14.8032    7.2390 H         1 6A9         0.0841
     32 H10         4.4785   11.2967    9.9607 H         1 6A9         0.2097
     33 H11         2.7320   10.6792    8.5533 H         1 6A9         0.0614
     34 H12         3.9837   10.0272    7.4420 H         1 6A9         0.0614
     35 H13         3.0895   12.3246    6.8571 H         1 6A9         0.0901
     36 H14         6.0788   11.9960    7.4577 H         1 6A9         0.0678
     37 H15         6.0540   11.2812    5.2506 H         1 6A9         0.2102
     38 H16         4.7132   13.8293    5.4448 H         1 6A9         0.0649
     39 H17         6.9064   14.5050    5.1338 H         1 6A9         0.2100
     40 H18         4.6585   13.1099    9.1679 H         1 6A9         0.2039
     41 H19         6.2055   14.4355    8.0140 H         1 6A9         0.0674
     42 H20         5.0256   16.2291    6.1522 H         1 6A9         0.2101
     43 H21         2.7638   14.1420   10.1208 H         1 6A9         0.0814
     44 H22         2.7360   12.3466   10.0703 H         1 6A9         0.0814
     45 H23         1.1993   12.4123    8.1632 H         1 6A9         0.0317
     46 H24         1.2444   14.2080    8.1777 H         1 6A9         0.0317
     47 H25         0.3531   14.0739   10.5737 H         1 6A9         0.0267
     48 H26         0.0501   12.3316   10.2588 H         1 6A9         0.0267
     49 H27        -1.2797   12.9613    8.2552 H         1 6A9         0.0265
     50 H28        -1.0327   14.6925    8.6658 H         1 6A9         0.0265
     51 H29        -2.5380   12.6553   10.3481 H         1 6A9         0.0265
     52 H30        -2.3098   14.3955   10.7306 H         1 6A9         0.0265
     53 H31        -2.9226   15.8729    8.3923 H         1 6A9         0.0266
     54 H32        -4.1598   16.0143    9.6870 H         1 6A9         0.0266
     55 H33        -6.4243   16.5769    8.9976 H         1 6A9         0.0560
     56 H34        -6.7098   16.8189    7.2407 H         1 6A9         0.0560
@<TRIPOS>BOND
     1    1   19 1  
     2   20    1 1  
     3    2   20 1  
     4   21    2 1  
     5   22    3 1  
     6   12    4 1  
     7    4   13 1  
     8    6    5 1  
     9    7    6 1  
    10    7    8 1  
    11   12    7 1  
    12    8    9 1  
    13    8   10 1  
    14   10   11 1  
    15   13   10 1  
    16   15   12 1  
    17   13   14 1  
    18   16   15 1  
    19   17   16 1  
    20   18   17 1  
    21   19   18 1  
    22   21   22 1  
    23    1   23 1  
    24    1   24 1  
    25    2   25 1  
    26    2   26 1  
    27    3   27 1  
    28    3   28 1  
    29    3   29 1  
    30    4   30 1  
    31    4   31 1  
    32    5   32 1  
    33    6   33 1  
    34    6   34 1  
    35    7   35 1  
    36    8   36 1  
    37    9   37 1  
    38   10   38 1  
    39   11   39 1  
    40   12   40 1  
    41   13   41 1  
    42   14   42 1  
    43   15   43 1  
    44   15   44 1  
    45   16   45 1  
    46   16   46 1  
    47   17   47 1  
    48   17   48 1  
    49   18   49 1  
    50   18   50 1  
    51   19   51 1  
    52   19   52 1  
    53   20   53 1  
    54   20   54 1  
    55   21   55 1  
    56   21   56 1  
@<TRIPOS>SUBSTRUCTURE
     1 6A9         1

