### 
### Created by X-TOOL on Fri Nov  2 10:53:51 2018
### 

@<TRIPOS>MOLECULE
5ien_ligand
   73    75     1     0     0
SMALL
GAST_HUCK


@<TRIPOS>ATOM
      1 O1          5.7190    0.0720   -1.4640 O.3       1 VDY        -0.3899
      2 O2          0.4390    2.5530  -15.7380 O.3       1 VDY        -0.3891
      3 C1          3.2620    1.2350   -1.8410 C.3       1 VDY        -0.0220
      4 C2          3.5130    0.1510   -0.8130 C.3       1 VDY        -0.0161
      5 C3          4.6320   -0.7390   -1.2590 C.3       1 VDY         0.0636
      6 C4          4.2840   -1.3800   -2.5730 C.3       1 VDY        -0.0026
      7 C5          4.0790   -0.3210   -3.5850 C.2       1 VDY        -0.0560
      8 C6          4.4950   -0.5150   -4.8330 C.2       1 VDY        -0.0887
      9 C7          4.3980    0.5180   -5.8450 C.2       1 VDY        -0.0795
     10 C8          4.7430    0.2880   -7.0950 C.2       1 VDY        -0.0477
     11 C9          5.7130   -0.7950   -7.4500 C.3       1 VDY        -0.0111
     12 C10         3.0610    0.6400   -3.1920 C.2       1 VDY        -0.0683
     13 C11         5.3070   -1.4030   -8.7550 C.3       1 VDY        -0.0386
     14 C12         5.1000   -0.3650   -9.8520 C.3       1 VDY        -0.0421
     15 C13         4.1040    0.6620   -9.4400 C.3       1 VDY        -0.0125
     16 C14         4.6470    1.3230   -8.1580 C.3       1 VDY         0.0059
     17 C15         3.6310    2.4150   -7.9160 C.3       1 VDY        -0.0357
     18 C16         3.3420    2.9080   -9.3300 C.3       1 VDY        -0.0465
     19 C17         3.9070    1.8750  -10.3120 C.3       1 VDY        -0.0301
     20 C18         2.7930   -0.0110   -9.1540 C.3       1 VDY        -0.0565
     21 C19         2.1070    1.0640   -3.9690 C.2       1 VDY        -0.1245
     22 C20         2.9130    1.7380  -11.4670 C.3       1 VDY        -0.0403
     23 C21         3.3580    0.6550  -12.4130 C.3       1 VDY        -0.0621
     24 C22         2.8290    3.0630  -12.2060 C.3       1 VDY        -0.0501
     25 C23         2.0990    3.0410  -13.5350 C.3       1 VDY        -0.0502
     26 C24         0.6100    3.1020  -13.3610 C.3       1 VDY        -0.0245
     27 C25        -0.1640    3.2080  -14.6650 C.3       1 VDY         0.0605
     28 C26        -1.4860    2.5170  -14.4720 C.3       1 VDY        -0.0363
     29 C27        -0.4010    4.6700  -15.0170 C.3       1 VDY        -0.0363
     30 H1          6.4562   -0.4547   -1.7497 H         1 VDY         0.2100
     31 H2          0.5236    1.6286  -15.5362 H         1 VDY         0.2101
     32 H3          4.1275    1.9133   -1.8699 H         1 VDY         0.0420
     33 H4          2.3621    1.8006   -1.5576 H         1 VDY         0.0420
     34 H5          2.5997   -0.4492   -0.6881 H         1 VDY         0.0313
     35 H6          3.7802    0.6163    0.1473 H         1 VDY         0.0313
     36 H7          4.8457   -1.5064   -0.5004 H         1 VDY         0.0614
     37 H8          3.3615   -1.9691   -2.4634 H         1 VDY         0.0412
     38 H9          5.1048   -2.0398   -2.8905 H         1 VDY         0.0412
     39 H10         4.9217   -1.4798   -5.1030 H         1 VDY         0.0472
     40 H11         4.0322    1.5050   -5.5659 H         1 VDY         0.0303
     41 H12         5.7076   -1.5666   -6.6660 H         1 VDY         0.0491
     42 H13         6.7237   -0.3702   -7.5395 H         1 VDY         0.0491
     43 H14         4.3652   -1.9522   -8.6089 H         1 VDY         0.0296
     44 H15         6.0931   -2.1020   -9.0766 H         1 VDY         0.0296
     45 H16         4.7399   -0.8699  -10.7605 H         1 VDY         0.0275
     46 H17         6.0593    0.1300  -10.0633 H         1 VDY         0.0275
     47 H18         5.6430    1.7613   -8.3186 H         1 VDY         0.0531
     48 H19         4.0501    3.2180   -7.2919 H         1 VDY         0.0299
     49 H20         2.7232    2.0163   -7.4397 H         1 VDY         0.0299
     50 H21         3.8259    3.8824   -9.4926 H         1 VDY         0.0270
     51 H22         2.2565    3.0086   -9.4765 H         1 VDY         0.0270
     52 H23         4.8766    2.1964  -10.7200 H         1 VDY         0.0311
     53 H24         2.9641   -0.8914   -8.5172 H         1 VDY         0.0237
     54 H25         2.3291   -0.3273  -10.0999 H         1 VDY         0.0237
     55 H26         2.1251    0.6925   -8.6353 H         1 VDY         0.0237
     56 H27         1.9700    0.6212   -4.9544 H         1 VDY         0.0190
     57 H28         1.4457    1.8616   -3.6338 H         1 VDY         0.0190
     58 H29         1.9220    1.4806  -11.0649 H         1 VDY         0.0301
     59 H30         2.6347    0.5681  -13.2372 H         1 VDY         0.0233
     60 H31         3.4160   -0.3019  -11.8737 H         1 VDY         0.0233
     61 H32         4.3484    0.9074  -12.8196 H         1 VDY         0.0233
     62 H33         3.8562    3.4094  -12.3926 H         1 VDY         0.0268
     63 H34         2.3132    3.7808  -11.5513 H         1 VDY         0.0268
     64 H35         2.3565    2.1127  -14.0660 H         1 VDY         0.0266
     65 H36         2.4223    3.9066  -14.1318 H         1 VDY         0.0266
     66 H37         0.3700    3.9809  -12.7446 H         1 VDY         0.0293
     67 H38         0.2855    2.1891  -12.8401 H         1 VDY         0.0293
     68 H39        -2.0246    2.9835  -13.6340 H         1 VDY         0.0257
     69 H40        -1.3149    1.4531  -14.2511 H         1 VDY         0.0257
     70 H41        -2.0854    2.6091  -15.3897 H         1 VDY         0.0257
     71 H42        -0.8766    5.1795  -14.1660 H         1 VDY         0.0257
     72 H43        -1.0586    4.7335  -15.8965 H         1 VDY         0.0257
     73 H44         0.5609    5.1534  -15.2427 H         1 VDY         0.0257
@<TRIPOS>BOND
     1    5    1 1  
     2   27    2 1  
     3    3    4 1  
     4   12    3 1  
     5    5    4 1  
     6    6    5 1  
     7    7    6 1  
     8    8    7 2  
     9    7   12 1  
    10    9    8 1  
    11   10    9 2  
    12   10   11 1  
    13   16   10 1  
    14   13   11 1  
    15   12   21 2  
    16   14   13 1  
    17   15   14 1  
    18   15   16 1  
    19   19   15 1  
    20   15   20 1  
    21   17   16 1  
    22   18   17 1  
    23   19   18 1  
    24   22   19 1  
    25   22   23 1  
    26   24   22 1  
    27   25   24 1  
    28   26   25 1  
    29   26   27 1  
    30   27   28 1  
    31   27   29 1  
    32    1   30 1  
    33    2   31 1  
    34    3   32 1  
    35    3   33 1  
    36    4   34 1  
    37    4   35 1  
    38    5   36 1  
    39    6   37 1  
    40    6   38 1  
    41    8   39 1  
    42    9   40 1  
    43   11   41 1  
    44   11   42 1  
    45   13   43 1  
    46   13   44 1  
    47   14   45 1  
    48   14   46 1  
    49   16   47 1  
    50   17   48 1  
    51   17   49 1  
    52   18   50 1  
    53   18   51 1  
    54   19   52 1  
    55   20   53 1  
    56   20   54 1  
    57   20   55 1  
    58   21   56 1  
    59   21   57 1  
    60   22   58 1  
    61   23   59 1  
    62   23   60 1  
    63   23   61 1  
    64   24   62 1  
    65   24   63 1  
    66   25   64 1  
    67   25   65 1  
    68   26   66 1  
    69   26   67 1  
    70   28   68 1  
    71   28   69 1  
    72   28   70 1  
    73   29   71 1  
    74   29   72 1  
    75   29   73 1  
@<TRIPOS>SUBSTRUCTURE
     1 VDY         1

