### 
### Created by X-TOOL on Fri Nov  2 10:53:51 2018
### 

@<TRIPOS>MOLECULE
5ieo_ligand
   75    77     1     0     0
SMALL
GAST_HUCK


@<TRIPOS>ATOM
      1 O1         17.3670   59.6940   -6.5420 O.3       1 VDY        -0.3895
      2 O2         15.7000   72.8230    3.3680 O.3       1 VDY        -0.3891
      3 C1         19.7750   62.3340   -5.6080 C.3       1 VDY        -0.0379
      4 C2         19.1730   61.2450   -6.4690 C.3       1 VDY        -0.0225
      5 C3         17.8020   60.9010   -5.9320 C.3       1 VDY         0.0652
      6 C4         16.9000   62.0930   -6.2360 C.3       1 VDY         0.0027
      7 C5         17.4300   63.2570   -5.4510 C.2       1 VDY        -0.0702
      8 C6         16.7160   63.8720   -4.5110 C.2       1 VDY        -0.1088
      9 C7         17.1880   65.1060   -3.8920 C.2       1 VDY        -0.1089
     10 C8         16.3560   65.9320   -3.2870 C.2       1 VDY        -0.0718
     11 C9         14.8930   65.7900   -3.4560 C.3       1 VDY        -0.0234
     12 C10        18.8560   63.5270   -5.6230 C.3       1 VDY        -0.0146
     13 C11        14.1630   66.3570   -2.2760 C.3       1 VDY        -0.0423
     14 C12        14.6130   67.7700   -1.9470 C.3       1 VDY        -0.0431
     15 C13        16.0610   67.7860   -1.6560 C.3       1 VDY        -0.0161
     16 C14        16.7670   67.3200   -2.9560 C.3       1 VDY        -0.0062
     17 C15        18.2340   67.5080   -2.6050 C.3       1 VDY        -0.0393
     18 C16        18.2410   68.7270   -1.6590 C.3       1 VDY        -0.0470
     19 C17        16.7700   69.0940   -1.4290 C.3       1 VDY        -0.0306
     20 C18        16.3810   66.8310   -0.5400 C.3       1 VDY        -0.0570
     21 C19        19.2730   64.6280   -6.1950 C.3       1 VDY        -0.0522
     22 C20        16.5880   69.7300   -0.0690 C.3       1 VDY        -0.0404
     23 C21        15.1370   69.9560    0.1300 C.3       1 VDY        -0.0621
     24 C22        17.3050   71.0600   -0.0550 C.3       1 VDY        -0.0501
     25 C23        16.8990   72.0320    1.0330 C.3       1 VDY        -0.0502
     26 C24        17.5340   71.6780    2.3510 C.3       1 VDY        -0.0245
     27 C25        17.0550   72.5870    3.4700 C.3       1 VDY         0.0605
     28 C26        17.3720   71.8880    4.7630 C.3       1 VDY        -0.0363
     29 C27        17.7590   73.9150    3.4230 C.3       1 VDY        -0.0363
     30 H1         16.5055   59.4666   -6.2125 H         1 VDY         0.2100
     31 H2         15.2311   71.9986    3.4222 H         1 VDY         0.2101
     32 H3         20.7590   62.6201   -6.0078 H         1 VDY         0.0293
     33 H4         19.8903   61.9689   -4.5768 H         1 VDY         0.0293
     34 H5         19.8159   60.3529   -6.4399 H         1 VDY         0.0294
     35 H6         19.0852   61.6000   -7.5064 H         1 VDY         0.0294
     36 H7         17.8480   60.7515   -4.8432 H         1 VDY         0.0619
     37 H8         15.8664   61.8717   -5.9317 H         1 VDY         0.0463
     38 H9         16.9248   62.3206   -7.3119 H         1 VDY         0.0463
     39 H10        15.7633   63.4469   -4.1986 H         1 VDY         0.0219
     40 H11        18.2486   65.3502   -3.9301 H         1 VDY         0.0219
     41 H12        14.6434   64.7234   -3.5558 H         1 VDY         0.0437
     42 H13        14.5812   66.3262   -4.3645 H         1 VDY         0.0437
     43 H14        19.0449   63.8539   -4.5898 H         1 VDY         0.0470
     44 H15        14.3480   65.7141   -1.4028 H         1 VDY         0.0290
     45 H16        13.0860   66.3713   -2.4993 H         1 VDY         0.0290
     46 H17        14.0610   68.1322   -1.0672 H         1 VDY         0.0274
     47 H18        14.4070   68.4267   -2.8051 H         1 VDY         0.0274
     48 H19        16.5011   67.9694   -3.8031 H         1 VDY         0.0478
     49 H20        18.8287   67.7109   -3.5078 H         1 VDY         0.0293
     50 H21        18.6313   66.6170   -2.0968 H         1 VDY         0.0293
     51 H22        18.7763   69.5681   -2.1238 H         1 VDY         0.0270
     52 H23        18.7235   68.4675   -0.7051 H         1 VDY         0.0270
     53 H24        16.4351   69.8206   -2.1838 H         1 VDY         0.0311
     54 H25        15.8598   65.8778   -0.7124 H         1 VDY         0.0237
     55 H26        16.0510   67.2615    0.4170 H         1 VDY         0.0237
     56 H27        17.4663   66.6548   -0.5080 H         1 VDY         0.0237
     57 H28        18.4911   65.3982   -6.1215 H         1 VDY         0.0257
     58 H29        19.4941   64.4299   -7.2542 H         1 VDY         0.0257
     59 H30        20.1842   64.9812   -5.6900 H         1 VDY         0.0257
     60 H31        16.9866   69.0750    0.7198 H         1 VDY         0.0301
     61 H32        14.9696   70.4193    1.1135 H         1 VDY         0.0233
     62 H33        14.6062   68.9937    0.0829 H         1 VDY         0.0233
     63 H34        14.7582   70.6228   -0.6586 H         1 VDY         0.0233
     64 H35        17.1243   71.5479   -1.0242 H         1 VDY         0.0268
     65 H36        18.3804   70.8594    0.0597 H         1 VDY         0.0268
     66 H37        15.8050   72.0074    1.1449 H         1 VDY         0.0266
     67 H38        17.2154   73.0451    0.7441 H         1 VDY         0.0266
     68 H39        18.6258   71.7736    2.2573 H         1 VDY         0.0293
     69 H40        17.2771   70.6383    2.6022 H         1 VDY         0.0293
     70 H41        18.4554   71.7084    4.8267 H         1 VDY         0.0257
     71 H42        16.8382   70.9270    4.8008 H         1 VDY         0.0257
     72 H43        17.0545   72.5173    5.6075 H         1 VDY         0.0257
     73 H44        18.8447   73.7574    3.5026 H         1 VDY         0.0257
     74 H45        17.4171   74.5411    4.2603 H         1 VDY         0.0257
     75 H46        17.5302   74.4178    2.4718 H         1 VDY         0.0257
@<TRIPOS>BOND
     1    5    1 1  
     2   27    2 1  
     3    3    4 1  
     4   12    3 1  
     5    5    4 1  
     6    6    5 1  
     7    7    6 1  
     8    8    7 2  
     9    7   12 1  
    10    9    8 1  
    11   10    9 2  
    12   10   11 1  
    13   16   10 1  
    14   13   11 1  
    15   12   21 1  
    16   14   13 1  
    17   15   14 1  
    18   15   16 1  
    19   19   15 1  
    20   15   20 1  
    21   17   16 1  
    22   18   17 1  
    23   19   18 1  
    24   22   19 1  
    25   22   23 1  
    26   24   22 1  
    27   25   24 1  
    28   26   25 1  
    29   26   27 1  
    30   27   28 1  
    31   27   29 1  
    32    1   30 1  
    33    2   31 1  
    34    3   32 1  
    35    3   33 1  
    36    4   34 1  
    37    4   35 1  
    38    5   36 1  
    39    6   37 1  
    40    6   38 1  
    41    8   39 1  
    42    9   40 1  
    43   11   41 1  
    44   11   42 1  
    45   12   43 1  
    46   13   44 1  
    47   13   45 1  
    48   14   46 1  
    49   14   47 1  
    50   16   48 1  
    51   17   49 1  
    52   17   50 1  
    53   18   51 1  
    54   18   52 1  
    55   19   53 1  
    56   20   54 1  
    57   20   55 1  
    58   20   56 1  
    59   21   57 1  
    60   21   58 1  
    61   21   59 1  
    62   22   60 1  
    63   23   61 1  
    64   23   62 1  
    65   23   63 1  
    66   24   64 1  
    67   24   65 1  
    68   25   66 1  
    69   25   67 1  
    70   26   68 1  
    71   26   69 1  
    72   28   70 1  
    73   28   71 1  
    74   28   72 1  
    75   29   73 1  
    76   29   74 1  
    77   29   75 1  
@<TRIPOS>SUBSTRUCTURE
     1 VDY         1

