### 
### Created by X-TOOL on Fri Nov  2 10:53:51 2018
### 

@<TRIPOS>MOLECULE
5iep_ligand
   77    79     1     0     0
SMALL
GAST_HUCK


@<TRIPOS>ATOM
      1 O1         17.5020  -10.7380   -6.8270 O.3       1 VDY        -0.3918
      2 O2         16.1770    2.0560    3.7060 O.3       1 VDY        -0.3891
      3 C1         20.0730   -8.4300   -5.2600 C.3       1 VDY        -0.0478
      4 C2         19.4880   -9.5490   -6.1240 C.3       1 VDY        -0.0266
      5 C3         17.9840   -9.7660   -5.9050 C.3       1 VDY         0.0556
      6 C4         17.1820   -8.4960   -6.1310 C.3       1 VDY        -0.0227
      7 C5         17.8260   -7.3480   -5.3960 C.3       1 VDY        -0.0329
      8 C6         17.1950   -6.7060   -4.4160 C.3       1 VDY        -0.0440
      9 C7         17.7080   -5.4370   -3.9120 C.2       1 VDY        -0.1082
     10 C8         16.8890   -4.5940   -3.3120 C.2       1 VDY        -0.0774
     11 C9         15.4300   -4.6090   -3.6340 C.3       1 VDY        -0.0280
     12 C10        19.2660   -7.2020   -5.5270 C.3       1 VDY        -0.0398
     13 C11        14.6770   -4.1630   -2.4320 C.3       1 VDY        -0.0440
     14 C12        15.1060   -2.7780   -2.0170 C.3       1 VDY        -0.0437
     15 C13        16.5420   -2.7830   -1.6390 C.3       1 VDY        -0.0178
     16 C14        17.3360   -3.2330   -2.8860 C.3       1 VDY        -0.0108
     17 C15        18.7590   -3.1190   -2.4040 C.3       1 VDY        -0.0410
     18 C16        18.7110   -1.9020   -1.4560 C.3       1 VDY        -0.0473
     19 C17        17.2460   -1.4840   -1.3620 C.3       1 VDY        -0.0309
     20 C18        16.7250   -3.7250   -0.4920 C.3       1 VDY        -0.0573
     21 C19        19.7520   -6.2390   -6.2590 C.3       1 VDY        -0.0620
     22 C20        16.9860   -0.8550   -0.0200 C.3       1 VDY        -0.0404
     23 C21        15.5000   -0.6780    0.1300 C.3       1 VDY        -0.0621
     24 C22        17.7040    0.4880    0.0240 C.3       1 VDY        -0.0501
     25 C23        17.2850    1.3900    1.1760 C.3       1 VDY        -0.0502
     26 C24        17.9600    0.9920    2.4670 C.3       1 VDY        -0.0245
     27 C25        17.5460    1.8320    3.6590 C.3       1 VDY         0.0605
     28 C26        17.9000    1.0990    4.9140 C.3       1 VDY        -0.0363
     29 C27        18.2690    3.1580    3.6780 C.3       1 VDY        -0.0363
     30 H1         16.5714  -10.8698   -6.6888 H         1 VDY         0.2098
     31 H2         15.7229    1.2236    3.7638 H         1 VDY         0.2101
     32 H3         21.1252   -8.2560   -5.5294 H         1 VDY         0.0269
     33 H4         20.0069   -8.7010   -4.1960 H         1 VDY         0.0269
     34 H5         20.0137  -10.4852   -5.8848 H         1 VDY         0.0290
     35 H6         19.6532   -9.2955   -7.1816 H         1 VDY         0.0290
     36 H7         17.8233  -10.1179   -4.8753 H         1 VDY         0.0593
     37 H8         16.1574   -8.6398   -5.7576 H         1 VDY         0.0294
     38 H9         17.1518   -8.2697   -7.2070 H         1 VDY         0.0294
     39 H10        17.5783   -6.5979   -6.1615 H         1 VDY         0.0318
     40 H11        17.1606   -7.3947   -3.5590 H         1 VDY         0.0342
     41 H12        16.1725   -6.5132   -4.7727 H         1 VDY         0.0342
     42 H13        18.7612   -5.1866   -4.0302 H         1 VDY         0.0242
     43 H14        15.1210   -5.6284   -3.9082 H         1 VDY         0.0411
     44 H15        15.2281   -3.9265   -4.4727 H         1 VDY         0.0411
     45 H16        19.4417   -6.7142   -4.5568 H         1 VDY         0.0302
     46 H17        14.8688   -4.8631   -1.6055 H         1 VDY         0.0287
     47 H18        13.6015   -4.1538   -2.6626 H         1 VDY         0.0287
     48 H19        14.5038   -2.4528   -1.1558 H         1 VDY         0.0274
     49 H20        14.9525   -2.0826   -2.8553 H         1 VDY         0.0274
     50 H21        17.1740   -2.5418   -3.7262 H         1 VDY         0.0451
     51 H22        19.4470   -2.9389   -3.2432 H         1 VDY         0.0289
     52 H23        19.0674   -4.0271   -1.8654 H         1 VDY         0.0289
     53 H24        19.3158   -1.0785   -1.8636 H         1 VDY         0.0270
     54 H25        19.0916   -2.1793   -0.4619 H         1 VDY         0.0270
     55 H26        16.9914   -0.7502   -2.1409 H         1 VDY         0.0310
     56 H27        16.2055   -4.6704   -0.7075 H         1 VDY         0.0237
     57 H28        16.3065   -3.2766    0.4211 H         1 VDY         0.0237
     58 H29        17.7975   -3.9210   -0.3460 H         1 VDY         0.0237
     59 H30        20.8509   -6.2839   -6.2413 H         1 VDY         0.0233
     60 H31        19.4181   -5.2702   -5.8591 H         1 VDY         0.0233
     61 H32        19.3971   -6.3504   -7.2942 H         1 VDY         0.0233
     62 H33        17.3649   -1.5031    0.7840 H         1 VDY         0.0301
     63 H34        15.2821   -0.2187    1.1055 H         1 VDY         0.0233
     64 H35        15.0058   -1.6588    0.0680 H         1 VDY         0.0233
     65 H36        15.1253   -0.0271   -0.6736 H         1 VDY         0.0233
     66 H37        17.5005    1.0175   -0.9185 H         1 VDY         0.0268
     67 H38        18.7838    0.2976    0.1119 H         1 VDY         0.0268
     68 H39        16.1951    1.3195    1.3065 H         1 VDY         0.0266
     69 H40        17.5591    2.4277    0.9350 H         1 VDY         0.0266
     70 H41        19.0475    1.0907    2.3344 H         1 VDY         0.0293
     71 H42        17.7103   -0.0580    2.6794 H         1 VDY         0.0293
     72 H43        18.9809    0.8954    4.9272 H         1 VDY         0.0257
     73 H44        17.3474    0.1487    4.9519 H         1 VDY         0.0257
     74 H45        17.6321    1.7140    5.7858 H         1 VDY         0.0257
     75 H46        19.3546    2.9843    3.6408 H         1 VDY         0.0257
     76 H47        18.0159    3.7005    4.6008 H         1 VDY         0.0257
     77 H48        17.9632    3.7549    2.8061 H         1 VDY         0.0257
@<TRIPOS>BOND
     1    5    1 1  
     2   27    2 1  
     3    3    4 1  
     4   12    3 1  
     5    5    4 1  
     6    6    5 1  
     7    7    6 1  
     8    8    7 1  
     9    7   12 1  
    10    9    8 1  
    11   10    9 2  
    12   10   11 1  
    13   16   10 1  
    14   13   11 1  
    15   12   21 1  
    16   14   13 1  
    17   15   14 1  
    18   15   16 1  
    19   19   15 1  
    20   15   20 1  
    21   17   16 1  
    22   18   17 1  
    23   19   18 1  
    24   22   19 1  
    25   22   23 1  
    26   24   22 1  
    27   25   24 1  
    28   26   25 1  
    29   26   27 1  
    30   27   28 1  
    31   27   29 1  
    32    1   30 1  
    33    2   31 1  
    34    3   32 1  
    35    3   33 1  
    36    4   34 1  
    37    4   35 1  
    38    5   36 1  
    39    6   37 1  
    40    6   38 1  
    41    7   39 1  
    42    8   40 1  
    43    8   41 1  
    44    9   42 1  
    45   11   43 1  
    46   11   44 1  
    47   12   45 1  
    48   13   46 1  
    49   13   47 1  
    50   14   48 1  
    51   14   49 1  
    52   16   50 1  
    53   17   51 1  
    54   17   52 1  
    55   18   53 1  
    56   18   54 1  
    57   19   55 1  
    58   20   56 1  
    59   20   57 1  
    60   20   58 1  
    61   21   59 1  
    62   21   60 1  
    63   21   61 1  
    64   22   62 1  
    65   23   63 1  
    66   23   64 1  
    67   23   65 1  
    68   24   66 1  
    69   24   67 1  
    70   25   68 1  
    71   25   69 1  
    72   26   70 1  
    73   26   71 1  
    74   28   72 1  
    75   28   73 1  
    76   28   74 1  
    77   29   75 1  
    78   29   76 1  
    79   29   77 1  
@<TRIPOS>SUBSTRUCTURE
     1 VDY         1

