### 
### Created by X-TOOL on Wed Jan  1 15:39:34 2020
### 

@<TRIPOS>MOLECULE
5ier_ligand
   54    57     1     0     0
SMALL
GAST_HUCK


@<TRIPOS>ATOM
      1 CAA       -31.9090    7.8830   41.8770 C.3       1 3QZ         0.0135
      2 CAB       -38.9500   11.7490   41.7690 C.3       1 3QZ        -0.0890
      3 CAC       -35.9040    8.1210   40.9710 C.3       1 3QZ        -0.0577
      4 OAD       -33.2690    6.3670   40.6280 O.2       1 3QZ        -0.3300
      5 OAE       -39.5250   16.4560   41.4160 O.2       1 3QZ        -0.3440
      6 OAF       -32.5500    9.6630   40.0150 O.3       1 3QZ        -0.3853
      7 CAG       -38.6290   14.6940   40.1620 C.2       1 3QZ         0.0476
      8 CAH       -38.1420   12.6750   38.8470 C.3       1 3QZ        -0.0169
      9 CAI       -38.6730   14.6370   42.7290 C.3       1 3QZ         0.0243
     10 CAJ       -36.8230   11.9510   38.6180 C.3       1 3QZ        -0.0393
     11 CAK       -35.9850   10.9160   42.3030 C.3       1 3QZ        -0.0585
     12 CAL       -35.1320    9.3330   38.3180 C.3       1 3QZ        -0.0480
     13 CAM       -37.5170   13.6620   42.5550 C.3       1 3QZ        -0.0611
     14 CAN       -34.7140   10.1030   41.9930 C.3       1 3QZ        -0.0464
     15 CAO       -34.0170    8.3210   38.6540 C.3       1 3QZ        -0.0180
     16 CAP       -32.9490    7.5340   40.8460 C.2       1 3QZ         0.1556
     17 CAQ       -38.9830   15.3520   41.4380 C.2       1 3QZ         0.1764
     18 CAR       -38.1210   13.4510   40.1380 C.2       1 3QZ        -0.0413
     19 CAS       -36.5430   10.9970   39.7850 C.3       1 3QZ        -0.0418
     20 CAT       -36.4490   11.8080   41.1170 C.3       1 3QZ        -0.0619
     21 CAU       -35.2420   10.2150   39.5610 C.3       1 3QZ        -0.0318
     22 CAV       -37.7550   12.6540   41.3950 C.3       1 3QZ        -0.0378
     23 CAW       -34.8680    9.2560   40.7180 C.3       1 3QZ         0.0050
     24 CAX       -33.5710    8.6750   40.0920 C.3       1 3QZ         0.1335
     25 H1        -31.7770    8.9746   41.9097 H         1 3QZ         0.0452
     26 H2        -30.9542    7.4061   41.6107 H         1 3QZ         0.0452
     27 H3        -32.2358    7.5235   42.8639 H         1 3QZ         0.0452
     28 H4        -39.8376   12.3717   41.9545 H         1 3QZ         0.0112
     29 H5        -38.7070   11.1773   42.6768 H         1 3QZ         0.0112
     30 H6        -39.1563   11.0537   40.9420 H         1 3QZ         0.0112
     31 H7        -36.8155    8.5487   41.4139 H         1 3QZ         0.0234
     32 H8        -35.4744    7.3794   41.6606 H         1 3QZ         0.0234
     33 H9        -36.1539    7.6333   40.0172 H         1 3QZ         0.0234
     34 H10       -31.8147    9.3191   39.5214 H         1 3QZ         0.2077
     35 H11       -38.7830   15.2269   39.2249 H         1 3QZ         0.1318
     36 H12       -38.9552   11.9353   38.8864 H         1 3QZ         0.0450
     37 H13       -38.3189   13.3705   38.0133 H         1 3QZ         0.0450
     38 H14       -38.4038   15.3796   43.4946 H         1 3QZ         0.0483
     39 H15       -39.5649   14.0815   43.0545 H         1 3QZ         0.0483
     40 H16       -36.0098   12.6882   38.5462 H         1 3QZ         0.0293
     41 H17       -36.8802   11.3758   37.6822 H         1 3QZ         0.0293
     42 H18       -35.7827   11.5638   43.1687 H         1 3QZ         0.0259
     43 H19       -36.7959   10.2153   42.5509 H         1 3QZ         0.0259
     44 H20       -36.0823    8.8136   38.1255 H         1 3QZ         0.0267
     45 H21       -34.8581    9.9343   37.4386 H         1 3QZ         0.0267
     46 H22       -37.3875   13.0983   43.4906 H         1 3QZ         0.0172
     47 H23       -36.6021   14.2345   42.3422 H         1 3QZ         0.0172
     48 H24       -34.5049    9.4339   42.8407 H         1 3QZ         0.0270
     49 H25       -33.8721   10.7979   41.8580 H         1 3QZ         0.0270
     50 H26       -33.1764    8.4256   37.9523 H         1 3QZ         0.0278
     51 H27       -34.4039    7.2921   38.6120 H         1 3QZ         0.0278
     52 H28       -37.3746   10.2810   39.8612 H         1 3QZ         0.0298
     53 H29       -35.6464   12.5456   40.9696 H         1 3QZ         0.0187
     54 H30       -34.4558   10.9807   39.4865 H         1 3QZ         0.0308
@<TRIPOS>BOND
     1   16    1 1  
     2   22    2 1  
     3   23    3 1  
     4   16    4 2  
     5   17    5 2  
     6   24    6 1  
     7    7   17 1  
     8   18    7 2  
     9   10    8 1  
    10    8   18 1  
    11   13    9 1  
    12   17    9 1  
    13   19   10 1  
    14   11   14 1  
    15   20   11 1  
    16   12   15 1  
    17   21   12 1  
    18   22   13 1  
    19   14   23 1  
    20   15   24 1  
    21   24   16 1  
    22   18   22 1  
    23   19   20 1  
    24   19   21 1  
    25   20   22 1  
    26   21   23 1  
    27   23   24 1  
    28    1   25 1  
    29    1   26 1  
    30    1   27 1  
    31    2   28 1  
    32    2   29 1  
    33    2   30 1  
    34    3   31 1  
    35    3   32 1  
    36    3   33 1  
    37    6   34 1  
    38    7   35 1  
    39    8   36 1  
    40    8   37 1  
    41    9   38 1  
    42    9   39 1  
    43   10   40 1  
    44   10   41 1  
    45   11   42 1  
    46   11   43 1  
    47   12   44 1  
    48   12   45 1  
    49   13   46 1  
    50   13   47 1  
    51   14   48 1  
    52   14   49 1  
    53   15   50 1  
    54   15   51 1  
    55   19   52 1  
    56   20   53 1  
    57   21   54 1  
@<TRIPOS>SUBSTRUCTURE
     1 3QZ         1

