### 
### Created by X-TOOL on Mon Sep 10 21:13:33 2018
### 

@<TRIPOS>MOLECULE
5iez_ligand
   74    78     1     0     0
SMALL
GAST_HUCK


@<TRIPOS>ATOM
      1 C13        13.1020  -10.4350   18.1840 C.ar      1 6AL        -0.0720
      2 C15        14.7140  -11.8340   19.3380 C.ar      1 6AL        -0.0034
      3 C21        11.0160  -10.7520   25.0880 C.2       1 6AL        -0.0213
      4 C22        11.6410   -9.3720   25.2490 C.3       1 6AL        -0.0267
      5 C24        11.9270   -9.0420   27.5250 C.3       1 6AL         0.0716
      6 C26        11.9570   -9.9230   29.8840 C.ar      1 6AL         0.0784
      7 C28        10.9720   -9.1210   31.9340 C.ar      1 6AL        -0.0474
      8 CL          7.3850  -14.6530   27.8570 Cl        1 6AL        -0.0859
      9 C02         8.4470  -13.4690   27.0790 C.ar      1 6AL         0.0228
     10 C03         8.6900  -12.2870   27.7660 C.ar      1 6AL        -0.0716
     11 C04         9.5240  -11.3140   27.2020 C.ar      1 6AL        -0.0782
     12 C05        10.1260  -11.5020   25.9520 C.ar      1 6AL        -0.0171
     13 C06         9.8690  -12.6880   25.2770 C.ar      1 6AL         0.0643
     14 N07        10.5230  -12.6730   24.1250 N.pl3     1 6AL        -0.2776
     15 C08        11.1940  -11.5360   23.9800 C.2       1 6AL         0.1326
     16 C09        12.0710  -11.2280   22.8030 C.2       1 6AL         0.2423
     17 N10        11.6900  -11.5850   21.4760 N.am      1 6AL        -0.2340
     18 C11        12.5610  -11.3440   20.3380 C.ar      1 6AL         0.0689
     19 C12        12.2030  -10.5800   19.2330 C.ar      1 6AL        -0.0387
     20 C14        14.3530  -11.0600   18.2400 C.ar      1 6AL        -0.0630
     21 C16        16.0860  -12.5250   19.4240 C.2       1 6AL         0.0594
     22 O17        16.2430  -13.5650   20.1180 O.co2     1 6AL        -0.5608
     23 O18        17.0780  -12.0250   18.7940 O.co2     1 6AL        -0.5608
     24 C19        13.8080  -11.9750   20.3810 C.ar      1 6AL        -0.0272
     25 O20        13.1250  -10.7370   23.0560 O.2       1 6AL        -0.3812
     26 C23        12.7740   -9.3620   26.3110 C.3       1 6AL        -0.0186
     27 O25        12.4830   -9.8430   28.5390 O.3       1 6AL        -0.3210
     28 C27        11.3890   -8.8480   30.6230 C.ar      1 6AL        -0.0385
     29 C29        10.3360   -8.0780   32.8370 C.3       1 6AL        -0.0345
     30 C30        12.0940  -11.1900   30.4660 C.ar      1 6AL        -0.0385
     31 C31        11.6920  -11.4330   31.7480 C.ar      1 6AL        -0.0474
     32 C32        11.8320  -12.8350   32.3750 C.3       1 6AL        -0.0345
     33 C33        11.1270  -10.3920   32.4860 C.ar      1 6AL         0.0295
     34 CL2        10.6000  -10.7110   34.1280 Cl        1 6AL        -0.0937
     35 C35         9.0370  -13.6810   25.8270 C.ar      1 6AL        -0.0059
     36 C36         8.7920  -14.9780   24.9890 C.2       1 6AL         0.0028
     37 C37         9.4040  -16.2420   25.1260 C.2       1 6AL         0.0755
     38 C38        10.4860  -16.6660   26.1210 C.3       1 6AL         0.0007
     39 N39         8.8750  -17.0300   24.2070 N.pl3     1 6AL        -0.2130
     40 C40         9.2640  -18.4170   24.0470 C.3       1 6AL         0.0567
     41 N41         7.9850  -16.3830   23.5080 N.2       1 6AL        -0.2368
     42 C42         7.8760  -15.1590   23.9220 C.2       1 6AL         0.0052
     43 C43         6.9430  -14.1450   23.3240 C.3       1 6AL        -0.0288
     44 H1         12.8342   -9.8368   17.3206 H         1 6AL         0.0584
     45 H2         10.8591   -8.6628   25.5584 H         1 6AL         0.0381
     46 H3         12.0594   -9.0574   24.2816 H         1 6AL         0.0381
     47 H4         10.8738   -9.3063   27.3494 H         1 6AL         0.0615
     48 H5         11.9992   -7.9753   27.7837 H         1 6AL         0.0615
     49 H6          8.2356  -12.1182   28.7356 H         1 6AL         0.0503
     50 H7          9.7078  -10.3943   27.7455 H         1 6AL         0.0492
     51 H8         10.5125  -13.4385   23.4359 H         1 6AL         0.2205
     52 H9         10.7990  -12.0129   21.3244 H         1 6AL         0.2245
     53 H10        11.2311  -10.1018   19.1904 H         1 6AL         0.0523
     54 H11        15.0490  -10.9395   17.4178 H         1 6AL         0.0521
     55 H12        14.0710  -12.5822   21.2396 H         1 6AL         0.0535
     56 H13        13.5251   -8.5837   26.1108 H         1 6AL         0.0309
     57 H14        13.2722  -10.3389   26.3971 H         1 6AL         0.0309
     58 H15        11.2830   -7.8595   30.1909 H         1 6AL         0.0424
     59 H16        10.2653   -7.1212   32.2989 H         1 6AL         0.0390
     60 H17        10.9536   -7.9472   33.7378 H         1 6AL         0.0390
     61 H18         9.3286   -8.4102   33.1281 H         1 6AL         0.0390
     62 H19        12.5289  -11.9955   29.8854 H         1 6AL         0.0424
     63 H20        12.2957  -13.5174   31.6474 H         1 6AL         0.0390
     64 H21        10.8370  -13.2143   32.6509 H         1 6AL         0.0390
     65 H22        12.4631  -12.7734   33.2738 H         1 6AL         0.0390
     66 H23        10.7416  -15.8150   26.7694 H         1 6AL         0.0453
     67 H24        11.3821  -16.9907   25.5719 H         1 6AL         0.0453
     68 H25        10.1122  -17.4971   26.7371 H         1 6AL         0.0453
     69 H26         8.6903  -18.8659   23.2228 H         1 6AL         0.0591
     70 H27         9.0583  -18.9653   24.9781 H         1 6AL         0.0591
     71 H28        10.3386  -18.4725   23.8186 H         1 6AL         0.0591
     72 H29         6.3678  -14.6110   22.5103 H         1 6AL         0.0379
     73 H30         7.5253  -13.3014   22.9249 H         1 6AL         0.0379
     74 H31         6.2526  -13.7802   24.0987 H         1 6AL         0.0379
@<TRIPOS>BOND
     1   19    1 ar 
     2    1   20 ar 
     3   20    2 ar 
     4    2   21 1  
     5    2   24 ar 
     6    3    4 1  
     7    3   12 1  
     8   15    3 2  
     9    4   26 1  
    10   26    5 1  
    11    5   27 1  
    12   27    6 1  
    13    6   28 ar 
    14    6   30 ar 
    15   28    7 ar 
    16    7   29 1  
    17    7   33 ar 
    18    9    8 1  
    19    9   10 ar 
    20   35    9 ar 
    21   11   10 ar 
    22   12   11 ar 
    23   13   12 ar 
    24   14   13 1  
    25   13   35 ar 
    26   15   14 1  
    27   16   15 1  
    28   17   16 am 
    29   16   25 2  
    30   18   17 1  
    31   18   19 ar 
    32   18   24 ar 
    33   21   22 ar 
    34   21   23 ar 
    35   30   31 ar 
    36   31   32 1  
    37   31   33 ar 
    38   33   34 1  
    39   35   36 1  
    40   36   37 2  
    41   36   42 1  
    42   37   38 1  
    43   37   39 1  
    44   39   40 1  
    45   39   41 1  
    46   41   42 2  
    47   42   43 1  
    48    1   44 1  
    49    4   45 1  
    50    4   46 1  
    51    5   47 1  
    52    5   48 1  
    53   10   49 1  
    54   11   50 1  
    55   14   51 1  
    56   17   52 1  
    57   19   53 1  
    58   20   54 1  
    59   24   55 1  
    60   26   56 1  
    61   26   57 1  
    62   28   58 1  
    63   29   59 1  
    64   29   60 1  
    65   29   61 1  
    66   30   62 1  
    67   32   63 1  
    68   32   64 1  
    69   32   65 1  
    70   38   66 1  
    71   38   67 1  
    72   38   68 1  
    73   40   69 1  
    74   40   70 1  
    75   40   71 1  
    76   43   72 1  
    77   43   73 1  
    78   43   74 1  
@<TRIPOS>SUBSTRUCTURE
     1 6AL         1

