### 
### Created by X-TOOL on Mon Sep 10 21:13:31 2018
### 

@<TRIPOS>MOLECULE
5if4_ligand
   88    94     1     0     0
SMALL
GAST_HUCK


@<TRIPOS>ATOM
      1 C14        -2.5310   -9.2360   21.1880 C.3       1 6AK         0.0506
      2 C11        -2.7130   -7.5100   19.3680 C.2       1 6AK         0.1355
      3 C10        -4.0210   -7.7480   15.4040 C.3       1 6AK         0.0716
      4 C12        -3.5300   -6.6610   20.2150 C.2       1 6AK         0.2456
      5 C13        -1.8360   -7.0910   22.0950 C.3       1 6AK         0.0574
      6 C01        -1.4340   -9.3140   18.9050 C.ar      1 6AK         0.0667
      7 C02        -0.6580  -10.5160   18.9300 C.ar      1 6AK        -0.0057
      8 C03        -0.0030  -10.8530   17.7310 C.ar      1 6AK         0.0228
      9 CL          0.9350  -12.2950   17.6830 Cl        1 6AK        -0.0859
     10 C04        -0.0940  -10.0820   16.5550 C.ar      1 6AK        -0.0717
     11 C05        -0.8600   -8.9080   16.5610 C.ar      1 6AK        -0.0782
     12 C06        -1.5380   -8.5220   17.7410 C.ar      1 6AK        -0.0169
     13 C07        -2.3720   -7.4100   18.0270 C.2       1 6AK        -0.0212
     14 C08        -2.7410   -6.3360   17.0400 C.3       1 6AK        -0.0267
     15 C09        -4.1060   -6.5950   16.3990 C.3       1 6AK        -0.0186
     16 O01        -3.1260   -7.3140   14.3840 O.3       1 6AK        -0.3210
     17 O02        -4.5740   -6.1430   19.8010 O.2       1 6AK        -0.3806
     18 N01        -3.0500   -6.4930   21.5410 N.am      1 6AK        -0.2223
     19 N02        -2.2050   -8.6870   19.8550 N.pl3     1 6AK        -0.2630
     20 C15        -1.8610   -8.5830   22.3800 C.3       1 6AK        -0.0014
     21 N03         0.3090  -12.0530   22.0180 N.pl3     1 6AK        -0.2130
     22 C16         1.1150  -12.1220   23.2250 C.3       1 6AK         0.0567
     23 C17         0.4270  -11.0790   21.0780 C.2       1 6AK         0.0755
     24 C18         1.4210   -9.9820   21.2390 C.3       1 6AK         0.0007
     25 C19        -0.5150  -11.3850   20.0930 C.2       1 6AK         0.0028
     26 C20        -1.1670  -12.5610   20.5450 C.2       1 6AK         0.0052
     27 C21        -2.2630  -13.3090   19.8670 C.3       1 6AK        -0.0288
     28 N04        -0.6490  -12.9710   21.7320 N.2       1 6AK        -0.2368
     29 C22        -2.6840   -9.6480   11.0110 C.ar      1 6AK         0.0295
     30 CL2        -2.5100  -10.6520    9.6340 Cl        1 6AK        -0.0937
     31 C23        -2.2000   -8.3260   10.9640 C.ar      1 6AK        -0.0474
     32 C24        -1.5250   -7.7730    9.7250 C.3       1 6AK        -0.0345
     33 C25        -2.3530   -7.5350   12.1180 C.ar      1 6AK        -0.0385
     34 C26        -2.9670   -8.0490   13.2570 C.ar      1 6AK         0.0784
     35 C27        -3.4490   -9.3780   13.2840 C.ar      1 6AK        -0.0385
     36 C28        -3.3140  -10.2090   12.1420 C.ar      1 6AK        -0.0474
     37 C29        -3.8150  -11.6440   12.0910 C.3       1 6AK        -0.0345
     38 C30        -5.7470   -4.5980   24.2010 C.ar      1 6AK        -0.0458
     39 C31        -5.9760   -5.8490   23.6060 C.ar      1 6AK        -0.0203
     40 C32        -7.2030   -6.6220   23.8400 C.2       1 6AK         0.0521
     41 O03        -7.3680   -7.8090   23.6080 O.co2     1 6AK        -0.5629
     42 O04        -8.1690   -5.8360   24.3290 O.co2     1 6AK        -0.5629
     43 C33        -5.0460   -6.3790   22.7530 C.ar      1 6AK        -0.0452
     44 C34        -3.8270   -5.7130   22.4410 C.ar      1 6AK         0.0631
     45 C35        -3.5540   -4.4420   23.0350 C.ar      1 6AK         0.0007
     46 C36        -4.5300   -3.9180   23.9030 C.ar      1 6AK         0.0567
     47 N05        -4.0530   -2.6870   24.3540 N.pl3     1 6AK        -0.2743
     48 C37        -4.7860   -1.8420   25.2710 C.3       1 6AK         0.0394
     49 C38        -2.8270   -2.3950   23.8220 C.2       1 6AK         0.0187
     50 C39        -2.5010   -3.4640   23.0080 C.2       1 6AK        -0.0668
     51 H1         -2.2475  -10.2988   21.1883 H         1 6AK         0.0593
     52 H2         -3.6184   -9.1465   21.3276 H         1 6AK         0.0593
     53 H3         -5.0127   -7.9609   14.9784 H         1 6AK         0.0615
     54 H4         -3.6317   -8.6513   15.8965 H         1 6AK         0.0615
     55 H5         -1.6177   -6.5773   23.0429 H         1 6AK         0.0589
     56 H6         -1.0205   -6.9049   21.3807 H         1 6AK         0.0589
     57 H7          0.4232  -10.3936   15.6547 H         1 6AK         0.0503
     58 H8         -0.9324   -8.2996   15.6668 H         1 6AK         0.0492
     59 H9         -1.9773   -6.3023   16.2490 H         1 6AK         0.0381
     60 H10        -2.7712   -5.3683   17.5621 H         1 6AK         0.0381
     61 H11        -4.8324   -6.8485   17.1852 H         1 6AK         0.0309
     62 H12        -4.4366   -5.6872   15.8732 H         1 6AK         0.0309
     63 H13        -0.8361   -8.9650   22.4967 H         1 6AK         0.0315
     64 H14        -2.4344   -8.7854   23.2966 H         1 6AK         0.0315
     65 H15         0.8202  -13.0038   23.8128 H         1 6AK         0.0591
     66 H16         0.9573  -11.2128   23.8237 H         1 6AK         0.0591
     67 H17         2.1777  -12.2017   22.9523 H         1 6AK         0.0591
     68 H18         1.3587   -9.3014   20.3771 H         1 6AK         0.0453
     69 H19         2.4329  -10.4095   21.2962 H         1 6AK         0.0453
     70 H20         1.2057   -9.4247   22.1626 H         1 6AK         0.0453
     71 H21        -2.5477  -14.1773   20.4794 H         1 6AK         0.0379
     72 H22        -1.9168  -13.6533   18.8813 H         1 6AK         0.0379
     73 H23        -3.1335  -12.6487   19.7399 H         1 6AK         0.0379
     74 H24        -1.2270   -6.7295    9.9047 H         1 6AK         0.0390
     75 H25        -2.2246   -7.8137    8.8772 H         1 6AK         0.0390
     76 H26        -0.6334   -8.3743    9.4938 H         1 6AK         0.0390
     77 H27        -1.9887   -6.5141   12.1201 H         1 6AK         0.0424
     78 H28        -3.9230   -9.7630   14.1797 H         1 6AK         0.0424
     79 H29        -3.5938  -12.0747   11.1033 H         1 6AK         0.0390
     80 H30        -4.9014  -11.6594   12.2627 H         1 6AK         0.0390
     81 H31        -3.3122  -12.2359   12.8700 H         1 6AK         0.0390
     82 H32        -6.4780   -4.1598   24.8708 H         1 6AK         0.0437
     83 H33        -5.2452   -7.3424   22.2977 H         1 6AK         0.0399
     84 H34        -4.2046   -0.9306   25.4742 H         1 6AK         0.0564
     85 H35        -4.9578   -2.3847   26.2122 H         1 6AK         0.0564
     86 H36        -5.7530   -1.5680   24.8240 H         1 6AK         0.0564
     87 H37        -2.2296   -1.5026   24.0028 H         1 6AK         0.0883
     88 H38        -1.5815   -3.5521   22.4312 H         1 6AK         0.0282
@<TRIPOS>BOND
     1    1   19 1  
     2   20    1 1  
     3    4    2 1  
     4    2   13 2  
     5    2   19 1  
     6   15    3 1  
     7    3   16 1  
     8    4   17 2  
     9   18    4 am 
    10   18    5 1  
    11    5   20 1  
    12    6    7 ar 
    13    6   12 ar 
    14   19    6 1  
    15    7    8 ar 
    16    7   25 1  
    17    8    9 1  
    18    8   10 ar 
    19   11   10 ar 
    20   12   11 ar 
    21   13   12 1  
    22   13   14 1  
    23   14   15 1  
    24   16   34 1  
    25   44   18 1  
    26   21   22 1  
    27   23   21 1  
    28   28   21 1  
    29   23   24 1  
    30   25   23 2  
    31   25   26 1  
    32   26   27 1  
    33   26   28 2  
    34   29   30 1  
    35   31   29 ar 
    36   36   29 ar 
    37   31   32 1  
    38   33   31 ar 
    39   34   33 ar 
    40   34   35 ar 
    41   35   36 ar 
    42   36   37 1  
    43   39   38 ar 
    44   38   46 ar 
    45   39   40 1  
    46   43   39 ar 
    47   40   41 ar 
    48   40   42 ar 
    49   43   44 ar 
    50   44   45 ar 
    51   45   46 ar 
    52   45   50 1  
    53   46   47 1  
    54   47   48 1  
    55   47   49 1  
    56   49   50 2  
    57    1   51 1  
    58    1   52 1  
    59    3   53 1  
    60    3   54 1  
    61    5   55 1  
    62    5   56 1  
    63   10   57 1  
    64   11   58 1  
    65   14   59 1  
    66   14   60 1  
    67   15   61 1  
    68   15   62 1  
    69   20   63 1  
    70   20   64 1  
    71   22   65 1  
    72   22   66 1  
    73   22   67 1  
    74   24   68 1  
    75   24   69 1  
    76   24   70 1  
    77   27   71 1  
    78   27   72 1  
    79   27   73 1  
    80   32   74 1  
    81   32   75 1  
    82   32   76 1  
    83   33   77 1  
    84   35   78 1  
    85   37   79 1  
    86   37   80 1  
    87   37   81 1  
    88   38   82 1  
    89   43   83 1  
    90   48   84 1  
    91   48   85 1  
    92   48   86 1  
    93   49   87 1  
    94   50   88 1  
@<TRIPOS>SUBSTRUCTURE
     1 6AK         1

