### 
### Created by X-TOOL on Wed Jan  1 15:39:34 2020
### 

@<TRIPOS>MOLECULE
5if6_ligand
   54    57     1     0     0
SMALL
GAST_HUCK


@<TRIPOS>ATOM
      1 CAA         9.7690   21.5740   27.6160 C.3       1 3QZ         0.0135
      2 CAB         2.8090   25.0250   27.3520 C.3       1 3QZ        -0.0890
      3 CAC         6.4600   22.3570   26.0990 C.3       1 3QZ        -0.0577
      4 OAD         9.2780   21.2820   25.3280 O.2       1 3QZ        -0.3300
      5 OAE         1.9210   29.4900   28.9630 O.2       1 3QZ        -0.3440
      6 OAF         9.5740   24.2000   26.9990 O.3       1 3QZ        -0.3853
      7 CAG         2.7380   28.2280   27.2320 C.2       1 3QZ         0.0476
      8 CAH         3.9340   27.1160   25.4900 C.3       1 3QZ        -0.0169
      9 CAI         2.4470   27.2530   29.5270 C.3       1 3QZ         0.0243
     10 CAJ         5.3450   26.6620   25.2980 C.3       1 3QZ        -0.0393
     11 CAK         5.5790   24.2410   28.2080 C.3       1 3QZ        -0.0585
     12 CAL         7.4810   24.4370   24.4310 C.3       1 3QZ        -0.0480
     13 CAM         3.6600   26.4090   29.2300 C.3       1 3QZ        -0.0611
     14 CAN         7.0250   23.8220   28.0110 C.3       1 3QZ        -0.0464
     15 CAO         8.8680   23.9190   24.7410 C.3       1 3QZ        -0.0180
     16 CAP         9.2830   22.0220   26.2850 C.2       1 3QZ         0.1556
     17 CAQ         2.3400   28.4110   28.6120 C.2       1 3QZ         0.1764
     18 CAR         3.6160   27.2980   26.9220 C.2       1 3QZ        -0.0413
     19 CAS         5.5580   25.3320   25.9700 C.3       1 3QZ        -0.0418
     20 CAT         5.2630   25.5290   27.4650 C.3       1 3QZ        -0.0619
     21 CAU         6.9850   24.8300   25.7950 C.3       1 3QZ        -0.0318
     22 CAV         3.8340   26.0630   27.7460 C.3       1 3QZ        -0.0378
     23 CAW         7.3010   23.5510   26.5550 C.3       1 3QZ         0.0050
     24 CAX         8.7770   23.4030   26.1700 C.3       1 3QZ         0.1335
     25 H1          9.6845   22.4022   28.3350 H         1 3QZ         0.0452
     26 H2         10.8212   21.2633   27.5367 H         1 3QZ         0.0452
     27 H3          9.1610   20.7249   27.9616 H         1 3QZ         0.0452
     28 H4          1.7992   25.4115   27.5544 H         1 3QZ         0.0112
     29 H5          2.9739   24.1070   27.9352 H         1 3QZ         0.0112
     30 H6          2.9076   24.8009   26.2796 H         1 3QZ         0.0112
     31 H7          5.4126   22.5108   26.3979 H         1 3QZ         0.0234
     32 H8          6.8437   21.4383   26.5667 H         1 3QZ         0.0234
     33 H9          6.5190   22.2636   25.0046 H         1 3QZ         0.0234
     34 H10         9.5191   23.8801   27.8919 H         1 3QZ         0.2077
     35 H11         2.3120   28.8582   26.4527 H         1 3QZ         0.1318
     36 H12         3.2546   26.3622   25.0656 H         1 3QZ         0.0450
     37 H13         3.7918   28.0734   24.9674 H         1 3QZ         0.0450
     38 H14         2.5158   27.6225   30.5608 H         1 3QZ         0.0483
     39 H15         1.5463   26.6308   29.4192 H         1 3QZ         0.0483
     40 H16         6.0285   27.4042   25.7361 H         1 3QZ         0.0293
     41 H17         5.5519   26.5630   24.2222 H         1 3QZ         0.0293
     42 H18         5.3948   24.3940   29.2816 H         1 3QZ         0.0259
     43 H19         4.9218   23.4425   27.8333 H         1 3QZ         0.0259
     44 H20         6.8508   23.6524   23.9869 H         1 3QZ         0.0267
     45 H21         7.5194   25.3034   23.7543 H         1 3QZ         0.0267
     46 H22         3.5743   25.4697   29.7959 H         1 3QZ         0.0172
     47 H23         4.5529   26.9579   29.5637 H         1 3QZ         0.0172
     48 H24         7.2200   22.9089   28.5926 H         1 3QZ         0.0270
     49 H25         7.6866   24.6281   28.3611 H         1 3QZ         0.0270
     50 H26         9.6097   24.7279   24.6672 H         1 3QZ         0.0278
     51 H27         9.1417   23.1065   24.0519 H         1 3QZ         0.0278
     52 H28         4.8640   24.5918   25.5453 H         1 3QZ         0.0298
     53 H29         5.9587   26.2967   27.8347 H         1 3QZ         0.0187
     54 H30         7.6257   25.6417   26.1699 H         1 3QZ         0.0308
@<TRIPOS>BOND
     1   16    1 1  
     2   22    2 1  
     3   23    3 1  
     4   16    4 2  
     5   17    5 2  
     6   24    6 1  
     7    7   17 1  
     8   18    7 2  
     9   10    8 1  
    10    8   18 1  
    11   13    9 1  
    12   17    9 1  
    13   19   10 1  
    14   11   14 1  
    15   20   11 1  
    16   12   15 1  
    17   21   12 1  
    18   22   13 1  
    19   14   23 1  
    20   15   24 1  
    21   24   16 1  
    22   18   22 1  
    23   19   20 1  
    24   19   21 1  
    25   20   22 1  
    26   21   23 1  
    27   23   24 1  
    28    1   25 1  
    29    1   26 1  
    30    1   27 1  
    31    2   28 1  
    32    2   29 1  
    33    2   30 1  
    34    3   31 1  
    35    3   32 1  
    36    3   33 1  
    37    6   34 1  
    38    7   35 1  
    39    8   36 1  
    40    8   37 1  
    41    9   38 1  
    42    9   39 1  
    43   10   40 1  
    44   10   41 1  
    45   11   42 1  
    46   11   43 1  
    47   12   44 1  
    48   12   45 1  
    49   13   46 1  
    50   13   47 1  
    51   14   48 1  
    52   14   49 1  
    53   15   50 1  
    54   15   51 1  
    55   19   52 1  
    56   20   53 1  
    57   21   54 1  
@<TRIPOS>SUBSTRUCTURE
     1 3QZ         1

