### 
### Created by X-TOOL on Mon Sep 10 21:13:28 2018
### 

@<TRIPOS>MOLECULE
5ifu_ligand
   61    63     1     0     0
SMALL
GAST_HUCK


@<TRIPOS>ATOM
      1 O3        -35.8980   -0.3620   24.2630 O.2       1 GBM        -0.3994
      2 O4        -34.1980   -0.2060   22.0130 O.2       1 GBM        -0.1466
      3 O5        -32.9240    1.6440   21.9850 O.2       1 GBM        -0.1466
      4 O6        -37.9120    4.5650   16.8780 O.2       1 GBM        -0.3908
      5 CL1       -41.5760    4.8930   12.0970 Cl        1 GBM        -0.0797
      6 S2        -34.2230    1.1800   22.4780 S.o2      1 GBM         0.0880
      7 O7        -38.7060    7.5310   16.6080 O.3       1 GBM        -0.3155
      8 N8        -35.4240    0.4100   26.3360 N.am      1 GBM        -0.2688
      9 N9        -34.3380    1.2840   24.1890 N.am      1 GBM        -0.1408
     10 N10       -40.0060    4.0360   17.6200 N.am      1 GBM        -0.2860
     11 C11       -36.3700   -0.5300   26.9230 C.3       1 GBM         0.0424
     12 C12       -37.7830    0.0350   26.8220 C.3       1 GBM        -0.0301
     13 C13       -36.0190   -0.8310   28.3820 C.3       1 GBM        -0.0301
     14 C14       -38.8010   -0.9380   27.4200 C.3       1 GBM        -0.0510
     15 C15       -37.0120   -1.8110   29.0160 C.3       1 GBM        -0.0510
     16 C16       -38.4650   -1.3630   28.8520 C.3       1 GBM        -0.0529
     17 C17       -35.2550    0.3980   24.8920 C.2       1 GBM         0.2781
     18 C18       -35.5970    2.0740   21.6980 C.ar      1 GBM         0.1059
     19 C19       -37.7150    3.3870   20.4970 C.ar      1 GBM        -0.0410
     20 C20       -38.8940    4.0940   19.8230 C.3       1 GBM         0.0010
     21 C21       -36.5340    1.3550   20.9750 C.ar      1 GBM        -0.0415
     22 C22       -35.7160    3.4500   21.8250 C.ar      1 GBM        -0.0415
     23 C23       -37.5910    2.0130   20.3750 C.ar      1 GBM        -0.0584
     24 C24       -36.7770    4.1080   21.2230 C.ar      1 GBM        -0.0584
     25 C25       -39.4920    3.2270   18.7120 C.3       1 GBM         0.0396
     26 C26       -39.0750    4.6890   16.7150 C.2       1 GBM         0.1995
     27 C27       -39.5860    5.5400   15.5560 C.ar      1 GBM         0.0791
     28 C28       -39.3800    6.9110   15.5470 C.ar      1 GBM         0.1128
     29 C29       -40.2490    4.9280   14.5050 C.ar      1 GBM        -0.0363
     30 C30       -39.8490    7.6710   14.4860 C.ar      1 GBM        -0.0261
     31 C31       -40.7170    5.6870   13.4460 C.ar      1 GBM         0.0343
     32 C32       -40.5160    7.0600   13.4360 C.ar      1 GBM        -0.0521
     33 C33       -37.4020    7.9430   16.3080 C.3       1 GBM         0.0613
     34 H1        -34.9062    1.0448   26.9095 H         1 GBM         0.1849
     35 H2        -33.7828    1.9440   24.6952 H         1 GBM         0.2138
     36 H3        -40.9921    4.1426   17.4922 H         1 GBM         0.1842
     37 H4        -36.3255   -1.4709   26.3549 H         1 GBM         0.0553
     38 H5        -38.0277    0.2075   25.7635 H         1 GBM         0.0287
     39 H6        -37.8304    0.9880   27.3693 H         1 GBM         0.0287
     40 H7        -36.0331    0.1092   28.9528 H         1 GBM         0.0287
     41 H8        -35.0110   -1.2695   28.4225 H         1 GBM         0.0287
     42 H9        -38.8366   -1.8378   26.7882 H         1 GBM         0.0266
     43 H10       -39.7880   -0.4525   27.4226 H         1 GBM         0.0266
     44 H11       -36.7880   -1.8945   30.0897 H         1 GBM         0.0266
     45 H12       -36.8904   -2.7944   28.5384 H         1 GBM         0.0266
     46 H13       -39.1233   -2.1980   29.1336 H         1 GBM         0.0265
     47 H14       -38.6469   -0.5103   29.5227 H         1 GBM         0.0265
     48 H15       -38.5445    5.0428   19.3899 H         1 GBM         0.0446
     49 H16       -39.6691    4.2983   20.5763 H         1 GBM         0.0446
     50 H17       -36.4387    0.2794   20.8799 H         1 GBM         0.0619
     51 H18       -34.9815    4.0091   22.3933 H         1 GBM         0.0619
     52 H19       -38.3248    1.4522   19.8075 H         1 GBM         0.0557
     53 H20       -36.8741    5.1834   21.3189 H         1 GBM         0.0557
     54 H21       -38.7113    2.5569   18.3230 H         1 GBM         0.0542
     55 H22       -40.3144    2.6280   19.1303 H         1 GBM         0.0542
     56 H23       -40.4014    3.8548   14.5117 H         1 GBM         0.0648
     57 H24       -39.6938    8.7438   14.4779 H         1 GBM         0.0556
     58 H25       -40.8809    7.6549   12.6065 H         1 GBM         0.0631
     59 H26       -36.9538    8.4158   17.1943 H         1 GBM         0.0581
     60 H27       -37.4274    8.6666   15.4799 H         1 GBM         0.0581
     61 H28       -36.8002    7.0704   16.0142 H         1 GBM         0.0581
@<TRIPOS>BOND
     1   17    1 2  
     2    6    2 2  
     3    6    3 2  
     4   26    4 2  
     5   31    5 1  
     6    6    9 am 
     7   18    6 1  
     8   28    7 1  
     9    7   33 1  
    10    8   11 1  
    11   17    8 am 
    12    9   17 am 
    13   10   25 1  
    14   26   10 am 
    15   11   12 1  
    16   11   13 1  
    17   12   14 1  
    18   13   15 1  
    19   14   16 1  
    20   15   16 1  
    21   21   18 ar 
    22   22   18 ar 
    23   20   19 1  
    24   19   23 ar 
    25   19   24 ar 
    26   25   20 1  
    27   23   21 ar 
    28   24   22 ar 
    29   27   26 1  
    30   27   28 ar 
    31   29   27 ar 
    32   28   30 ar 
    33   29   31 ar 
    34   30   32 ar 
    35   31   32 ar 
    36    8   34 1  
    37    9   35 1  
    38   10   36 1  
    39   11   37 1  
    40   12   38 1  
    41   12   39 1  
    42   13   40 1  
    43   13   41 1  
    44   14   42 1  
    45   14   43 1  
    46   15   44 1  
    47   15   45 1  
    48   16   46 1  
    49   16   47 1  
    50   20   48 1  
    51   20   49 1  
    52   21   50 1  
    53   22   51 1  
    54   23   52 1  
    55   24   53 1  
    56   25   54 1  
    57   25   55 1  
    58   29   56 1  
    59   30   57 1  
    60   32   58 1  
    61   33   59 1  
    62   33   60 1  
    63   33   61 1  
@<TRIPOS>SUBSTRUCTURE
     1 GBM         1

