### 
### Created by X-TOOL on Mon Sep 10 21:13:26 2018
### 

@<TRIPOS>MOLECULE
5igk_ligand
   48    50     1     0     0
SMALL
GAST_HUCK


@<TRIPOS>ATOM
      1 C10        30.1720   14.8700   -0.5010 C.ar      1 BMF        -0.0239
      2 N12        31.7580   16.4020    0.2530 N.2       1 BMF        -0.1737
      3 C15        33.6550   15.4540   -1.7110 C.2       1 BMF         0.1414
      4 C17        34.6520   14.0010   -3.3580 C.2       1 BMF         0.3581
      5 C20        37.2920   12.5490   -5.2900 C.3       1 BMF        -0.0372
      6 C22        32.3700   14.9440   -1.6510 C.2       1 BMF        -0.0099
      7 C26        32.8050   18.6950    1.9530 C.3       1 BMF         0.0176
      8 C28        28.2250   13.7130   -1.4180 C.ar      1 BMF        -0.0719
      9 C01        26.4190   12.7160   -0.0570 C.3       1 BMF        -0.0346
     10 C02        27.6700   13.5440   -0.1740 C.ar      1 BMF        -0.0251
     11 C03        28.3830   13.9690    0.9450 C.ar      1 BMF         0.0672
     12 N04        27.8440   13.6740    2.2500 N.am      1 BMF        -0.1942
     13 S05        28.6480   13.7120    3.6750 S.o2      1 BMF         0.0560
     14 C06        28.8520   15.3080    4.2580 C.3       1 BMF         0.0785
     15 O07        29.9290   13.1630    3.4110 O.2       1 BMF        -0.1504
     16 O08        27.8550   13.0070    4.6060 O.2       1 BMF        -0.1504
     17 C09        29.6330   14.6850    0.7980 C.ar      1 BMF        -0.0406
     18 C11        31.4830   15.4060   -0.6200 C.2       1 BMF         0.0540
     19 N13        33.0090   16.9150    0.1320 N.pl3     1 BMF        -0.1146
     20 C14        34.0250   16.4840   -0.7690 C.2       1 BMF         0.2116
     21 N16        34.7080   15.0880   -2.5230 N.am      1 BMF        -0.1925
     22 O18        35.8260   13.8640   -4.0180 O.3       1 BMF        -0.2579
     23 C19        35.8340   12.7270   -4.9270 C.3       1 BMF         0.0752
     24 O21        33.6980   13.2400   -3.4910 O.2       1 BMF        -0.3634
     25 N23        35.1490   17.1880   -0.5860 N.2       1 BMF        -0.2733
     26 N24        34.8570   18.1060    0.4070 N.2       1 BMF        -0.2688
     27 C25        33.5670   17.9330    0.8580 C.2       1 BMF         0.1614
     28 C27        29.4620   14.3320   -1.5630 C.ar      1 BMF        -0.0735
     29 H1         37.3964   11.7010   -5.9828 H         1 BMF         0.0255
     30 H2         37.8754   12.3517   -4.3786 H         1 BMF         0.0255
     31 H3         37.6642   13.4647   -5.7726 H         1 BMF         0.0255
     32 H4         32.0359   14.2027   -2.3754 H         1 BMF         0.0447
     33 H5         33.4610   19.4622    2.3900 H         1 BMF         0.0458
     34 H6         32.4901   17.9916    2.7378 H         1 BMF         0.0458
     35 H7         31.9184   19.1769    1.5152 H         1 BMF         0.0458
     36 H8         27.6944   13.3609   -2.2952 H         1 BMF         0.0518
     37 H9         26.0280   12.4984   -1.0619 H         1 BMF         0.0366
     38 H10        25.6637   13.2720    0.5178 H         1 BMF         0.0366
     39 H11        26.6507   11.7723    0.4585 H         1 BMF         0.0366
     40 H12        26.8777   13.4196    2.2880 H         1 BMF         0.2132
     41 H13        29.3954   15.2824    5.2140 H         1 BMF         0.0487
     42 H14        27.8662   15.7721    4.4089 H         1 BMF         0.0487
     43 H15        29.4256   15.8953    3.5258 H         1 BMF         0.0487
     44 H16        30.1494   15.0740    1.6681 H         1 BMF         0.0477
     45 H17        35.5443   15.6359   -2.5023 H         1 BMF         0.2375
     46 H18        35.4437   11.8272   -4.4289 H         1 BMF         0.0609
     47 H19        35.2325   12.9402   -5.8230 H         1 BMF         0.0609
     48 H20        29.8923   14.3969   -2.5558 H         1 BMF         0.0486
@<TRIPOS>BOND
     1    1   17 ar 
     2   18    1 1  
     3    1   28 ar 
     4   18    2 2  
     5   19    2 1  
     6    3    6 2  
     7    3   20 1  
     8   21    3 1  
     9    4   21 am 
    10   22    4 1  
    11    4   24 2  
    12   23    5 1  
    13    6   18 1  
    14   27    7 1  
    15    8   10 ar 
    16   28    8 ar 
    17   10    9 1  
    18   11   10 ar 
    19   11   12 1  
    20   17   11 ar 
    21   12   13 am 
    22   13   14 1  
    23   13   15 2  
    24   13   16 2  
    25   20   19 1  
    26   19   27 1  
    27   20   25 2  
    28   22   23 1  
    29   25   26 1  
    30   26   27 2  
    31    5   29 1  
    32    5   30 1  
    33    5   31 1  
    34    6   32 1  
    35    7   33 1  
    36    7   34 1  
    37    7   35 1  
    38    8   36 1  
    39    9   37 1  
    40    9   38 1  
    41    9   39 1  
    42   12   40 1  
    43   14   41 1  
    44   14   42 1  
    45   14   43 1  
    46   17   44 1  
    47   21   45 1  
    48   23   46 1  
    49   23   47 1  
    50   28   48 1  
@<TRIPOS>SUBSTRUCTURE
     1 BMF         1

