### 
### Created by X-TOOL on Mon Sep 10 21:13:29 2018
### 

@<TRIPOS>MOLECULE
5igl_ligand
   48    50     1     0     0
SMALL
GAST_HUCK


@<TRIPOS>ATOM
      1 C10         2.5860   24.1430   28.5070 C.ar      1 BMF        -0.0239
      2 N12         3.4610   26.4080   28.6530 N.2       1 BMF        -0.1737
      3 C15         3.0660   27.0600   26.0900 C.2       1 BMF         0.1414
      4 C17         2.9650   26.9050   23.6480 C.2       1 BMF         0.3581
      5 C20         0.6250   27.3400   21.7150 C.3       1 BMF        -0.0372
      6 C22         2.7010   25.7760   26.5540 C.2       1 BMF        -0.0099
      7 C26         4.6590   28.6460   30.2410 C.3       1 BMF         0.0176
      8 C28         1.5740   21.9360   28.3100 C.ar      1 BMF        -0.0719
      9 C01         1.4420   20.3950   30.0400 C.3       1 BMF        -0.0346
     10 C02         1.8550   21.6360   29.6410 C.ar      1 BMF        -0.0251
     11 C03         2.5170   22.5630   30.4840 C.ar      1 BMF         0.0672
     12 N04         2.7250   22.2250   31.8250 N.am      1 BMF        -0.1942
     13 S05         4.3280   21.9900   32.3160 S.o2      1 BMF         0.0560
     14 C06         4.3170   20.4770   33.1610 C.3       1 BMF         0.0785
     15 O07         4.7310   23.1210   33.2990 O.2       1 BMF        -0.1504
     16 O08         5.1270   21.9510   31.0430 O.2       1 BMF        -0.1504
     17 C09         2.8590   23.8100   29.8850 C.ar      1 BMF        -0.0406
     18 C11         2.9210   25.4130   27.9090 C.2       1 BMF         0.0540
     19 N13         3.7500   27.5180   28.2010 N.pl3     1 BMF        -0.1146
     20 C14         3.5910   27.9280   26.9710 C.2       1 BMF         0.2116
     21 N16         2.9230   27.5730   24.8450 N.am      1 BMF        -0.1925
     22 O18         2.8290   27.6440   22.4890 O.3       1 BMF        -0.2579
     23 C19         2.0880   27.1100   21.3650 C.3       1 BMF         0.0752
     24 O21         3.1170   25.6840   23.5630 O.2       1 BMF        -0.3634
     25 N23         4.0400   29.1980   26.9280 N.2       1 BMF        -0.2733
     26 N24         4.4370   29.5510   27.9030 N.2       1 BMF        -0.2688
     27 C25         4.2840   28.5680   28.7780 C.2       1 BMF         0.1614
     28 C27         1.9320   23.1510   27.7530 C.ar      1 BMF        -0.0735
     29 H1         -0.0108   26.9579   20.9027 H         1 BMF         0.0255
     30 H2          0.4443   28.4171   21.8462 H         1 BMF         0.0255
     31 H3          0.3839   26.8113   22.6490 H         1 BMF         0.0255
     32 H4          2.2485   25.0610   25.8685 H         1 BMF         0.0447
     33 H5          5.0854   29.6365   30.4579 H         1 BMF         0.0458
     34 H6          5.4023   27.8685   30.4710 H         1 BMF         0.0458
     35 H7          3.7620   28.4898   30.8583 H         1 BMF         0.0458
     36 H8          1.0638   21.2016   27.6973 H         1 BMF         0.0518
     37 H9          0.9583   19.8808   29.1964 H         1 BMF         0.0366
     38 H10         0.7248   20.4958   30.8679 H         1 BMF         0.0366
     39 H11         2.3107   19.8101   30.3766 H         1 BMF         0.0366
     40 H12         1.9622   22.1267   32.4642 H         1 BMF         0.2132
     41 H13         5.3325   20.2483   33.5167 H         1 BMF         0.0487
     42 H14         3.9782   19.6804   32.4823 H         1 BMF         0.0487
     43 H15         3.6334   20.5419   34.0204 H         1 BMF         0.0487
     44 H16         3.3535   24.5527   30.5006 H         1 BMF         0.0477
     45 H17         2.7678   28.5595   24.7919 H         1 BMF         0.2375
     46 H18         2.3527   27.6420   20.4393 H         1 BMF         0.0609
     47 H19         2.2922   26.0362   21.2420 H         1 BMF         0.0609
     48 H20         1.7032   23.3433   26.7110 H         1 BMF         0.0486
@<TRIPOS>BOND
     1    1   17 ar 
     2   18    1 1  
     3    1   28 ar 
     4   18    2 2  
     5   19    2 1  
     6    3    6 2  
     7    3   20 1  
     8   21    3 1  
     9    4   21 am 
    10   22    4 1  
    11    4   24 2  
    12   23    5 1  
    13    6   18 1  
    14   27    7 1  
    15    8   10 ar 
    16   28    8 ar 
    17   10    9 1  
    18   11   10 ar 
    19   11   12 1  
    20   17   11 ar 
    21   12   13 1  
    22   13   14 1  
    23   13   15 2  
    24   13   16 2  
    25   20   19 1  
    26   19   27 1  
    27   20   25 2  
    28   22   23 1  
    29   25   26 1  
    30   26   27 2  
    31    5   29 1  
    32    5   30 1  
    33    5   31 1  
    34    6   32 1  
    35    7   33 1  
    36    7   34 1  
    37    7   35 1  
    38    8   36 1  
    39    9   37 1  
    40    9   38 1  
    41    9   39 1  
    42   12   40 1  
    43   14   41 1  
    44   14   42 1  
    45   14   43 1  
    46   17   44 1  
    47   21   45 1  
    48   23   46 1  
    49   23   47 1  
    50   28   48 1  
@<TRIPOS>SUBSTRUCTURE
     1 BMF         1

