### 
### Created by X-TOOL on Mon Sep 10 21:13:29 2018
### 

@<TRIPOS>MOLECULE
5igm_ligand
   49    51     1     0     0
SMALL
GAST_HUCK


@<TRIPOS>ATOM
      1 C10        61.9130   -4.0930   25.5870 C.ar      1 BMF         0.0076
      2 N12        59.7230   -3.2590   25.2020 N.ar      1 BMF        -0.1662
      3 C15        58.6260   -5.7910   25.5220 C.ar      1 BMF         0.2577
      4 C17        58.5550   -8.1630   25.9280 C.2       1 BMF         0.4088
      5 C20        57.3410  -11.5750   26.3330 C.3       1 BMF        -0.0372
      6 C22        60.0050   -5.5900   25.6710 C.ar      1 BMF         0.1020
      7 C26        57.6490   -1.1580   24.5460 C.3       1 BMF        -0.0018
      8 C28        64.2120   -4.6730   26.0830 C.ar      1 BMF        -0.0657
      9 C01        66.0370   -3.2300   25.4520 C.3       1 BMF        -0.0317
     10 C02        64.6600   -3.4990   25.4670 C.ar      1 BMF        -0.0189
     11 C03        63.7220   -2.6340   24.9020 C.ar      1 BMF         0.0738
     12 N04        64.1300   -1.4980   24.3200 N.am      1 BMF        -0.1916
     13 S05        64.1800   -1.4340   22.6640 S.o2      1 BMF         0.0569
     14 C06        62.6510   -1.8910   21.8650 C.3       1 BMF         0.0788
     15 O07        64.5340   -0.0080   22.2100 O.2       1 BMF        -0.1502
     16 O08        65.2130   -2.4780   22.2450 O.2       1 BMF        -0.1502
     17 C09        62.3700   -2.9440   24.9370 C.ar      1 BMF        -0.0323
     18 C11        60.5300   -4.3110   25.5180 C.ar      1 BMF         0.1376
     19 N13        58.4140   -3.5230   25.1010 N.ar      1 BMF        -0.1951
     20 C14        57.8570   -4.7240   25.2440 C.ar      1 BMF         0.2582
     21 N16        57.9680   -6.9580   25.6810 N.am      1 BMF        -0.1320
     22 O18        57.7420   -9.2150   26.1700 O.3       1 BMF        -0.2484
     23 C19        58.3660  -10.4560   26.5150 C.3       1 BMF         0.0762
     24 O21        59.7800   -8.3290   25.9890 O.2       1 BMF        -0.3365
     25 N23        56.5420   -4.5900   25.0150 N.pl3     1 BMF        -0.1850
     26 N24        56.2980   -3.3090   24.7430 N.2       1 BMF        -0.1882
     27 C25        57.4540   -2.6540   24.7930 C.2       1 BMF         0.1125
     28 C27        62.8460   -4.9860   26.1310 C.ar      1 BMF        -0.0646
     29 H1         57.8011  -12.5396   26.5934 H         1 BMF         0.0255
     30 H2         57.0067  -11.5992   25.2853 H         1 BMF         0.0255
     31 H3         56.4775  -11.3916   26.9893 H         1 BMF         0.0255
     32 H4         60.6570   -6.4242   25.9035 H         1 BMF         0.1249
     33 H5         56.6788   -0.6956   24.3117 H         1 BMF         0.0445
     34 H6         58.3381   -1.0126   23.7010 H         1 BMF         0.0445
     35 H7         58.0703   -0.6893   25.4476 H         1 BMF         0.0445
     36 H8         64.9313   -5.3501   26.5294 H         1 BMF         0.0534
     37 H9         66.5758   -4.0479   25.9527 H         1 BMF         0.0379
     38 H10        66.2318   -2.2851   25.9804 H         1 BMF         0.0379
     39 H11        66.3829   -3.1462   24.4112 H         1 BMF         0.0379
     40 H12        64.3979   -0.7078   24.8712 H         1 BMF         0.2153
     41 H13        62.7723   -1.8211   20.7739 H         1 BMF         0.0487
     42 H14        61.8501   -1.2103   22.1892 H         1 BMF         0.0487
     43 H15        62.3882   -2.9233   22.1393 H         1 BMF         0.0487
     44 H16        61.6581   -2.2851   24.4530 H         1 BMF         0.0508
     45 H17        56.9706   -6.9372   25.6122 H         1 BMF         0.2982
     46 H18        59.2305  -10.6329   25.8582 H         1 BMF         0.0609
     47 H19        58.7013  -10.4253   27.5622 H         1 BMF         0.0609
     48 H20        55.8429   -5.3458   25.0444 H         1 BMF         0.2377
     49 H21        62.5140   -5.9123   26.5858 H         1 BMF         0.0534
@<TRIPOS>BOND
     1    1   17 ar 
     2   18    1 1  
     3    1   28 ar 
     4   18    2 ar 
     5   19    2 ar 
     6    3    6 ar 
     7    3   20 ar 
     8   21    3 1  
     9    4   21 am 
    10   22    4 1  
    11    4   24 2  
    12   23    5 1  
    13    6   18 ar 
    14   27    7 1  
    15    8   10 ar 
    16   28    8 ar 
    17   10    9 1  
    18   11   10 ar 
    19   11   12 1  
    20   17   11 ar 
    21   12   13 am 
    22   13   14 1  
    23   13   15 2  
    24   13   16 2  
    25   20   19 ar 
    26   19   27 1  
    27   20   25 1  
    28   22   23 1  
    29   25   26 1  
    30   26   27 2  
    31    5   29 1  
    32    5   30 1  
    33    5   31 1  
    34    6   32 1  
    35    7   33 1  
    36    7   34 1  
    37    7   35 1  
    38    8   36 1  
    39    9   37 1  
    40    9   38 1  
    41    9   39 1  
    42   12   40 1  
    43   14   41 1  
    44   14   42 1  
    45   14   43 1  
    46   17   44 1  
    47   21   45 1  
    48   23   46 1  
    49   23   47 1  
    50   25   48 1  
    51   28   49 1  
@<TRIPOS>SUBSTRUCTURE
     1 BMF         1

