### 
### Created by X-TOOL on Mon Sep 10 21:13:30 2018
### 

@<TRIPOS>MOLECULE
5ih5_ligand
   30    32     1     0     0
SMALL
GAST_HUCK


@<TRIPOS>ATOM
      1 N01       -43.6830   18.7980    2.7210 N.ar      1 AUE        -0.2350
      2 C02       -44.5490   19.8050    3.0180 C.ar      1 AUE         0.1643
      3 N03       -44.2960   21.0690    2.6860 N.ar      1 AUE        -0.2727
      4 C04       -43.1350   21.3980    1.9930 C.ar      1 AUE         0.1025
      5 C05       -42.2240   20.3800    1.6710 C.ar      1 AUE         0.1276
      6 C06       -42.5090   19.0310    2.0590 C.ar      1 AUE         0.1492
      7 N07       -42.8770   22.7290    1.6480 N.ar      1 AUE        -0.2575
      8 C08       -41.6980   23.0310    0.9900 C.ar      1 AUE         0.1479
      9 C09       -40.7680   21.9520    0.7090 C.ar      1 AUE         0.1078
     10 N10       -41.0710   20.6590    1.0250 N.ar      1 AUE        -0.2627
     11 C11       -39.5130   22.1740   -0.1130 C.ar      1 AUE         0.0048
     12 C12       -38.5520   23.2150   -0.0800 C.ar      1 AUE        -0.0516
     13 C13       -37.5090   23.2010   -1.0230 C.ar      1 AUE        -0.0598
     14 C14       -37.4850   22.1750   -2.0100 C.ar      1 AUE        -0.0470
     15 C15       -38.5030   21.1440   -2.0800 C.ar      1 AUE         0.0419
     16 C16       -39.4830   21.2120   -1.1210 C.ar      1 AUE        -0.0377
     17 N17       -41.5760   18.0470    1.7120 N.pl3     1 AUE        -0.3059
     18 N18       -45.7390   19.5630    3.7210 N.pl3     1 AUE        -0.3048
     19 N19       -41.4090   24.4150    0.6230 N.pl3     1 AUE        -0.3094
     20 CL        -38.8100   19.7350   -3.1780 Cl        1 AUE        -0.0705
     21 H1        -38.6196   24.0064    0.6576 H         1 AUE         0.0632
     22 H2        -36.7351   23.9597   -0.9989 H         1 AUE         0.0620
     23 H3        -36.6783   22.1640   -2.7340 H         1 AUE         0.0630
     24 H4        -40.2783   20.4760   -1.1494 H         1 AUE         0.0637
     25 H5        -40.7140   18.3080    1.2122 H         1 AUE         0.1887
     26 H6        -41.7514   17.0619    1.9565 H         1 AUE         0.1887
     27 H7        -45.9845   18.6033    4.0030 H         1 AUE         0.1850
     28 H8        -46.3670   20.3451    3.9551 H         1 AUE         0.1850
     29 H9        -40.5329   24.6457    0.1330 H         1 AUE         0.1846
     30 H10       -42.0814   25.1602    0.8542 H         1 AUE         0.1846
@<TRIPOS>BOND
     1    1    2 ar 
     2    1    6 ar 
     3    2    3 ar 
     4    2   18 1  
     5    3    4 ar 
     6    4    5 ar 
     7    4    7 ar 
     8    5    6 ar 
     9    5   10 ar 
    10    6   17 1  
    11    7    8 ar 
    12    8    9 ar 
    13    8   19 1  
    14    9   10 ar 
    15    9   11 1  
    16   11   12 ar 
    17   11   16 ar 
    18   12   13 ar 
    19   13   14 ar 
    20   14   15 ar 
    21   15   16 ar 
    22   15   20 1  
    23   12   21 1  
    24   13   22 1  
    25   14   23 1  
    26   16   24 1  
    27   17   25 1  
    28   17   26 1  
    29   18   27 1  
    30   18   28 1  
    31   19   29 1  
    32   19   30 1  
@<TRIPOS>SUBSTRUCTURE
     1 AUE         1

