### 
### Created by X-TOOL on Mon Sep 10 21:13:30 2018
### 

@<TRIPOS>MOLECULE
5ih6_ligand
   30    32     1     0     0
SMALL
GAST_HUCK


@<TRIPOS>ATOM
      1 N01       -44.5580   19.0190    3.0450 N.ar      1 AUG        -0.2350
      2 C02       -45.2920   20.1280    3.3250 C.ar      1 AUG         0.1643
      3 N03       -44.9450   21.3390    2.9510 N.ar      1 AUG        -0.2727
      4 C04       -43.7810   21.4710    2.2360 C.ar      1 AUG         0.1025
      5 C05       -42.9920   20.3780    1.9310 C.ar      1 AUG         0.1275
      6 C06       -43.3950   19.1020    2.3430 C.ar      1 AUG         0.1492
      7 N07       -43.4380   22.7320    1.8430 N.ar      1 AUG        -0.2575
      8 C08       -42.2690   22.8410    1.1400 C.ar      1 AUG         0.1479
      9 C09       -41.4530   21.7040    0.8790 C.ar      1 AUG         0.1085
     10 N10       -41.8640   20.4810    1.2110 N.ar      1 AUG        -0.2626
     11 C11       -40.2700   21.8650    0.0090 C.ar      1 AUG         0.0071
     12 C12       -39.3690   22.9120    0.0570 C.ar      1 AUG        -0.0490
     13 C13       -38.3630   23.0290   -0.9110 C.ar      1 AUG        -0.0576
     14 C14       -38.3240   22.1080   -1.9910 C.ar      1 AUG        -0.0513
     15 C15       -39.3300   21.0770   -2.0930 C.ar      1 AUG         0.0146
     16 C16       -40.2860   20.9890   -1.0950 C.ar      1 AUG        -0.0419
     17 N17       -42.5020   18.0450    1.9830 N.pl3     1 AUG        -0.3059
     18 N18       -46.5190   20.0970    4.0720 N.pl3     1 AUG        -0.3048
     19 N19       -41.8290   24.1510    0.7380 N.pl3     1 AUG        -0.3094
     20 BR        -39.5140   19.6830   -3.5100 Br        1 AUG        -0.0496
     21 H1        -39.4413   23.6481    0.8495 H         1 AUG         0.0654
     22 H2        -37.6210   23.8157   -0.8361 H         1 AUG         0.0627
     23 H3        -37.5409   22.1786   -2.7372 H         1 AUG         0.0650
     24 H4        -41.0601   20.2333   -1.1641 H         1 AUG         0.0660
     25 H5        -41.6488   18.2526    1.4446 H         1 AUG         0.1887
     26 H6        -42.7119   17.0760    2.2621 H         1 AUG         0.1887
     27 H7        -46.8891   19.2000    4.4175 H         1 AUG         0.1850
     28 H8        -47.0285   20.9718    4.2620 H         1 AUG         0.1850
     29 H9        -40.9525   24.2598    0.2080 H         1 AUG         0.1846
     30 H10       -42.3906   24.9798    0.9803 H         1 AUG         0.1846
@<TRIPOS>BOND
     1    1    2 ar 
     2    1    6 ar 
     3    2    3 ar 
     4    2   18 1  
     5    3    4 ar 
     6    4    5 ar 
     7    4    7 ar 
     8    5    6 ar 
     9    5   10 ar 
    10    6   17 1  
    11    7    8 ar 
    12    8    9 ar 
    13    8   19 1  
    14    9   10 ar 
    15    9   11 1  
    16   11   12 ar 
    17   11   16 ar 
    18   12   13 ar 
    19   13   14 ar 
    20   14   15 ar 
    21   15   16 ar 
    22   15   20 1  
    23   12   21 1  
    24   13   22 1  
    25   14   23 1  
    26   16   24 1  
    27   17   25 1  
    28   17   26 1  
    29   18   27 1  
    30   18   28 1  
    31   19   29 1  
    32   19   30 1  
@<TRIPOS>SUBSTRUCTURE
     1 AUG         1

