### 
### Created by X-TOOL on Mon Sep 10 21:13:27 2018
### 

@<TRIPOS>MOLECULE
5ih8_ligand
   44    47     1     0     0
SMALL
GAST_HUCK


@<TRIPOS>ATOM
      1 C1         -4.0610   -8.0980    2.3020 C.2       1 6BJ         0.0141
      2 C2         -3.2730   -8.9690    1.6100 C.2       1 6BJ         0.0848
      3 C3         -3.9930   -6.8740    1.5920 C.2       1 6BJ         0.0119
      4 O1          1.6090  -10.8450   -3.5030 O.2       1 6BJ        -0.3877
      5 C11        -0.2720   -9.6540   -2.6460 C.ar      1 6BJ         0.0432
      6 C12        -1.0960   -8.5080   -2.8170 C.ar      1 6BJ        -0.0453
      7 C13        -0.2710  -10.3080   -1.3830 C.ar      1 6BJ        -0.0453
      8 C14        -1.9450   -8.0600   -1.7820 C.ar      1 6BJ        -0.0185
      9 C15         0.6660  -10.0890   -3.7500 C.2       1 6BJ         0.2020
     10 C16         1.2460   -9.8230   -6.1670 C.3       1 6BJ         0.0791
     11 C17         0.9150  -11.1020   -6.9280 C.ar      1 6BJ         0.0501
     12 C18         0.5820  -12.3070   -6.2600 C.ar      1 6BJ        -0.0304
     13 C19         0.2910  -13.4510   -7.0400 C.ar      1 6BJ        -0.0488
     14 C20         0.3640  -13.3510   -8.4470 C.ar      1 6BJ        -0.0410
     15 C21         0.7030  -12.1120   -9.0380 C.ar      1 6BJ         0.0028
     16 N1         -2.7740   -8.2660    0.5330 N.pl3     1 6BJ        -0.1534
     17 N2         -3.2230   -6.9870    0.5330 N.2       1 6BJ        -0.1971
     18 C4         -6.1480   -7.6080    5.4140 C.ar      1 6BJ         0.0033
     19 N3         -6.2070   -8.8580    5.9240 N.ar      1 6BJ        -0.3062
     20 C5         -5.5730   -9.8640    5.2820 C.ar      1 6BJ         0.0033
     21 C6         -4.8440   -9.6700    4.0890 C.ar      1 6BJ        -0.0357
     22 C7         -4.8040   -8.3600    3.5360 C.ar      1 6BJ        -0.0159
     23 C8         -5.4460   -7.3060    4.2290 C.ar      1 6BJ        -0.0357
     24 C9         -1.9540   -8.7330   -0.5290 C.ar      1 6BJ         0.1195
     25 C10        -1.0920   -9.8420   -0.3270 C.ar      1 6BJ        -0.0185
     26 N4          0.4440   -9.5930   -4.9770 N.am      1 6BJ        -0.2734
     27 N5          0.9810  -11.0110   -8.2940 N.ar      1 6BJ        -0.2960
     28 H1         -3.0767  -10.0111    1.8578 H         1 6BJ         0.1084
     29 H2         -4.5098   -5.9612    1.8847 H         1 6BJ         0.0698
     30 H3         -1.0719   -7.9695   -3.7575 H         1 6BJ         0.0653
     31 H4          0.3647  -11.1721   -1.2269 H         1 6BJ         0.0653
     32 H5         -2.5898   -7.2035   -1.9421 H         1 6BJ         0.0604
     33 H6          1.0979   -8.9722   -6.8483 H         1 6BJ         0.0713
     34 H7          2.3021   -9.8700   -5.8632 H         1 6BJ         0.0713
     35 H8          0.5510  -12.3510   -5.1773 H         1 6BJ         0.0652
     36 H9          0.0171  -14.3869   -6.5665 H         1 6BJ         0.0719
     37 H10         0.1620  -14.2162   -9.0681 H         1 6BJ         0.0652
     38 H11         0.7421  -12.0390  -10.1188 H         1 6BJ         0.0803
     39 H12        -6.6597   -6.8072    5.9356 H         1 6BJ         0.0802
     40 H13        -5.6266  -10.8623    5.7010 H         1 6BJ         0.0802
     41 H14        -4.3300  -10.4946    3.6086 H         1 6BJ         0.0663
     42 H15        -5.3990   -6.2889    3.8569 H         1 6BJ         0.0663
     43 H16        -1.0617  -10.3340    0.6384 H         1 6BJ         0.0604
     44 H17        -0.3568   -9.0036   -5.0837 H         1 6BJ         0.1873
@<TRIPOS>BOND
     1    1    2 2  
     2    1    3 1  
     3   22    1 1  
     4    2   16 1  
     5    3   17 2  
     6    9    4 2  
     7    6    5 ar 
     8    5    7 ar 
     9    5    9 1  
    10    8    6 ar 
    11    7   25 ar 
    12   24    8 ar 
    13    9   26 am 
    14   10   11 1  
    15   26   10 1  
    16   11   12 ar 
    17   11   27 ar 
    18   12   13 ar 
    19   13   14 ar 
    20   15   14 ar 
    21   27   15 ar 
    22   17   16 1  
    23   16   24 1  
    24   19   18 ar 
    25   18   23 ar 
    26   20   19 ar 
    27   21   20 ar 
    28   21   22 ar 
    29   22   23 ar 
    30   24   25 ar 
    31    2   28 1  
    32    3   29 1  
    33    6   30 1  
    34    7   31 1  
    35    8   32 1  
    36   10   33 1  
    37   10   34 1  
    38   12   35 1  
    39   13   36 1  
    40   14   37 1  
    41   15   38 1  
    42   18   39 1  
    43   20   40 1  
    44   21   41 1  
    45   23   42 1  
    46   25   43 1  
    47   26   44 1  
@<TRIPOS>SUBSTRUCTURE
     1 6BJ         1

