### 
### Created by X-TOOL on Mon Sep 10 21:13:27 2018
### 

@<TRIPOS>MOLECULE
5ih9_ligand
   66    70     1     0     0
SMALL
GAST_HUCK


@<TRIPOS>ATOM
      1 C1         -6.9620   -7.6010    5.2340 C.ar      1 6BF        -0.0079
      2 C2         -6.3180   -9.8300    5.4020 C.ar      1 6BF         0.0325
      3 C3         -5.6190   -9.8010    4.1660 C.ar      1 6BF         0.1197
      4 O1         -4.9260  -10.8770    3.6280 O.3       1 6BF        -0.3114
      5 C11        -2.2590   -9.0320   -3.0950 C.ar      1 6BF        -0.0466
      6 C12        -1.5800  -10.2780   -2.9760 C.ar      1 6BF         0.0352
      7 C13        -1.6690  -10.9800   -1.7370 C.ar      1 6BF        -0.0466
      8 C14        -2.3970  -10.4010   -0.6710 C.ar      1 6BF        -0.0352
      9 C15         0.1540  -11.8250   -3.9960 C.3       1 6BF         0.0659
     10 C16         0.3550  -12.5380   -5.3630 C.3       1 6BF        -0.0121
     11 C17        -0.3180  -10.5130   -6.5380 C.3       1 6BF        -0.0121
     12 C18        -0.6070   -9.8100   -5.1990 C.3       1 6BF         0.0659
     13 C19         0.8660  -12.2140   -7.6640 C.3       1 6BF        -0.0430
     14 C20        -3.1110  -14.0660    4.4870 C.3       1 6BF        -0.0071
     15 C21        -1.9320  -14.8570    3.8660 C.3       1 6BF        -0.0333
     16 C22        -1.0130  -12.7950    2.8280 C.3       1 6BF        -0.0333
     17 C23        -2.1170  -11.9400    3.4990 C.3       1 6BF        -0.0071
     18 C24        -3.4190  -12.7580    3.7000 C.3       1 6BF        -0.0034
     19 C25        -4.5120  -11.9810    4.4490 C.3       1 6BF         0.0750
     20 N1         -6.9320   -8.7500    5.9340 N.ar      1 6BF        -0.3164
     21 C4         -5.6610   -8.5830    3.4230 C.ar      1 6BF         0.0144
     22 C5         -6.3150   -7.4580    4.0070 C.ar      1 6BF        -0.0436
     23 C6         -4.3450   -9.3200    1.3360 C.2       1 6BF         0.0765
     24 C7         -4.9680   -8.3900    2.1380 C.2       1 6BF         0.0079
     25 C8         -4.8480   -7.1550    1.4350 C.2       1 6BF         0.0075
     26 N2         -4.1680   -7.3220    0.3090 N.2       1 6BF        -0.2026
     27 N3         -3.8200   -8.6320    0.2680 N.pl3     1 6BF        -0.1659
     28 C9         -3.0730   -9.1590   -0.8130 C.ar      1 6BF         0.1019
     29 C10        -2.9870   -8.4590   -2.0350 C.ar      1 6BF        -0.0352
     30 N4         -0.8670  -10.7670   -4.1070 N.pl3     1 6BF        -0.3016
     31 N5          0.7240  -11.5370   -6.3850 N.4       1 6BF         0.2358
     32 N6         -0.7500  -14.0140    3.6120 N.4       1 6BF         0.2270
     33 H1         -7.5085   -6.7567    5.6383 H         1 6BF         0.0710
     34 H2         -6.3612  -10.7663    5.9465 H         1 6BF         0.0721
     35 H3         -2.2135   -8.5032   -4.0402 H         1 6BF         0.0503
     36 H4         -1.1860  -11.9427   -1.6143 H         1 6BF         0.0503
     37 H5         -2.4404  -10.9190    0.2803 H         1 6BF         0.0562
     38 H6          1.1068  -11.3759   -3.6791 H         1 6BF         0.0565
     39 H7         -0.1703  -12.5631   -3.2477 H         1 6BF         0.0565
     40 H8         -0.5796  -13.0373   -5.6582 H         1 6BF         0.0834
     41 H9          1.1575  -13.2850   -5.2736 H         1 6BF         0.0834
     42 H10         0.0186   -9.7650   -7.2709 H         1 6BF         0.0834
     43 H11        -1.2406  -10.9909   -6.8991 H         1 6BF         0.0834
     44 H12        -1.4898   -9.1654   -5.3216 H         1 6BF         0.0565
     45 H13         0.2628   -9.1932   -4.9287 H         1 6BF         0.0565
     46 H14         1.6415  -12.9900   -7.5839 H         1 6BF         0.0778
     47 H15         1.1555  -11.4846   -8.4348 H         1 6BF         0.0778
     48 H16        -0.0914  -12.6796   -7.9408 H         1 6BF         0.0778
     49 H17        -2.8548  -13.8037    5.5241 H         1 6BF         0.0320
     50 H18        -4.0077  -14.7030    4.4807 H         1 6BF         0.0320
     51 H19        -2.2645  -15.2926    2.9122 H         1 6BF         0.0814
     52 H20        -1.6466  -15.6633    4.5577 H         1 6BF         0.0814
     53 H21        -0.0886  -12.2027    2.7605 H         1 6BF         0.0814
     54 H22        -1.3409  -13.0795    1.8173 H         1 6BF         0.0814
     55 H23        -2.3348  -11.0710    2.8607 H         1 6BF         0.0320
     56 H24        -1.7564  -11.5941    4.4789 H         1 6BF         0.0320
     57 H25        -3.8075  -13.0250    2.7062 H         1 6BF         0.0331
     58 H26        -5.3699  -12.6413    4.6441 H         1 6BF         0.0619
     59 H27        -4.1136  -11.6057    5.4032 H         1 6BF         0.0619
     60 H28        -6.3091   -6.4994    3.5010 H         1 6BF         0.0629
     61 H29        -4.2807  -10.3925    1.5134 H         1 6BF         0.1034
     62 H30        -5.2583   -6.2056    1.7760 H         1 6BF         0.0678
     63 H31        -3.4727   -7.4974   -2.1555 H         1 6BF         0.0562
     64 H32         1.5934  -11.0981   -6.1252 H         1 6BF         0.2032
     65 H33        -0.0725  -14.5677    3.1116 H         1 6BF         0.2013
     66 H34        -0.3662  -13.7369    4.5019 H         1 6BF         0.2013
@<TRIPOS>BOND
     1    1   20 ar 
     2   22    1 ar 
     3    3    2 ar 
     4    2   20 ar 
     5    3    4 1  
     6   21    3 ar 
     7    4   19 1  
     8    6    5 ar 
     9    5   29 ar 
    10    7    6 ar 
    11    6   30 1  
    12    8    7 ar 
    13   28    8 ar 
    14    9   10 1  
    15   30    9 1  
    16   10   31 1  
    17   12   11 1  
    18   11   31 1  
    19   30   12 1  
    20   31   13 1  
    21   14   15 1  
    22   18   14 1  
    23   15   32 1  
    24   17   16 1  
    25   16   32 1  
    26   18   17 1  
    27   19   18 1  
    28   21   22 ar 
    29   24   21 1  
    30   23   24 2  
    31   27   23 1  
    32   25   24 1  
    33   26   25 2  
    34   27   26 1  
    35   27   28 1  
    36   28   29 ar 
    37    1   33 1  
    38    2   34 1  
    39    5   35 1  
    40    7   36 1  
    41    8   37 1  
    42    9   38 1  
    43    9   39 1  
    44   10   40 1  
    45   10   41 1  
    46   11   42 1  
    47   11   43 1  
    48   12   44 1  
    49   12   45 1  
    50   13   46 1  
    51   13   47 1  
    52   13   48 1  
    53   14   49 1  
    54   14   50 1  
    55   15   51 1  
    56   15   52 1  
    57   16   53 1  
    58   16   54 1  
    59   17   55 1  
    60   17   56 1  
    61   18   57 1  
    62   19   58 1  
    63   19   59 1  
    64   22   60 1  
    65   23   61 1  
    66   25   62 1  
    67   29   63 1  
    68   31   64 1  
    69   32   65 1  
    70   32   66 1  
@<TRIPOS>SUBSTRUCTURE
     1 6BF         1

