### 
### Created by X-TOOL on Mon Sep 10 21:13:27 2018
### 

@<TRIPOS>MOLECULE
5iha_ligand
   59    62     1     0     0
SMALL
GAST_HUCK


@<TRIPOS>ATOM
      1 C1         -6.8900   -7.6560    5.1300 C.ar      1 6BE        -0.0079
      2 C2         -6.0550   -9.8120    5.3410 C.ar      1 6BE         0.0325
      3 C3         -5.3280   -9.7230    4.1170 C.ar      1 6BE         0.1197
      4 O1         -4.5140  -10.7320    3.6350 O.3       1 6BE        -0.3114
      5 C11        -1.7880   -8.8950   -3.0410 C.ar      1 6BE        -0.0466
      6 C12        -0.8900   -9.9810   -2.8330 C.ar      1 6BE         0.0352
      7 C13        -0.8630  -10.5740   -1.5350 C.ar      1 6BE        -0.0466
      8 C14        -1.6700  -10.0550   -0.4870 C.ar      1 6BE        -0.0352
      9 C15         1.3850  -10.5260   -3.6050 C.3       1 6BE         0.0659
     10 C16         2.2710  -10.9710   -4.8050 C.3       1 6BE        -0.0121
     11 C17         0.4780  -10.7420   -6.3600 C.3       1 6BE        -0.0121
     12 C18        -0.4890  -10.2020   -5.2820 C.3       1 6BE         0.0659
     13 C19         2.7430  -10.4980   -7.1380 C.3       1 6BE        -0.0430
     14 C20        -4.0960  -11.8270    4.4690 C.3       1 6BE         0.0742
     15 C21        -3.0080  -12.6520    3.7630 C.3       1 6BE        -0.0186
     16 C22        -3.6110  -13.5010    2.6340 C.3       1 6BE        -0.0602
     17 C23        -1.8050  -11.8230    3.2670 C.3       1 6BE        -0.0602
     18 N1         -6.8030   -8.8070    5.8360 N.ar      1 6BE        -0.3164
     19 C4         -5.4350   -8.5070    3.3690 C.ar      1 6BE         0.0144
     20 C5         -6.2090   -7.4500    3.9200 C.ar      1 6BE        -0.0436
     21 C6         -4.6970   -8.2720    2.1050 C.2       1 6BE         0.0079
     22 C7         -3.9930   -9.1620    1.3440 C.2       1 6BE         0.0765
     23 N2         -3.4270   -8.4780    0.2980 N.pl3     1 6BE        -0.1659
     24 N3         -3.7810   -7.1660    0.3570 N.2       1 6BE        -0.2026
     25 C8         -4.5260   -7.0310    1.4350 C.2       1 6BE         0.0075
     26 C9         -2.5680   -8.9790   -0.7200 C.ar      1 6BE         0.1019
     27 C10        -2.6030   -8.4000   -2.0070 C.ar      1 6BE        -0.0352
     28 N4         -0.0740  -10.4870   -3.8860 N.pl3     1 6BE        -0.3016
     29 N5          1.8280  -10.2780   -6.0260 N.4       1 6BE         0.2358
     30 H1         -7.5133   -6.8575    5.5160 H         1 6BE         0.0710
     31 H2         -6.0028  -10.7376    5.9027 H         1 6BE         0.0721
     32 H3         -1.8448   -8.4379   -4.0223 H         1 6BE         0.0503
     33 H4         -0.2215  -11.4274   -1.3472 H         1 6BE         0.0503
     34 H5         -1.5995  -10.4864    0.5050 H         1 6BE         0.0562
     35 H6          1.7018   -9.5172   -3.3017 H         1 6BE         0.0565
     36 H7          1.5547  -11.2285   -2.7757 H         1 6BE         0.0565
     37 H8          2.1780  -12.0579   -4.9462 H         1 6BE         0.0834
     38 H9          3.3212  -10.7164   -4.5996 H         1 6BE         0.0834
     39 H10         0.1857  -10.3606   -7.3495 H         1 6BE         0.0834
     40 H11         0.4521  -11.8416   -6.3686 H         1 6BE         0.0834
     41 H12        -1.4766  -10.6576   -5.4468 H         1 6BE         0.0565
     42 H13        -0.5636   -9.1112   -5.4025 H         1 6BE         0.0565
     43 H14         3.7468  -10.1422   -6.8627 H         1 6BE         0.0778
     44 H15         2.3874   -9.9456   -8.0203 H         1 6BE         0.0778
     45 H16         2.7858  -11.5723   -7.3707 H         1 6BE         0.0778
     46 H17        -4.9610  -12.4729    4.6801 H         1 6BE         0.0619
     47 H18        -3.6950  -11.4309    5.4136 H         1 6BE         0.0619
     48 H19        -2.6120  -13.3514    4.5139 H         1 6BE         0.0322
     49 H20        -2.8140  -14.0807    2.1455 H         1 6BE         0.0233
     50 H21        -4.0902  -12.8417    1.8953 H         1 6BE         0.0233
     51 H22        -4.3606  -14.1887    3.0526 H         1 6BE         0.0233
     52 H23        -1.4003  -11.2295    4.1001 H         1 6BE         0.0233
     53 H24        -2.1314  -11.1490    2.4613 H         1 6BE         0.0233
     54 H25        -1.0256  -12.4994    2.8862 H         1 6BE         0.0233
     55 H26        -6.2728   -6.4949    3.4113 H         1 6BE         0.0629
     56 H27        -3.8976  -10.2299    1.5348 H         1 6BE         0.1034
     57 H28        -4.9560   -6.0882    1.7699 H         1 6BE         0.0678
     58 H29        -3.2656   -7.5642   -2.2006 H         1 6BE         0.0562
     59 H30         1.7941   -9.2880   -5.8393 H         1 6BE         0.2032
@<TRIPOS>BOND
     1    1   18 ar 
     2   20    1 ar 
     3    3    2 ar 
     4    2   18 ar 
     5    3    4 1  
     6   19    3 ar 
     7    4   14 1  
     8    6    5 ar 
     9    5   27 ar 
    10    7    6 ar 
    11    6   28 1  
    12    8    7 ar 
    13   26    8 ar 
    14    9   10 1  
    15   28    9 1  
    16   10   29 1  
    17   12   11 1  
    18   11   29 1  
    19   28   12 1  
    20   29   13 1  
    21   14   15 1  
    22   15   16 1  
    23   15   17 1  
    24   19   20 ar 
    25   21   19 1  
    26   22   21 2  
    27   21   25 1  
    28   23   22 1  
    29   23   24 1  
    30   23   26 1  
    31   24   25 2  
    32   26   27 ar 
    33    1   30 1  
    34    2   31 1  
    35    5   32 1  
    36    7   33 1  
    37    8   34 1  
    38    9   35 1  
    39    9   36 1  
    40   10   37 1  
    41   10   38 1  
    42   11   39 1  
    43   11   40 1  
    44   12   41 1  
    45   12   42 1  
    46   13   43 1  
    47   13   44 1  
    48   13   45 1  
    49   14   46 1  
    50   14   47 1  
    51   15   48 1  
    52   16   49 1  
    53   16   50 1  
    54   16   51 1  
    55   17   52 1  
    56   17   53 1  
    57   17   54 1  
    58   20   55 1  
    59   22   56 1  
    60   25   57 1  
    61   27   58 1  
    62   29   59 1  
@<TRIPOS>SUBSTRUCTURE
     1 6BE         1

