### 
### Created by X-TOOL on Mon Sep 10 21:13:27 2018
### 

@<TRIPOS>MOLECULE
5ihc_ligand
   48    51     1     0     0
SMALL
GAST_HUCK


@<TRIPOS>ATOM
      1 C1         -4.8560   -8.2640    2.0590 C.2       1 6BB         0.0090
      2 C2         -5.6480   -8.4220    3.3010 C.ar      1 6BB         0.0148
      3 C3         -6.3840   -7.3020    3.7700 C.ar      1 6BB        -0.0434
      4 O1         -4.9480  -10.7160    3.6470 O.3       1 6BB        -0.3113
      5 C11        -2.4670  -14.9960    4.0590 C.3       1 6BB        -0.0333
      6 C12        -3.5130  -14.0450    4.6880 C.3       1 6BB        -0.0071
      7 C13        -4.7380   -7.1070    1.2490 C.2       1 6BB         0.0086
      8 C14        -4.0270   -9.1760    1.4720 C.2       1 6BB         0.0786
      9 C15        -2.5550   -9.1320   -0.5940 C.ar      1 6BB         0.1479
     10 C16        -1.5490  -10.0680   -0.2220 C.ar      1 6BB         0.1691
     11 C17        -0.6960  -10.6410   -1.1940 C.ar      1 6BB        -0.0312
     12 C18        -0.7950  -10.2420   -2.5470 C.ar      1 6BB        -0.0700
     13 C19        -1.7740   -9.2960   -2.9260 C.ar      1 6BB        -0.0692
     14 C20        -2.6400   -8.7360   -1.9580 C.ar      1 6BB        -0.0258
     15 C4         -7.1200   -7.4130    4.9590 C.ar      1 6BB        -0.0078
     16 N1         -7.1620   -8.5360    5.6990 N.ar      1 6BB        -0.3163
     17 C5         -6.4630   -9.6070    5.2740 C.ar      1 6BB         0.0326
     18 C6         -5.6620   -9.6130    4.0900 C.ar      1 6BB         0.1198
     19 C7         -4.6330  -11.7890    4.5410 C.3       1 6BB         0.0750
     20 C8         -3.6940  -12.7680    3.8320 C.3       1 6BB        -0.0034
     21 C9         -2.3180  -12.1170    3.5260 C.3       1 6BB        -0.0071
     22 C10        -1.2940  -13.1330    2.9650 C.3       1 6BB        -0.0333
     23 N2         -1.1950  -14.2910    3.8660 N.4       1 6BB         0.2270
     24 N3         -3.9370   -7.3210    0.2180 N.2       1 6BB        -0.2006
     25 N4         -3.4650   -8.5850    0.3590 N.pl3     1 6BB        -0.1580
     26 F1         -1.4080  -10.4790    1.0580 F         1 6BB        -0.1850
     27 H1         -6.3772   -6.3709    3.2150 H         1 6BB         0.0630
     28 H2         -2.8371  -15.3512    3.0860 H         1 6BB         0.0814
     29 H3         -2.3087  -15.8554    4.7271 H         1 6BB         0.0814
     30 H4         -3.1768  -13.7573    5.6951 H         1 6BB         0.0320
     31 H5         -4.4775  -14.5690    4.7592 H         1 6BB         0.0320
     32 H6         -5.2421   -6.1628    1.4496 H         1 6BB         0.0683
     33 H7         -3.8419  -10.1909    1.8207 H         1 6BB         0.1042
     34 H8          0.0343  -11.3867   -0.9014 H         1 6BB         0.0587
     35 H9         -0.1239  -10.6593   -3.2890 H         1 6BB         0.0552
     36 H10        -1.8618   -8.9978   -3.9645 H         1 6BB         0.0567
     37 H11        -3.3753   -7.9982   -2.2581 H         1 6BB         0.0580
     38 H12        -7.6830   -6.5511    5.2986 H         1 6BB         0.0710
     39 H13        -6.5109  -10.5155    5.8634 H         1 6BB         0.0722
     40 H14        -5.5571  -12.3097    4.8325 H         1 6BB         0.0619
     41 H15        -4.1390  -11.3885    5.4385 H         1 6BB         0.0619
     42 H16        -4.1559  -13.0546    2.8757 H         1 6BB         0.0331
     43 H17        -1.9161  -11.6878    4.4556 H         1 6BB         0.0320
     44 H18        -2.4631  -11.3168    2.7853 H         1 6BB         0.0320
     45 H19        -0.3091  -12.6503    2.8815 H         1 6BB         0.0814
     46 H20        -1.6222  -13.4710    1.9710 H         1 6BB         0.0814
     47 H21        -0.5269  -14.9392    3.4794 H         1 6BB         0.2013
     48 H22        -0.8698  -13.9689    4.7641 H         1 6BB         0.2013
@<TRIPOS>BOND
     1    2    1 1  
     2    1    7 1  
     3    1    8 2  
     4    2    3 ar 
     5   18    2 ar 
     6    3   15 ar 
     7    4   18 1  
     8   19    4 1  
     9    6    5 1  
    10    5   23 1  
    11   20    6 1  
    12    7   24 2  
    13    8   25 1  
    14    9   10 ar 
    15    9   14 ar 
    16   25    9 1  
    17   10   11 ar 
    18   10   26 1  
    19   11   12 ar 
    20   13   12 ar 
    21   14   13 ar 
    22   16   15 ar 
    23   17   16 ar 
    24   18   17 ar 
    25   19   20 1  
    26   20   21 1  
    27   21   22 1  
    28   22   23 1  
    29   24   25 1  
    30    3   27 1  
    31    5   28 1  
    32    5   29 1  
    33    6   30 1  
    34    6   31 1  
    35    7   32 1  
    36    8   33 1  
    37   11   34 1  
    38   12   35 1  
    39   13   36 1  
    40   14   37 1  
    41   15   38 1  
    42   17   39 1  
    43   19   40 1  
    44   19   41 1  
    45   20   42 1  
    46   21   43 1  
    47   21   44 1  
    48   22   45 1  
    49   22   46 1  
    50   23   47 1  
    51   23   48 1  
@<TRIPOS>SUBSTRUCTURE
     1 6BB         1

