### 
### Created by X-TOOL on Mon Sep 10 21:13:26 2018
### 

@<TRIPOS>MOLECULE
5ihh_ligand
   34    36     1     0     0
SMALL
GAST_HUCK


@<TRIPOS>ATOM
      1 C10        21.7960  -10.0760    1.1400 C.ar      1 6B5        -0.0339
      2 O01        20.0520   -3.4640   -1.1670 O.2       1 6B5        -0.4275
      3 C02        20.7990   -4.2210   -0.5900 C.2       1 6B5         0.0969
      4 C03        21.9550   -3.7030    0.2120 C.ar      1 6B5         0.0767
      5 C04        22.7840   -4.6320    0.8570 C.ar      1 6B5         0.1290
      6 O05        22.5480   -6.0040    0.7600 O.3       1 6B5        -0.2433
      7 C06        21.4260   -6.4980    0.0640 C.2       1 6B5         0.1329
      8 C07        20.6180   -5.6860   -0.6470 C.2       1 6B5         0.0024
      9 C08        21.4210   -7.9610    0.0390 C.ar      1 6B5         0.0117
     10 C09        21.7900   -8.6740    1.1660 C.ar      1 6B5        -0.0626
     11 C11        21.4330  -10.7490   -0.0230 C.ar      1 6B5         0.1233
     12 O12        21.4450  -12.1000   -0.0290 O.3       1 6B5        -0.3321
     13 C13        21.0650  -10.0240   -1.1700 C.ar      1 6B5         0.1223
     14 O14        20.7070  -10.6900   -2.3210 O.3       1 6B5        -0.3356
     15 C15        21.0620   -8.6410   -1.1380 C.ar      1 6B5        -0.0240
     16 C16        23.8670   -4.2020    1.6020 C.ar      1 6B5        -0.0031
     17 C17        24.1460   -2.8640    1.7310 C.ar      1 6B5         0.0807
     18 O18        25.2360   -2.4520    2.4800 O.3       1 6B5        -0.3232
     19 C19        25.9750   -1.3100    2.0520 C.3       1 6B5         0.0601
     20 C20        23.3520   -1.9270    1.1060 C.ar      1 6B5        -0.0084
     21 C21        22.2660   -2.3300    0.3520 C.ar      1 6B5         0.0935
     22 O22        21.4880   -1.3980   -0.2420 O.3       1 6B5        -0.3326
     23 H1         22.0827  -10.6344    2.0237 H         1 6B5         0.0530
     24 H2         19.8292   -6.1116   -1.2655 H         1 6B5         0.0375
     25 H3         22.0748   -8.1481    2.0701 H         1 6B5         0.0553
     26 H4         21.1762  -12.4141   -0.8842 H         1 6B5         0.2472
     27 H5         21.4331  -11.2288   -2.6126 H         1 6B5         0.2443
     28 H6         20.7822   -8.0803   -2.0225 H         1 6B5         0.0550
     29 H7         24.5037   -4.9308    2.0903 H         1 6B5         0.0401
     30 H8         26.8004   -1.1229    2.7547 H         1 6B5         0.0579
     31 H9         25.3114   -0.4332    2.0241 H         1 6B5         0.0579
     32 H10        26.3833   -1.4930    1.0471 H         1 6B5         0.0579
     33 H11        23.5796   -0.8719    1.2059 H         1 6B5         0.0403
     34 H12        20.7889   -1.8285   -0.7198 H         1 6B5         0.2503
@<TRIPOS>BOND
     1   10    1 ar 
     2    1   11 ar 
     3    3    2 2  
     4    3    4 1  
     5    8    3 1  
     6    5    4 ar 
     7    4   21 ar 
     8    6    5 1  
     9    5   16 ar 
    10    7    6 1  
    11    7    8 2  
    12    9    7 1  
    13    9   10 ar 
    14    9   15 ar 
    15   11   12 1  
    16   11   13 ar 
    17   13   14 1  
    18   13   15 ar 
    19   16   17 ar 
    20   17   18 1  
    21   17   20 ar 
    22   18   19 1  
    23   20   21 ar 
    24   21   22 1  
    25    1   23 1  
    26    8   24 1  
    27   10   25 1  
    28   12   26 1  
    29   14   27 1  
    30   15   28 1  
    31   16   29 1  
    32   19   30 1  
    33   19   31 1  
    34   19   32 1  
    35   20   33 1  
    36   22   34 1  
@<TRIPOS>SUBSTRUCTURE
     1 6B5         1

