### 
### Created by X-TOOL on Mon Sep 10 21:13:28 2018
### 

@<TRIPOS>MOLECULE
5ii1_ligand
   23    25     1     0     0
SMALL
GAST_HUCK


@<TRIPOS>ATOM
      1 CAN        34.6920   27.4140    1.5210 C.3       1 6BL        -0.0288
      2 CAL        35.8750   26.6190    0.9720 C.2       1 6BL         0.0077
      3 CAI        36.2620   25.3120    1.2710 C.2       1 6BL         0.0467
      4 CAF        35.8250   24.2570    2.1120 C.ar      1 6BL        -0.0200
      5 CAD        34.6740   24.3730    2.9060 C.ar      1 6BL        -0.0615
      6 CAB        34.2430   23.3350    3.7230 C.ar      1 6BL        -0.0664
      7 CAA        34.9700   22.1360    3.7120 C.ar      1 6BL        -0.0645
      8 CAC        36.1080   21.9970    2.9300 C.ar      1 6BL        -0.0496
      9 CAE        36.5470   23.0450    2.1120 C.ar      1 6BL         0.0599
     10 CAH        37.6940   22.9400    1.2900 C.2       1 6BL         0.2830
     11 OAG        38.3800   21.9310    1.2120 O.2       1 6BL        -0.3646
     12 OAK        38.1160   24.0040    0.5090 O.3       1 6BL        -0.1706
     13 CAJ        37.4060   25.1690    0.4910 C.2       1 6BL         0.2556
     14 NAO        37.6190   26.3140   -0.1640 N.pl3     1 6BL        -0.1919
     15 NAM        36.7350   27.1330    0.1090 N.2       1 6BL        -0.2398
     16 H1         34.6831   28.4170    1.0694 H         1 6BL         0.0380
     17 H2         34.7863   27.5045    2.6132 H         1 6BL         0.0380
     18 H3         33.7547   26.8931    1.2757 H         1 6BL         0.0380
     19 H4         34.1064   25.2962    2.8814 H         1 6BL         0.0555
     20 H5         33.3678   23.4491    4.3523 H         1 6BL         0.0630
     21 H6         34.6380   21.3049    4.3237 H         1 6BL         0.0559
     22 H7         36.6634   21.0663    2.9528 H         1 6BL         0.0647
     23 H8         38.4067   26.4887   -0.8043 H         1 6BL         0.2515
@<TRIPOS>BOND
     1    1    2 1  
     2    2    3 1  
     3    2   15 2  
     4    3    4 1  
     5    3   13 2  
     6    4    5 ar 
     7    4    9 ar 
     8    5    6 ar 
     9    6    7 ar 
    10    7    8 ar 
    11    8    9 ar 
    12    9   10 1  
    13   10   11 2  
    14   10   12 1  
    15   12   13 1  
    16   13   14 1  
    17   14   15 1  
    18    1   16 1  
    19    1   17 1  
    20    1   18 1  
    21    5   19 1  
    22    6   20 1  
    23    7   21 1  
    24    8   22 1  
    25   14   23 1  
@<TRIPOS>SUBSTRUCTURE
     1 6BL         1

