### 
### Created by X-TOOL on Mon Sep 10 21:13:27 2018
### 

@<TRIPOS>MOLECULE
5ii2_ligand
   31    33     1     0     0
SMALL
GAST_HUCK


@<TRIPOS>ATOM
      1 C1         10.8850   -9.8260  -27.8380 C.ar      1 LU2        -0.0033
      2 O1         10.1470   -7.9540  -26.5670 O.3       1 LU2        -0.3351
      3 C2         10.2630   -8.5800  -27.7670 C.ar      1 LU2         0.0775
      4 O2          9.4050   -7.9920  -31.3400 O.3       1 LU2        -0.3326
      5 C3          9.7660   -7.9800  -28.9310 C.ar      1 LU2        -0.0086
      6 O3         10.1300  -10.0990  -32.5400 O.2       1 LU2        -0.4275
      7 C4          9.8810   -8.6110  -30.1930 C.ar      1 LU2         0.0935
      8 O4         11.6290  -11.6720  -29.1010 O.3       1 LU2        -0.2433
      9 C5         10.5040   -9.8660  -30.2680 C.ar      1 LU2         0.0767
     10 O5         12.9650  -16.6850  -32.2740 O.3       1 LU2        -0.3356
     11 C6         10.9970  -10.4650  -29.0830 C.ar      1 LU2         0.1290
     12 O6         13.8970  -17.4770  -29.8070 O.3       1 LU2        -0.3321
     13 C7         10.6270  -10.5530  -31.4950 C.2       1 LU2         0.0969
     14 C8         11.2000  -11.8290  -31.4880 C.2       1 LU2         0.0024
     15 C9         11.7190  -12.3700  -30.2910 C.2       1 LU2         0.1329
     16 C10        12.2880  -13.6640  -30.2250 C.ar      1 LU2         0.0117
     17 C11        12.3370  -14.5420  -31.3360 C.ar      1 LU2        -0.0240
     18 C12        12.8870  -15.8240  -31.2050 C.ar      1 LU2         0.1223
     19 C13        13.3690  -16.2400  -29.9530 C.ar      1 LU2         0.1233
     20 C14        13.3460  -15.3790  -28.8480 C.ar      1 LU2        -0.0339
     21 C15        12.7710  -14.1340  -28.9910 C.ar      1 LU2        -0.0626
     22 H1         11.2772  -10.2954  -26.9430 H         1 LU2         0.0401
     23 H2          9.6443   -8.4997  -25.9737 H         1 LU2         0.2494
     24 H3          9.5637   -8.5528  -32.0903 H         1 LU2         0.2503
     25 H4          9.2830   -7.0119  -28.8640 H         1 LU2         0.0403
     26 H5         13.3643  -17.5003  -31.9940 H         1 LU2         0.2443
     27 H6         14.1730  -17.5980  -28.9060 H         1 LU2         0.2472
     28 H7         11.2461  -12.4077  -32.4093 H         1 LU2         0.0375
     29 H8         11.9461  -14.2195  -32.2943 H         1 LU2         0.0550
     30 H9         13.7718  -15.6856  -27.8994 H         1 LU2         0.0530
     31 H10        12.6883  -13.4940  -28.1200 H         1 LU2         0.0553
@<TRIPOS>BOND
     1    1    3 ar 
     2   11    1 ar 
     3    3    2 1  
     4    3    5 ar 
     5    7    4 1  
     6    7    5 ar 
     7   13    6 2  
     8    9    7 ar 
     9    8   11 1  
    10   15    8 1  
    11   11    9 ar 
    12   13    9 1  
    13   18   10 1  
    14   19   12 1  
    15   14   13 1  
    16   15   14 2  
    17   16   15 1  
    18   17   16 ar 
    19   16   21 ar 
    20   18   17 ar 
    21   18   19 ar 
    22   19   20 ar 
    23   20   21 ar 
    24    1   22 1  
    25    2   23 1  
    26    4   24 1  
    27    5   25 1  
    28   10   26 1  
    29   12   27 1  
    30   14   28 1  
    31   17   29 1  
    32   20   30 1  
    33   21   31 1  
@<TRIPOS>SUBSTRUCTURE
     1 LU2         1

