### 
### Created by X-TOOL on Mon Sep 10 21:13:27 2018
### 

@<TRIPOS>MOLECULE
5iis_ligand
   50    53     1     0     0
SMALL
GAST_HUCK


@<TRIPOS>ATOM
      1 C1        -18.8000   36.0290   -4.9230 C.ar      1 6CB         0.0076
      2 C2        -18.3800   35.3890   -3.7700 C.ar      1 6CB        -0.0426
      3 C3        -17.0560   35.4990   -3.3500 C.ar      1 6CB        -0.0175
      4 C11       -18.6760   36.6000    0.4310 C.2       1 6CB         0.2473
      5 C12       -19.6870   37.6830    0.1850 C.ar      1 6CB         0.1453
      6 C13       -20.7460   38.9780   -1.4310 C.ar      1 6CB         0.0453
      7 C14       -21.3790   39.7360   -0.4510 C.ar      1 6CB        -0.0345
      8 C15       -21.1560   39.4340    0.8790 C.ar      1 6CB        -0.0182
      9 C16       -20.2980   38.3970    1.2550 C.ar      1 6CB         0.0861
     10 C17       -20.8300   39.3210   -2.8790 C.ar      1 6CB         0.0269
     11 C18       -19.7220   39.1160   -3.7110 C.ar      1 6CB        -0.0551
     12 C19       -19.7530   39.4910   -5.0450 C.ar      1 6CB        -0.0651
     13 C20       -20.8850   40.0720   -5.5780 C.ar      1 6CB        -0.0635
     14 C21       -21.9990   40.2900   -4.7860 C.ar      1 6CB        -0.0271
     15 C22       -21.9560   39.8980   -3.4660 C.ar      1 6CB         0.1418
     16 F         -23.0710   40.0690   -2.7240 F         1 6CB        -0.1815
     17 N4        -19.9240   37.9600   -1.1140 N.ar      1 6CB        -0.2852
     18 N5        -20.0510   38.1480    2.5960 N.pl3     1 6CB        -0.3259
     19 O         -18.2680   36.3470    1.5620 O.2       1 6CB        -0.3723
     20 N3        -18.2540   35.9850   -0.6980 N.am      1 6CB        -0.2228
     21 C10       -17.2480   34.9940   -0.8550 C.ar      1 6CB         0.1064
     22 C9        -16.7880   34.2170    0.2080 C.ar      1 6CB         0.0341
     23 N2        -15.7490   33.3830    0.1380 N.ar      1 6CB        -0.3117
     24 C8        -15.1170   33.3010   -1.0290 C.ar      1 6CB        -0.0034
     25 C7        -15.4910   33.9970   -2.1580 C.ar      1 6CB        -0.0378
     26 C6        -16.5910   34.8500   -2.0910 C.ar      1 6CB         0.0265
     27 C4        -16.1770   36.2460   -4.1300 C.ar      1 6CB        -0.0198
     28 C5        -16.6610   36.8690   -5.2870 C.ar      1 6CB         0.0970
     29 N         -15.8740   37.6960   -6.0250 N.pl3     1 6CB        -0.3245
     30 N1        -17.9520   36.7450   -5.6850 N.ar      1 6CB        -0.2901
     31 C         -20.2370   36.0250   -5.3420 C.3       1 6CB        -0.0199
     32 H1        -19.0832   34.8004   -3.1919 H         1 6CB         0.0525
     33 H2        -22.0376   40.5517   -0.7267 H         1 6CB         0.0709
     34 H3        -21.6568   40.0133    1.6462 H         1 6CB         0.0649
     35 H4        -18.8273   38.6574   -3.3057 H         1 6CB         0.0613
     36 H5        -18.8841   39.3271   -5.6721 H         1 6CB         0.0584
     37 H6        -20.9022   40.3594   -6.6231 H         1 6CB         0.0608
     38 H7        -22.8863   40.7591   -5.1956 H         1 6CB         0.0604
     39 H8        -19.4181   37.3829    2.8697 H         1 6CB         0.1773
     40 H9        -20.5004   38.7281    3.3188 H         1 6CB         0.1773
     41 H10       -18.7145   36.2675   -1.5395 H         1 6CB         0.2307
     42 H11       -17.3098   34.2961    1.1548 H         1 6CB         0.0715
     43 H12       -14.2552   32.6469   -1.0964 H         1 6CB         0.0693
     44 H13       -14.9383   33.8828   -3.0835 H         1 6CB         0.0683
     45 H14       -15.1353   36.3436   -3.8463 H         1 6CB         0.0536
     46 H15       -16.2502   38.1440   -6.8727 H         1 6CB         0.1762
     47 H16       -14.9015   37.8746   -5.7364 H         1 6CB         0.1762
     48 H17       -20.3469   36.5885   -6.2803 H         1 6CB         0.0416
     49 H18       -20.8488   36.4952   -4.5581 H         1 6CB         0.0416
     50 H19       -20.5713   34.9884   -5.4956 H         1 6CB         0.0416
@<TRIPOS>BOND
     1    2    1 ar 
     2    1   30 ar 
     3    1   31 1  
     4    3    2 ar 
     5   26    3 1  
     6    3   27 ar 
     7    4    5 1  
     8    4   19 2  
     9   20    4 am 
    10    5    9 ar 
    11    5   17 ar 
    12    6    7 ar 
    13    6   10 1  
    14   17    6 ar 
    15    8    7 ar 
    16    9    8 ar 
    17    9   18 1  
    18   10   11 ar 
    19   10   15 ar 
    20   11   12 ar 
    21   12   13 ar 
    22   14   13 ar 
    23   15   14 ar 
    24   15   16 1  
    25   21   20 1  
    26   21   22 ar 
    27   21   26 ar 
    28   22   23 ar 
    29   23   24 ar 
    30   24   25 ar 
    31   25   26 ar 
    32   27   28 ar 
    33   28   29 1  
    34   28   30 ar 
    35    2   32 1  
    36    7   33 1  
    37    8   34 1  
    38   11   35 1  
    39   12   36 1  
    40   13   37 1  
    41   14   38 1  
    42   18   39 1  
    43   18   40 1  
    44   20   41 1  
    45   22   42 1  
    46   24   43 1  
    47   25   44 1  
    48   27   45 1  
    49   29   46 1  
    50   29   47 1  
    51   31   48 1  
    52   31   49 1  
    53   31   50 1  
@<TRIPOS>SUBSTRUCTURE
     1 6CB         1

