### 
### Created by X-TOOL on Mon Sep 10 21:13:28 2018
### 

@<TRIPOS>MOLECULE
5ij7_ligand
   67    70     1     0     0
SMALL
GAST_HUCK


@<TRIPOS>ATOM
      1 C4         30.3620    4.4240  203.0880 C.ar      1 6BN        -0.0166
      2 C5         31.3080    4.4550  204.1370 C.ar      1 6BN         0.0576
      3 C6         31.1030    5.3240  205.2020 C.ar      1 6BN         0.0817
      4 C8         32.4930    3.5910  203.9680 C.2       1 6BN         0.2015
      5 C10        30.9950    2.0570  202.6890 C.3       1 6BN         0.0435
      6 C13        33.0550    0.1080  203.7450 C.2       1 6BN         0.0150
      7 C15        32.6630   -1.4400  205.5510 C.2       1 6BN        -0.0508
      8 C20        31.8810   -3.7930  205.0730 C.3       1 6BN         0.0056
      9 C21        33.4550    0.8820  206.1480 C.3       1 6BN        -0.0312
     10 C22        33.1680    0.5000  207.6070 C.3       1 6BN        -0.0562
     11 C26        29.1390    8.2480  206.3250 C.3       1 6BN         0.0837
     12 C28        29.1540   10.7090  205.9930 C.3       1 6BN         0.0366
     13 C1         30.0370    6.2250  205.2120 C.ar      1 6BN         0.1045
     14 C2         29.1260    6.2410  204.1700 C.ar      1 6BN        -0.0205
     15 C3         29.3020    5.3450  203.1330 C.ar      1 6BN         0.0394
     16 CL7        32.1090    5.2490  206.5980 Cl        1 6BN        -0.0746
     17 N9         32.2620    2.3790  203.3640 N.am      1 6BN        -0.2681
     18 C11        30.3940    3.3020  202.0750 C.3       1 6BN         0.0007
     19 C12        33.3660    1.4580  203.1490 C.3       1 6BN         0.0516
     20 C14        33.0580   -0.1310  205.0970 C.2       1 6BN        -0.0695
     21 C16        32.3070   -2.4180  204.6720 C.2       1 6BN         0.0687
     22 N17        32.3310   -2.1540  203.3290 N.am      1 6BN        -0.2246
     23 C18        32.6850   -0.9290  202.7820 C.2       1 6BN         0.1873
     24 O19        32.6260   -0.7730  201.5550 O.2       1 6BN        -0.4303
     25 O23        33.6080    3.9460  204.3380 O.2       1 6BN        -0.3884
     26 CL         28.1390    5.3680  201.8480 Cl        1 6BN        -0.0784
     27 O25        30.0280    7.1160  206.2460 O.3       1 6BN        -0.3172
     28 C27        29.8800    9.4130  205.7000 C.3       1 6BN        -0.0019
     29 N29        28.9260   10.8960  207.4380 N.am      1 6BN        -0.2709
     30 C30        28.2100    9.7690  208.0570 C.3       1 6BN         0.0366
     31 C31        28.9240    8.4540  207.8070 C.3       1 6BN        -0.0019
     32 C32        29.1680   11.9940  208.1930 C.2       1 6BN         0.2071
     33 C33        29.6890   13.2760  207.5650 C.3       1 6BN         0.1410
     34 C34        28.7000   13.8240  206.5600 C.3       1 6BN        -0.0214
     35 O35        29.8550   14.2270  208.6050 O.3       1 6BN        -0.3717
     36 O36        28.9820   11.9940  209.3960 O.2       1 6BN        -0.3940
     37 H1         30.2900    1.6377  203.4220 H         1 6BN         0.0545
     38 H2         31.1839    1.3172  201.8971 H         1 6BN         0.0545
     39 H3         32.6487   -1.6521  206.6191 H         1 6BN         0.0211
     40 H4         31.6497   -4.3822  204.1733 H         1 6BN         0.0478
     41 H5         30.9860   -3.7287  205.7092 H         1 6BN         0.0478
     42 H6         32.6937   -4.2804  205.6315 H         1 6BN         0.0478
     43 H7         34.5372    1.0551  206.0540 H         1 6BN         0.0415
     44 H8         32.9143    1.8157  205.9339 H         1 6BN         0.0415
     45 H9         33.4995    1.3122  208.2707 H         1 6BN         0.0252
     46 H10        33.7109   -0.4232  207.8579 H         1 6BN         0.0252
     47 H11        32.0880    0.3374  207.7378 H         1 6BN         0.0252
     48 H12        28.1858    8.0675  205.8065 H         1 6BN         0.0649
     49 H13        28.1820   10.6966  205.4782 H         1 6BN         0.0523
     50 H14        29.7577   11.5480  205.6166 H         1 6BN         0.0523
     51 H15        28.2961    6.9383  204.1676 H         1 6BN         0.0567
     52 H16        31.0015    3.6101  201.2113 H         1 6BN         0.0441
     53 H17        29.3684    3.0838  201.7427 H         1 6BN         0.0441
     54 H18        33.5374    1.3453  202.0683 H         1 6BN         0.0589
     55 H19        34.2720    1.8627  203.6237 H         1 6BN         0.0589
     56 H20        32.0773   -2.8908  202.7023 H         1 6BN         0.2510
     57 H21        29.9369    9.2660  204.6114 H         1 6BN         0.0313
     58 H22        30.8967    9.4633  206.1169 H         1 6BN         0.0313
     59 H23        27.1969    9.7123  207.6324 H         1 6BN         0.0523
     60 H24        28.1440    9.9396  209.1417 H         1 6BN         0.0523
     61 H25        29.8986    8.4676  208.3168 H         1 6BN         0.0313
     62 H26        28.3142    7.6288  208.2035 H         1 6BN         0.0313
     63 H27        30.6513   13.0834  207.0682 H         1 6BN         0.0834
     64 H28        29.0991   14.7499  206.1203 H         1 6BN         0.0279
     65 H29        27.7461   14.0389  207.0639 H         1 6BN         0.0279
     66 H30        28.5357   13.0817  205.7650 H         1 6BN         0.0279
     67 H31        30.4749   13.8925  209.2425 H         1 6BN         0.2133
@<TRIPOS>BOND
     1    2    1 ar 
     2    1   15 ar 
     3   18    1 1  
     4    2    3 ar 
     5    4    2 1  
     6    3   13 ar 
     7    3   16 1  
     8   17    4 am 
     9    4   25 2  
    10   17    5 1  
    11    5   18 1  
    12   19    6 1  
    13    6   20 2  
    14    6   23 1  
    15   20    7 1  
    16    7   21 2  
    17   21    8 1  
    18    9   10 1  
    19   20    9 1  
    20   27   11 1  
    21   11   28 1  
    22   11   31 1  
    23   28   12 1  
    24   12   29 1  
    25   13   14 ar 
    26   13   27 1  
    27   15   14 ar 
    28   15   26 1  
    29   17   19 1  
    30   21   22 1  
    31   22   23 am 
    32   23   24 2  
    33   29   30 1  
    34   29   32 am 
    35   30   31 1  
    36   32   33 1  
    37   32   36 2  
    38   33   34 1  
    39   33   35 1  
    40    5   37 1  
    41    5   38 1  
    42    7   39 1  
    43    8   40 1  
    44    8   41 1  
    45    8   42 1  
    46    9   43 1  
    47    9   44 1  
    48   10   45 1  
    49   10   46 1  
    50   10   47 1  
    51   11   48 1  
    52   12   49 1  
    53   12   50 1  
    54   14   51 1  
    55   18   52 1  
    56   18   53 1  
    57   19   54 1  
    58   19   55 1  
    59   22   56 1  
    60   28   57 1  
    61   28   58 1  
    62   30   59 1  
    63   30   60 1  
    64   31   61 1  
    65   31   62 1  
    66   33   63 1  
    67   34   64 1  
    68   34   65 1  
    69   34   66 1  
    70   35   67 1  
@<TRIPOS>SUBSTRUCTURE
     1 6BN         1

