### 
### Created by X-TOOL on Mon Sep 10 21:13:28 2018
### 

@<TRIPOS>MOLECULE
5ikb_ligand
   29    29     1     0     0
SMALL
GAST_HUCK


@<TRIPOS>ATOM
      1 N          15.7050   20.5010   62.2950 N.4       1 KAI         0.2433
      2 CD         16.7640   21.5310   62.0930 C.3       1 KAI        -0.0169
      3 CD1        18.0800   23.7940   64.8920 C.2       1 KAI        -0.1288
      4 CD2        19.3290   22.7830   63.0470 C.3       1 KAI        -0.0295
      5 CA         15.3530   20.3710   63.7090 C.3       1 KAI         0.0373
      6 CB         16.4870   21.1120   64.4140 C.3       1 KAI         0.0449
      7 CB1        17.7190   20.2170   64.6850 C.3       1 KAI         0.0124
      8 CG         16.8030   22.2320   63.4380 C.3       1 KAI         0.0446
      9 CG1        17.5820   19.1250   65.7530 C.2       1 KAI         0.0356
     10 CG2        18.0690   23.0060   63.8350 C.2       1 KAI        -0.0678
     11 C          14.0060   21.0150   63.9190 C.2       1 KAI         0.0851
     12 O          13.3950   21.4220   62.8700 O.co2     1 KAI        -0.5642
     13 OD1        16.5290   19.0680   66.4150 O.co2     1 KAI        -0.5690
     14 OD2        18.5010   18.3280   65.9200 O.co2     1 KAI        -0.5690
     15 OXT        13.6690   21.2070   65.1120 O.co2     1 KAI        -0.5642
     16 H1         16.0420   19.6130   61.9575 H         1 KAI         0.2032
     17 H2         14.8836   20.7682   61.7754 H         1 KAI         0.2032
     18 H3         16.4904   22.2297   61.2887 H         1 KAI         0.0845
     19 H4         17.7326   21.0646   61.8599 H         1 KAI         0.0845
     20 H5         18.9868   24.3351   65.1584 H         1 KAI         0.0075
     21 H6         17.1823   23.9038   65.4987 H         1 KAI         0.0075
     22 H7         20.1345   23.4089   63.4586 H         1 KAI         0.0425
     23 H8         19.1561   23.0531   61.9948 H         1 KAI         0.0425
     24 H9         19.6188   21.7238   63.1109 H         1 KAI         0.0425
     25 H10        15.3166   19.3186   64.0268 H         1 KAI         0.1031
     26 H11        16.1370   21.5226   65.3726 H         1 KAI         0.0424
     27 H12        18.5437   20.8766   64.9927 H         1 KAI         0.0438
     28 H13        17.9799   19.7208   63.7386 H         1 KAI         0.0438
     29 H14        15.9833   22.9654   63.4555 H         1 KAI         0.0554
@<TRIPOS>BOND
     1    2    1 1  
     2    5    1 1  
     3    8    2 1  
     4   10    3 2  
     5   10    4 1  
     6    6    5 1  
     7    5   11 1  
     8    6    7 1  
     9    8    6 1  
    10    7    9 1  
    11    8   10 1  
    12    9   13 ar 
    13    9   14 ar 
    14   11   12 ar 
    15   11   15 ar 
    16    1   16 1  
    17    1   17 1  
    18    2   18 1  
    19    2   19 1  
    20    3   20 1  
    21    3   21 1  
    22    4   22 1  
    23    4   23 1  
    24    4   24 1  
    25    5   25 1  
    26    6   26 1  
    27    7   27 1  
    28    7   28 1  
    29    8   29 1  
@<TRIPOS>SUBSTRUCTURE
     1 KAI         1

