### 
### Created by X-TOOL on Mon Sep 10 21:13:29 2018
### 

@<TRIPOS>MOLECULE
5ime_ligand
   55    58     1     0     0
SMALL
GAST_HUCK


@<TRIPOS>ATOM
      1 C14        19.5050  -18.8280    9.0500 C.ar      1 6BZ        -0.0156
      2 C6         22.9150  -18.6440    8.7070 C.2       1 6BZ         0.0802
      3 C11        19.7310  -17.0870   11.1980 C.ar      1 6BZ        -0.0634
      4 C7         23.9650  -18.7620    7.8570 C.2       1 6BZ         0.0064
      5 C9         20.6550  -18.0530    9.1950 C.ar      1 6BZ         0.1069
      6 C10        20.7580  -17.1890   10.2820 C.ar      1 6BZ        -0.0292
      7 C12        18.5740  -17.8570   11.0520 C.ar      1 6BZ        -0.0124
      8 C13        18.4690  -18.7290    9.9670 C.ar      1 6BZ         0.0385
      9 C3         21.6030  -17.7890    6.9780 C.2       1 6BZ         0.2737
     10 C1         22.6240  -17.5260    4.6700 C.3       1 6BZ        -0.0040
     11 C2         22.7220  -17.9260    6.1200 C.2       1 6BZ         0.1025
     12 O4         20.5560  -17.3440    6.5400 O.2       1 6BZ        -0.3838
     13 N5         21.7180  -18.1560    8.2780 N.am      1 6BZ        -0.1632
     14 N8         23.8530  -18.4030    6.5820 N.2       1 6BZ        -0.3123
     15 CL1        17.0370  -19.6890    9.7720 Cl        1 6BZ        -0.0739
     16 C16        17.4720  -17.7420   12.0430 C.2       1 6BZ         0.0479
     17 C17        17.5390  -18.4300   13.2250 C.2       1 6BZ        -0.0362
     18 C18        16.4860  -18.3040   14.1640 C.ar      1 6BZ         0.0464
     19 C19        16.5180  -18.9950   15.3850 C.ar      1 6BZ         0.0137
     20 N20        15.5160  -18.8430   16.2280 N.ar      1 6BZ        -0.2674
     21 C21        14.4880  -18.0530   15.9390 C.ar      1 6BZ         0.1754
     22 N22        14.4120  -17.3810   14.8010 N.ar      1 6BZ        -0.2359
     23 C23        15.3820  -17.4700   13.8920 C.ar      1 6BZ         0.1629
     24 N24        15.3170  -16.7780   12.7050 N.am      1 6BZ        -0.1946
     25 C25        16.3050  -16.8930   11.7850 C.2       1 6BZ         0.2269
     26 O26        16.2300  -16.2780   10.7340 O.2       1 6BZ        -0.3925
     27 C27        14.1570  -15.9220   12.4210 C.3       1 6BZ         0.0703
     28 C28        14.1710  -14.6380   13.2650 C.3       1 6BZ         0.0154
     29 C29        15.5530  -13.9780   13.2500 C.3       1 6BZ        -0.0328
     30 N30        15.9430  -13.6520   11.8700 N.4       1 6BZ         0.2186
     31 N31        13.4690  -17.9370   16.8670 N.pl3     1 6BZ        -0.2939
     32 C32        12.2900  -17.1130   16.5930 C.3       1 6BZ         0.0201
     33 H1         19.4199  -19.5131    8.2143 H         1 6BZ         0.0559
     34 H2         23.0305  -18.9437    9.7475 H         1 6BZ         0.1103
     35 H3         19.8223  -16.4054   12.0360 H         1 6BZ         0.0579
     36 H4         24.9118  -19.1558    8.2235 H         1 6BZ         0.0491
     37 H5         21.6531  -16.5910   10.4099 H         1 6BZ         0.0556
     38 H6         23.5891  -17.7062    4.1739 H         1 6BZ         0.0440
     39 H7         22.3699  -16.4580    4.6006 H         1 6BZ         0.0440
     40 H8         21.8416  -18.1219    4.1773 H         1 6BZ         0.0440
     41 H9         18.3943  -19.0684   13.4412 H         1 6BZ         0.0677
     42 H10        17.3520  -19.6424   15.6306 H         1 6BZ         0.0882
     43 H11        13.2378  -16.4836   12.6436 H         1 6BZ         0.0621
     44 H12        14.1701  -15.6474   11.3559 H         1 6BZ         0.0621
     45 H13        13.9045  -14.8881   14.3025 H         1 6BZ         0.0344
     46 H14        13.4325  -13.9325   12.8566 H         1 6BZ         0.0344
     47 H15        16.2910  -14.6694   13.6828 H         1 6BZ         0.0814
     48 H16        15.5216  -13.0545   13.8468 H         1 6BZ         0.0814
     49 H17        16.8530  -13.2186   11.8715 H         1 6BZ         0.1994
     50 H18        15.2691  -13.0171   11.4715 H         1 6BZ         0.1994
     51 H19        15.9742  -14.4969   11.3211 H         1 6BZ         0.1994
     52 H20        13.5406  -18.4377   17.7642 H         1 6BZ         0.1873
     53 H21        11.6050  -17.1557   17.4526 H         1 6BZ         0.0491
     54 H22        11.7776  -17.4926   15.6967 H         1 6BZ         0.0491
     55 H23        12.6016  -16.0717   16.4239 H         1 6BZ         0.0491
@<TRIPOS>BOND
     1    5    1 ar 
     2    1    8 ar 
     3    2    4 2  
     4   13    2 1  
     5    6    3 ar 
     6    3    7 ar 
     7    4   14 1  
     8    5    6 ar 
     9   13    5 1  
    10    8    7 ar 
    11    7   16 1  
    12    8   15 1  
    13    9   11 1  
    14    9   12 2  
    15    9   13 am 
    16   11   10 1  
    17   11   14 2  
    18   16   17 2  
    19   16   25 1  
    20   17   18 1  
    21   18   19 ar 
    22   18   23 ar 
    23   19   20 ar 
    24   20   21 ar 
    25   21   22 ar 
    26   21   31 1  
    27   22   23 ar 
    28   23   24 1  
    29   24   25 am 
    30   24   27 1  
    31   25   26 2  
    32   27   28 1  
    33   28   29 1  
    34   29   30 1  
    35   31   32 1  
    36    1   33 1  
    37    2   34 1  
    38    3   35 1  
    39    4   36 1  
    40    6   37 1  
    41   10   38 1  
    42   10   39 1  
    43   10   40 1  
    44   17   41 1  
    45   19   42 1  
    46   27   43 1  
    47   27   44 1  
    48   28   45 1  
    49   28   46 1  
    50   29   47 1  
    51   29   48 1  
    52   30   49 1  
    53   30   50 1  
    54   30   51 1  
    55   31   52 1  
    56   32   53 1  
    57   32   54 1  
    58   32   55 1  
@<TRIPOS>SUBSTRUCTURE
     1 6BZ         1

