### 
### Created by X-TOOL on Mon Sep 10 21:13:27 2018
### 

@<TRIPOS>MOLECULE
5in9_ligand
   43    45     1     0     0
SMALL
GAST_HUCK


@<TRIPOS>ATOM
      1 CAA        58.7260 -116.4350  100.5540 C.3       1 6C0         0.0640
      2 OAP        57.3850 -116.9540  100.6810 O.3       1 6C0        -0.2852
      3 CAR        57.0020 -117.9030  100.0670 C.2       1 6C0         0.2442
      4 OAB        57.8610 -118.5510   99.1390 O.2       1 6C0        -0.3727
      5 CAZ        55.4890 -118.4320  100.2260 C.ar      1 6C0         0.0814
      6 CAT        54.7670 -118.6690   99.0690 C.ar      1 6C0         0.0967
      7 OAD        55.3590 -118.4750   97.8700 O.3       1 6C0        -0.3314
      8 CAK        53.4850 -119.1000   99.1230 C.ar      1 6C0        -0.0048
      9 CAS        52.8660 -119.3050  100.3720 C.ar      1 6C0         0.0927
     10 OAC        51.5240 -119.7650  100.4560 O.3       1 6C0        -0.3331
     11 CAW        53.5640 -119.0660  101.5300 C.ar      1 6C0         0.0633
     12 CL1        52.7490 -119.3380  103.0490 Cl        1 6C0        -0.0937
     13 CAY        54.8550 -118.6290  101.4940 C.ar      1 6C0        -0.0206
     14 CAM        55.6230 -118.3780  102.8170 C.3       1 6C0        -0.0037
     15 CAL        55.0200 -117.3770  103.7910 C.3       1 6C0         0.0339
     16 CAX        56.1580 -116.8760  104.6310 C.2       1 6C0         0.1182
     17 NAO        57.3470 -116.5310  104.0760 N.2       1 6C0        -0.3386
     18 CAG        58.1900 -116.1200  105.0770 C.2       1 6C0        -0.0364
     19 CAJ        57.4270 -116.2510  106.2770 C.2       1 6C0         0.0303
     20 NBA        56.1720 -116.7320  105.9740 N.pl3     1 6C0        -0.2358
     21 CAN        55.1120 -117.0040  106.8660 C.3       1 6C0         0.1206
     22 CAV        55.4800 -116.6430  108.3410 C.2       1 6C0         0.1264
     23 OAQ        56.7170 -116.4720  108.8060 O.3       1 6C0        -0.2522
     24 CAU        56.7500 -116.1570  110.1460 C.2       1 6C0         0.1655
     25 CL2        58.2640 -115.8650  111.0580 Cl        1 6C0        -0.0483
     26 CAH        55.3720 -116.1210  110.6340 C.2       1 6C0        -0.0657
     27 CAI        54.5310 -116.4330  109.4800 C.2       1 6C0        -0.0659
     28 H1         58.8455 -115.5627  101.2134 H         1 6C0         0.0574
     29 H2         58.9054 -116.1337   99.5114 H         1 6C0         0.0574
     30 H3         59.4490 -117.2130  100.8405 H         1 6C0         0.0574
     31 H4         54.7417 -118.6776   97.1768 H         1 6C0         0.2508
     32 H5         52.9358 -119.2870   98.2073 H         1 6C0         0.0423
     33 H6         50.9499 -119.1441  100.0231 H         1 6C0         0.2502
     34 H7         56.6285 -118.0185  102.5530 H         1 6C0         0.0467
     35 H8         55.7040 -119.3419  103.3408 H         1 6C0         0.0467
     36 H9         54.2654 -117.8671  104.4238 H         1 6C0         0.0522
     37 H10        54.5545 -116.5444  103.2433 H         1 6C0         0.0522
     38 H11        59.2166 -115.7703  104.9782 H         1 6C0         0.0408
     39 H12        57.7823 -116.0082  107.2773 H         1 6C0         0.0798
     40 H13        54.8693 -118.0756  106.8128 H         1 6C0         0.0815
     41 H14        54.2341 -116.4138  106.5646 H         1 6C0         0.0815
     42 H15        55.0405 -115.9059  111.6488 H         1 6C0         0.0312
     43 H16        53.4443 -116.4988  109.4541 H         1 6C0         0.0226
@<TRIPOS>BOND
     1    1    2 1  
     2    2    3 1  
     3    3    4 2  
     4    3    5 1  
     5    5    6 ar 
     6    5   13 ar 
     7    6    7 1  
     8    6    8 ar 
     9    8    9 ar 
    10    9   10 1  
    11    9   11 ar 
    12   11   12 1  
    13   11   13 ar 
    14   13   14 1  
    15   14   15 1  
    16   15   16 1  
    17   16   17 2  
    18   16   20 1  
    19   17   18 1  
    20   18   19 2  
    21   19   20 1  
    22   20   21 1  
    23   21   22 1  
    24   22   23 1  
    25   22   27 2  
    26   23   24 1  
    27   24   25 1  
    28   24   26 2  
    29   26   27 1  
    30    1   28 1  
    31    1   29 1  
    32    1   30 1  
    33    7   31 1  
    34    8   32 1  
    35   10   33 1  
    36   14   34 1  
    37   14   35 1  
    38   15   36 1  
    39   15   37 1  
    40   18   38 1  
    41   19   39 1  
    42   21   40 1  
    43   21   41 1  
    44   26   42 1  
    45   27   43 1  
@<TRIPOS>SUBSTRUCTURE
     1 6C0         1

