### 
### Created by X-TOOL on Mon Sep 10 21:13:33 2018
### 

@<TRIPOS>MOLECULE
5ioz_ligand
   35    36     1     0     0
SMALL
GAST_HUCK


@<TRIPOS>ATOM
      1 C2         28.8010   15.6520   -1.8700 C.3       1 6C4         0.0486
      2 C4         30.8800   16.6170   -2.6860 C.3       1 6C4        -0.0506
      3 C5         28.3450   14.2810   -1.4770 C.2       1 6C4         0.1791
      4 C6         27.3160   12.1830   -2.1480 C.3       1 6C4         0.0337
      5 C7         27.8020   10.9790   -2.9060 C.3       1 6C4        -0.0208
      6 C9         28.4500    9.8390   -4.8360 C.3       1 6C4        -0.0527
      7 C11        26.9050    9.7340   -2.9450 C.3       1 6C4        -0.0484
      8 O          28.2450   13.9060   -0.2850 O.2       1 6C4        -0.3968
      9 C1         29.4480   16.3540   -0.6840 C.3       1 6C4        -0.0332
     10 C3         29.8860   15.4780   -2.9530 C.3       1 6C4        -0.0332
     11 C          30.4360   17.2700   -1.3700 C.3       1 6C4        -0.0506
     12 N          28.0350   13.4530   -2.4820 N.am      1 6C4        -0.2865
     13 C10        27.4670    8.9330   -4.1110 C.3       1 6C4        -0.0527
     14 C8         28.2210   11.2490   -4.3480 C.3       1 6C4        -0.0484
     15 H1         27.9553   16.2436   -2.2505 H         1 6C4         0.0538
     16 H2         30.8493   17.3503   -3.5053 H         1 6C4         0.0267
     17 H3         31.9005   16.2181   -2.5889 H         1 6C4         0.0267
     18 H4         27.4432   11.9877   -1.0730 H         1 6C4         0.0522
     19 H5         26.2481   12.3228   -2.3715 H         1 6C4         0.0522
     20 H6         28.7128   10.6744   -2.3696 H         1 6C4         0.0320
     21 H7         28.2782    9.7857   -5.9212 H         1 6C4         0.0265
     22 H8         29.4811    9.5281   -4.6122 H         1 6C4         0.0265
     23 H9         25.8557   10.0100   -3.1261 H         1 6C4         0.0269
     24 H10        26.9780    9.1663   -2.0057 H         1 6C4         0.0269
     25 H11        29.9579   15.6373   -0.0235 H         1 6C4         0.0292
     26 H12        28.7082   16.9251   -0.1039 H         1 6C4         0.0292
     27 H13        29.4501   15.5699   -3.9587 H         1 6C4         0.0292
     28 H14        30.3798   14.4999   -2.8554 H         1 6C4         0.0292
     29 H15        29.9587   18.2386   -1.5799 H         1 6C4         0.0267
     30 H16        31.3099   17.4249   -0.7202 H         1 6C4         0.0267
     31 H17        28.2762   13.6758   -3.4266 H         1 6C4         0.1851
     32 H18        27.9830    8.0354   -3.7395 H         1 6C4         0.0265
     33 H19        26.6554    8.6344   -4.7909 H         1 6C4         0.0265
     34 H20        29.1406   11.8504   -4.3979 H         1 6C4         0.0269
     35 H21        27.4234   11.7507   -4.9156 H         1 6C4         0.0269
@<TRIPOS>BOND
     1    3    1 1  
     2    1    9 1  
     3    1   10 1  
     4   10    2 1  
     5    2   11 1  
     6    3    8 2  
     7   12    3 am 
     8    5    4 1  
     9    4   12 1  
    10    5    7 1  
    11   14    5 1  
    12    6   13 1  
    13    6   14 1  
    14    7   13 1  
    15    9   11 1  
    16    1   15 1  
    17    2   16 1  
    18    2   17 1  
    19    4   18 1  
    20    4   19 1  
    21    5   20 1  
    22    6   21 1  
    23    6   22 1  
    24    7   23 1  
    25    7   24 1  
    26    9   25 1  
    27    9   26 1  
    28   10   27 1  
    29   10   28 1  
    30   11   29 1  
    31   11   30 1  
    32   12   31 1  
    33   13   32 1  
    34   13   33 1  
    35   14   34 1  
    36   14   35 1  
@<TRIPOS>SUBSTRUCTURE
     1 6C4         1

