### 
### Created by X-TOOL on Mon Sep 10 21:13:27 2018
### 

@<TRIPOS>MOLECULE
5ipj_ligand
   51    54     1     0     0
SMALL
GAST_HUCK


@<TRIPOS>ATOM
      1 C01       -22.5710  -30.8010   -2.4210 C.3       1 6CD        -0.0162
      2 C02       -21.5120  -31.2730   -1.4220 C.3       1 6CD         0.1356
      3 N03       -21.2750  -30.2770   -0.4180 N.am      1 6CD        -0.2571
      4 C04       -21.4630  -30.8780    0.8670 C.2       1 6CD         0.2134
      5 O05       -21.3270  -30.3070    1.9580 O.2       1 6CD        -0.3884
      6 C06       -21.8380  -32.3180    0.6550 C.2       1 6CD         0.1262
      7 C07       -22.1750  -33.5350    1.3010 C.2       1 6CD         0.0270
      8 C08       -22.4000  -34.5000    0.2940 C.2       1 6CD         0.1467
      9 N09       -22.2140  -33.8690   -0.9030 N.pl3     1 6CD        -0.2000
     10 C10       -21.8650  -32.5520   -0.7080 C.2       1 6CD         0.1689
     11 C11       -22.7820  -35.8230    0.5940 C.ar      1 6CD         0.0983
     12 C12       -23.0100  -36.3680    1.8650 C.ar      1 6CD        -0.0242
     13 C13       -23.4180  -37.7060    1.9420 C.ar      1 6CD        -0.0424
     14 C14       -23.5970  -38.4570    0.7640 C.ar      1 6CD        -0.0274
     15 C15       -23.3690  -37.8700   -0.5590 C.ar      1 6CD         0.1016
     16 C16       -23.5720  -38.6790   -1.7570 C.2       1 6CD         0.2057
     17 O17       -23.9250  -39.8370   -1.6440 O.2       1 6CD        -0.3902
     18 N18       -23.3700  -38.1360   -3.0300 N.am      1 6CD        -0.2499
     19 C19       -23.5860  -38.9840   -4.2230 C.3       1 6CD         0.0200
     20 C20       -22.9830  -36.8510   -3.1330 C.cat     1 6CD         0.1830
     21 N21       -22.7560  -36.2820   -4.4600 N.pl3     1 6CD        -0.3210
     22 C22       -22.4610  -34.8970   -4.7520 C.3       1 6CD         0.0371
     23 C23       -21.0810  -34.5370   -4.1910 C.3       1 6CD        -0.0391
     24 C24       -23.5480  -33.9850   -4.2190 C.3       1 6CD        -0.0391
     25 C25       -22.4230  -34.7610   -6.2650 C.3       1 6CD        -0.0391
     26 N26       -22.7780  -36.0640   -1.9970 N.pl3     1 6CD        -0.2608
     27 C27       -22.9700  -36.5630   -0.6800 C.ar      1 6CD         0.1297
     28 H1        -22.7338  -31.5815   -3.1789 H         1 6CD         0.0301
     29 H2        -22.2266  -29.8791   -2.9123 H         1 6CD         0.0301
     30 H3        -23.5138  -30.6033   -1.8899 H         1 6CD         0.0301
     31 H4        -20.5806  -31.4396   -1.9830 H         1 6CD         0.0948
     32 H5        -21.0215  -29.3245   -0.5870 H         1 6CD         0.1899
     33 H6        -22.2470  -33.6959    2.3756 H         1 6CD         0.0794
     34 H7        -22.3202  -34.3169   -1.8244 H         1 6CD         0.2549
     35 H8        -22.8748  -35.7726    2.7607 H         1 6CD         0.0761
     36 H9        -23.5960  -38.1634    2.9085 H         1 6CD         0.0638
     37 H10       -23.9104  -39.4921    0.8378 H         1 6CD         0.0815
     38 H11       -23.8965  -39.9905   -3.9060 H         1 6CD         0.0481
     39 H12       -22.6509  -39.0529   -4.7981 H         1 6CD         0.0481
     40 H13       -24.3713  -38.5391   -4.8518 H         1 6CD         0.0481
     41 H14       -22.8113  -36.9272   -5.2610 H         1 6CD         0.1781
     42 H15       -20.8581  -33.4831   -4.4140 H         1 6CD         0.0256
     43 H16       -20.3177  -35.1792   -4.6547 H         1 6CD         0.0256
     44 H17       -21.0766  -34.6902   -3.1017 H         1 6CD         0.0256
     45 H18       -23.2981  -32.9400   -4.4548 H         1 6CD         0.0256
     46 H19       -23.6263  -34.1062   -3.1285 H         1 6CD         0.0256
     47 H20       -24.5084  -34.2468   -4.6869 H         1 6CD         0.0256
     48 H21       -22.2005  -33.7178   -6.5339 H         1 6CD         0.0256
     49 H22       -23.3991  -35.0473   -6.6835 H         1 6CD         0.0256
     50 H23       -21.6418  -35.4193   -6.6728 H         1 6CD         0.0256
     51 H24       -22.4767  -35.0865   -2.1183 H         1 6CD         0.2185
@<TRIPOS>BOND
     1    1    2 1  
     2    2    3 1  
     3    2   10 1  
     4    3    4 am 
     5    4    5 2  
     6    4    6 1  
     7    6    7 1  
     8    6   10 2  
     9    7    8 2  
    10    8    9 1  
    11    8   11 1  
    12    9   10 1  
    13   11   12 ar 
    14   11   27 ar 
    15   12   13 ar 
    16   13   14 ar 
    17   14   15 ar 
    18   15   16 1  
    19   15   27 ar 
    20   16   17 2  
    21   16   18 am 
    22   18   19 1  
    23   18   20 ar 
    24   20   21 ar 
    25   20   26 ar 
    26   21   22 1  
    27   22   23 1  
    28   22   24 1  
    29   22   25 1  
    30   26   27 1  
    31    1   28 1  
    32    1   29 1  
    33    1   30 1  
    34    2   31 1  
    35    3   32 1  
    36    7   33 1  
    37    9   34 1  
    38   12   35 1  
    39   13   36 1  
    40   14   37 1  
    41   19   38 1  
    42   19   39 1  
    43   19   40 1  
    44   21   41 1  
    45   23   42 1  
    46   23   43 1  
    47   23   44 1  
    48   24   45 1  
    49   24   46 1  
    50   24   47 1  
    51   25   48 1  
    52   25   49 1  
    53   25   50 1  
    54   26   51 1  
@<TRIPOS>SUBSTRUCTURE
     1 6CD         1

