### 
### Created by X-TOOL on Mon Sep 10 21:13:28 2018
### 

@<TRIPOS>MOLECULE
5iq6_ligand
   71    76     1     0     0
SMALL
GAST_HUCK


@<TRIPOS>ATOM
      1 O3        -32.5390  -62.1820  -12.7810 O.3       1 6CJ        -0.3209
      2 C4        -31.7200  -67.9100  -11.0650 C.2       1 6CJ         0.2074
      3 C5        -33.1790  -66.2220  -12.1670 C.ar      1 6CJ         0.0723
      4 O4        -29.4520  -65.2810  -10.3340 O.2       1 6CJ        -0.4018
      5 C6        -34.0860  -65.4540  -12.8910 C.ar      1 6CJ        -0.0581
      6 N1        -31.2220  -66.6100  -10.9650 N.am      1 6CJ        -0.1346
      7 C7        -33.8520  -64.1030  -13.0640 C.ar      1 6CJ        -0.0460
      8 C8        -32.7260  -63.5200  -12.5030 C.ar      1 6CJ         0.0793
      9 C9        -31.1800  -61.6280  -12.7200 C.3       1 6CJ         0.0798
     10 O5        -29.7760  -65.7110  -14.6350 O.3       1 6CJ        -0.3376
     11 C10       -31.0300  -60.7800  -13.9630 C.3       1 6CJ        -0.0224
     12 C11       -32.0350  -59.6320  -13.9690 C.3       1 6CJ        -0.0504
     13 C12       -31.9350  -58.7990  -12.7030 C.3       1 6CJ        -0.0529
     14 C13       -32.0710  -59.6660  -11.4660 C.3       1 6CJ        -0.0504
     15 C14       -31.0500  -60.7980  -11.4650 C.3       1 6CJ        -0.0224
     16 C15       -31.8330  -64.2690  -11.7470 C.ar      1 6CJ        -0.0023
     17 C17       -29.9750  -66.3870  -10.3160 C.2       1 6CJ         0.2356
     18 C16       -32.0420  -65.6370  -11.5930 C.ar      1 6CJ         0.1275
     19 S         -33.2440  -67.9440  -11.8990 S.3       1 6CJ         0.0242
     20 C18       -29.3600  -67.5400   -9.6650 C.2       1 6CJ         0.0329
     21 C20       -28.1830  -67.3500   -8.7810 C.ar      1 6CJ        -0.0381
     22 C25       -28.3150  -67.4410   -7.3960 C.ar      1 6CJ        -0.0670
     23 C24       -27.2210  -67.2400   -6.5720 C.ar      1 6CJ        -0.0710
     24 C23       -25.9850  -66.9490   -7.1140 C.ar      1 6CJ        -0.0706
     25 C22       -25.8410  -66.8600   -8.4840 C.ar      1 6CJ        -0.0710
     26 C21       -26.9300  -67.0600   -9.3160 C.ar      1 6CJ        -0.0670
     27 C19       -29.8810  -68.7720   -9.8550 C.2       1 6CJ        -0.0547
     28 C3        -31.0810  -69.0070  -10.5780 C.2       1 6CJ         0.0886
     29 C2        -31.5540  -70.4060  -10.7880 C.2       1 6CJ         0.1809
     30 O2        -32.6950  -70.7460  -10.4790 O.2       1 6CJ        -0.4080
     31 N         -30.6440  -71.2480  -11.3120 N.am      1 6CJ        -0.2761
     32 C1        -30.7650  -71.8740  -12.6240 C.3       1 6CJ         0.1009
     33 C         -29.4090  -72.3050  -13.1760 C.2       1 6CJ         0.0617
     34 O1        -28.3650  -72.1210  -12.5810 O.co2     1 6CJ        -0.5665
     35 O         -29.4930  -72.9000  -14.3320 O.co2     1 6CJ        -0.5665
     36 C26       -31.5440  -71.0090  -13.6410 C.3       1 6CJ         0.0106
     37 C27       -31.0330  -69.6160  -13.9370 C.ar      1 6CJ        -0.0499
     38 C32       -31.8250  -68.7240  -14.6470 C.ar      1 6CJ        -0.0686
     39 C31       -31.4110  -67.4250  -14.8820 C.ar      1 6CJ        -0.0398
     40 C30       -30.1790  -66.9960  -14.4140 C.ar      1 6CJ         0.0805
     41 C29       -29.3660  -67.8790  -13.7180 C.ar      1 6CJ        -0.0398
     42 C28       -29.7940  -69.1750  -13.4850 C.ar      1 6CJ        -0.0686
     43 H1        -34.9710  -65.9128  -13.3168 H         1 6CJ         0.0528
     44 H2        -34.5473  -63.5004  -13.6371 H         1 6CJ         0.0460
     45 H3        -30.4288  -62.4315  -12.7127 H         1 6CJ         0.0647
     46 H4        -28.9160  -65.5799  -14.2533 H         1 6CJ         0.2458
     47 H5        -31.1979  -61.4091  -14.8496 H         1 6CJ         0.0294
     48 H6        -30.0114  -60.3659  -13.9947 H         1 6CJ         0.0294
     49 H7        -33.0510  -60.0466  -14.0448 H         1 6CJ         0.0266
     50 H8        -31.8362  -58.9873  -14.8378 H         1 6CJ         0.0266
     51 H9        -32.7372  -58.0464  -12.7040 H         1 6CJ         0.0265
     52 H10       -30.9582  -58.2937  -12.6817 H         1 6CJ         0.0265
     53 H11       -33.0828  -60.0967  -11.4403 H         1 6CJ         0.0266
     54 H12       -31.9150  -59.0427  -10.5732 H         1 6CJ         0.0266
     55 H13       -30.0371  -60.3719  -11.4160 H         1 6CJ         0.0294
     56 H14       -31.2210  -61.4390  -10.5876 H         1 6CJ         0.0294
     57 H15       -30.9791  -63.7916  -11.2801 H         1 6CJ         0.0466
     58 H16       -29.2811  -67.6708   -6.9614 H         1 6CJ         0.0542
     59 H17       -27.3353  -67.3114   -5.4964 H         1 6CJ         0.0593
     60 H18       -25.1305  -66.7909   -6.4659 H         1 6CJ         0.0544
     61 H19       -24.8708  -66.6325   -8.9107 H         1 6CJ         0.0593
     62 H20       -26.8064  -66.9904  -10.3907 H         1 6CJ         0.0542
     63 H21       -29.3550  -69.6271   -9.4330 H         1 6CJ         0.0661
     64 H22       -29.8325  -71.4580  -10.7666 H         1 6CJ         0.1853
     65 H23       -31.3541  -72.7914  -12.4782 H         1 6CJ         0.0745
     66 H24       -32.5711  -70.9053  -13.2612 H         1 6CJ         0.0446
     67 H25       -31.5589  -71.5596  -14.5931 H         1 6CJ         0.0446
     68 H26       -32.7868  -69.0517  -15.0247 H         1 6CJ         0.0530
     69 H27       -32.0497  -66.7432  -15.4318 H         1 6CJ         0.0525
     70 H28       -28.3967  -67.5546  -13.3570 H         1 6CJ         0.0525
     71 H29       -29.1519  -69.8580  -12.9406 H         1 6CJ         0.0530
@<TRIPOS>BOND
     1    8    1 1  
     2    1    9 1  
     3    2    6 1  
     4    2   19 1  
     5   28    2 2  
     6    3    5 ar 
     7    3   18 ar 
     8   19    3 1  
     9   17    4 2  
    10    5    7 ar 
    11    6   17 am 
    12    6   18 1  
    13    7    8 ar 
    14   16    8 ar 
    15    9   11 1  
    16    9   15 1  
    17   40   10 1  
    18   11   12 1  
    19   12   13 1  
    20   14   13 1  
    21   15   14 1  
    22   18   16 ar 
    23   20   17 1  
    24   20   21 1  
    25   27   20 2  
    26   21   22 ar 
    27   21   26 ar 
    28   22   23 ar 
    29   23   24 ar 
    30   25   24 ar 
    31   26   25 ar 
    32   28   27 1  
    33   29   28 1  
    34   29   30 2  
    35   31   29 am 
    36   32   31 1  
    37   32   33 1  
    38   36   32 1  
    39   33   34 ar 
    40   33   35 ar 
    41   37   36 1  
    42   38   37 ar 
    43   37   42 ar 
    44   39   38 ar 
    45   39   40 ar 
    46   40   41 ar 
    47   41   42 ar 
    48    5   43 1  
    49    7   44 1  
    50    9   45 1  
    51   10   46 1  
    52   11   47 1  
    53   11   48 1  
    54   12   49 1  
    55   12   50 1  
    56   13   51 1  
    57   13   52 1  
    58   14   53 1  
    59   14   54 1  
    60   15   55 1  
    61   15   56 1  
    62   16   57 1  
    63   22   58 1  
    64   23   59 1  
    65   24   60 1  
    66   25   61 1  
    67   26   62 1  
    68   27   63 1  
    69   31   64 1  
    70   32   65 1  
    71   36   66 1  
    72   36   67 1  
    73   38   68 1  
    74   39   69 1  
    75   41   70 1  
    76   42   71 1  
@<TRIPOS>SUBSTRUCTURE
     1 6CJ         1

