### 
### Created by X-TOOL on Mon Sep 10 21:13:27 2018
### 

@<TRIPOS>MOLECULE
5isl_ligand
   47    47     1     0     0
SMALL
GAST_HUCK


@<TRIPOS>ATOM
      1 OAT       -22.8010   18.8000    8.5010 O.co2     1 MMK        -0.5575
      2 CAS       -23.5420   19.3660    7.6540 C.2       1 MMK         0.0705
      3 OAU       -24.2460   20.3580    7.9720 O.co2     1 MMK        -0.5575
      4 CAO       -23.5820   18.8320    6.2280 C.ar      1 MMK         0.0232
      5 CAN       -23.7580   19.6900    5.1490 C.ar      1 MMK        -0.0134
      6 CAP       -23.4320   17.4720    6.0090 C.ar      1 MMK        -0.0272
      7 CAQ       -23.4730   17.0160    4.7070 C.ar      1 MMK         0.0064
      8 NAR       -23.6460   17.8380    3.6480 N.ar      1 MMK        -0.2901
      9 CAM       -23.7880   19.1630    3.8640 C.ar      1 MMK         0.0758
     10 CAL       -23.9810   20.0770    2.6570 C.3       1 MMK         0.0180
     11 N         -23.3350   19.5430    1.4730 N.4       1 MMK         0.2579
     12 CA        -21.9330   19.9070    1.4070 C.3       1 MMK         0.0579
     13 C         -21.8190   21.1870    0.5860 C.2       1 MMK         0.2241
     14 O         -22.7510   21.5900   -0.0250 O.2       1 MMK        -0.3910
     15 NAC       -20.6400   21.8440    0.5670 N.am      1 MMK        -0.2640
     16 CAB       -19.4730   21.3920    1.3040 C.3       1 MMK         0.0314
     17 CAA       -18.5190   20.6620    0.3620 C.3       1 MMK        -0.0446
     18 CAD       -20.4750   23.0670   -0.2010 C.3       1 MMK         0.0739
     19 CAE       -21.2870   24.2240    0.3770 C.3       1 MMK        -0.0115
     20 NAF       -21.1710   25.4700   -0.3540 N.4       1 MMK         0.2323
     21 CAH       -21.3930   26.5760    0.5600 C.3       1 MMK        -0.0433
     22 CAG       -22.1840   25.4980   -1.3940 C.3       1 MMK        -0.0433
     23 H1        -23.8704   20.7564    5.3080 H         1 MMK         0.0685
     24 H2        -23.2867   16.7864    6.8360 H         1 MMK         0.0684
     25 H3        -23.3617   15.9530    4.5259 H         1 MMK         0.0809
     26 H4        -23.5506   21.0635    2.8840 H         1 MMK         0.1010
     27 H5        -25.0577   20.1835    2.4586 H         1 MMK         0.1010
     28 H6        -23.8033   19.9034    0.6564 H         1 MMK         0.2049
     29 H7        -23.4097   18.5379    1.4870 H         1 MMK         0.2049
     30 H8        -21.3600   19.1014    0.9246 H         1 MMK         0.1062
     31 H9        -21.5431   20.0777    2.4213 H         1 MMK         0.1062
     32 H10       -19.7892   20.7084    2.1056 H         1 MMK         0.0519
     33 H11       -18.9596   22.2599    1.7435 H         1 MMK         0.0519
     34 H12       -17.6371   20.3218    0.9246 H         1 MMK         0.0249
     35 H13       -18.2014   21.3449   -0.4397 H         1 MMK         0.0249
     36 H14       -19.0310   19.7933   -0.0776 H         1 MMK         0.0249
     37 H15       -20.8049   22.8839   -1.2343 H         1 MMK         0.0575
     38 H16       -19.4108   23.3455   -0.1997 H         1 MMK         0.0575
     39 H17       -20.9476   24.3991    1.4085 H         1 MMK         0.0834
     40 H18       -22.3466   23.9287    0.3847 H         1 MMK         0.0834
     41 H19       -20.2538   25.5439   -0.7656 H         1 MMK         0.2028
     42 H20       -21.3068   27.5265    0.0131 H         1 MMK         0.0777
     43 H21       -20.6412   26.5452    1.3624 H         1 MMK         0.0777
     44 H22       -22.3992   26.4944    0.9969 H         1 MMK         0.0777
     45 H23       -22.0193   24.6613   -2.0889 H         1 MMK         0.0777
     46 H24       -22.1195   26.4489   -1.9433 H         1 MMK         0.0777
     47 H25       -23.1806   25.4049   -0.9378 H         1 MMK         0.0777
@<TRIPOS>BOND
     1    1    2 ar 
     2    2    3 ar 
     3    2    4 1  
     4    4    5 ar 
     5    4    6 ar 
     6    5    9 ar 
     7    6    7 ar 
     8    7    8 ar 
     9    8    9 ar 
    10    9   10 1  
    11   10   11 1  
    12   11   12 1  
    13   12   13 1  
    14   13   14 2  
    15   13   15 am 
    16   15   16 1  
    17   15   18 1  
    18   16   17 1  
    19   18   19 1  
    20   19   20 1  
    21   20   21 1  
    22   20   22 1  
    23    5   23 1  
    24    6   24 1  
    25    7   25 1  
    26   10   26 1  
    27   10   27 1  
    28   11   28 1  
    29   11   29 1  
    30   12   30 1  
    31   12   31 1  
    32   16   32 1  
    33   16   33 1  
    34   17   34 1  
    35   17   35 1  
    36   17   36 1  
    37   18   37 1  
    38   18   38 1  
    39   19   39 1  
    40   19   40 1  
    41   20   41 1  
    42   21   42 1  
    43   21   43 1  
    44   21   44 1  
    45   22   45 1  
    46   22   46 1  
    47   22   47 1  
@<TRIPOS>SUBSTRUCTURE
     1 MMK         1

