### 
### Created by X-TOOL on Mon Sep 10 21:13:26 2018
### 

@<TRIPOS>MOLECULE
5ism_ligand
   48    52     1     0     0
SMALL
GAST_HUCK


@<TRIPOS>ATOM
      1 C2         34.5310   50.7790   36.2780 C.ar      1 6DG        -0.0366
      2 C3         36.6630   49.0460   36.0390 C.ar      1 6DG        -0.0259
      3 C5         43.3480   51.4920   35.8190 C.3       1 6DG         0.0028
      4 C6         40.4440   51.4590   35.5250 C.3       1 6DG         0.0397
      5 C8         48.6790   50.9020   38.3390 C.2       1 6DG         0.0024
      6 C9         48.1200   51.3930   37.2040 C.2       1 6DG         0.1050
      7 F27        36.0260   52.4310   36.9120 F         1 6DG        -0.1924
      8 C12        35.8240   51.1870   36.5340 C.ar      1 6DG         0.1314
      9 C13        36.8930   50.3480   36.4160 C.ar      1 6DG         0.0228
     10 C11        35.3430   48.6150   35.7710 C.ar      1 6DG         0.1216
     11 F26        35.1310   47.3660   35.3510 F         1 6DG        -0.1887
     12 C1         34.2660   49.4670   35.8910 C.ar      1 6DG        -0.0370
     13 C19        38.2740   50.8760   36.6510 C.3       1 6DG         0.1352
     14 C18        39.0100   51.0000   35.2650 C.3       1 6DG         0.0169
     15 N20        38.2610   51.9190   34.3550 N.4       1 6DG         0.2242
     16 O25        38.9720   49.9110   37.4110 O.3       1 6DG        -0.3537
     17 C7         40.2380   50.3710   37.8290 C.3       1 6DG         0.0937
     18 C17        41.1550   50.5310   36.5570 C.3       1 6DG         0.0104
     19 N24        42.4300   51.2000   36.9810 N.4       1 6DG         0.2543
     20 C4         43.2360   50.3890   38.0000 C.3       1 6DG        -0.0154
     21 C15        44.7060   51.3530   36.3850 C.2       1 6DG         0.0490
     22 N21        45.9750   51.6860   35.9970 N.2       1 6DG        -0.2177
     23 N23        46.7130   51.2820   37.0890 N.pl3     1 6DG        -0.1493
     24 C16        45.9190   50.6970   38.1200 C.2       1 6DG         0.1626
     25 C14        44.6420   50.7520   37.6590 C.2       1 6DG         0.0326
     26 N22        46.5000   50.1990   39.2740 N.2       1 6DG        -0.2766
     27 C10        47.8430   50.3100   39.3600 C.2       1 6DG         0.0088
     28 H1         33.7146   51.4850   36.3788 H         1 6DG         0.0576
     29 H2         37.4907   48.3521   35.9475 H         1 6DG         0.0533
     30 H3         43.1858   52.5120   35.4406 H         1 6DG         0.0961
     31 H4         43.1889   50.7693   35.0051 H         1 6DG         0.0961
     32 H5         40.4262   52.4860   35.9187 H         1 6DG         0.0379
     33 H6         41.0044   51.4387   34.5787 H         1 6DG         0.0379
     34 H7         49.7575   50.9538   38.4811 H         1 6DG         0.0585
     35 H8         48.7234   51.8496   36.4208 H         1 6DG         0.1333
     36 H9         33.2549   49.1302   35.6925 H         1 6DG         0.0536
     37 H10        38.2422   51.8458   37.1692 H         1 6DG         0.0809
     38 H11        39.0442   50.0081   34.7908 H         1 6DG         0.0901
     39 H12        38.7451   51.9870   33.4735 H         1 6DG         0.1999
     40 H13        38.2000   52.8328   34.7761 H         1 6DG         0.1999
     41 H14        37.3328   51.5571   34.2015 H         1 6DG         0.1999
     42 H15        40.6872   49.6440   38.5215 H         1 6DG         0.0619
     43 H16        40.1319   51.3420   38.3348 H         1 6DG         0.0619
     44 H17        41.3636   49.5482   36.1091 H         1 6DG         0.0876
     45 H18        42.1749   52.0759   37.4097 H         1 6DG         0.2055
     46 H19        43.0626   49.3098   37.8763 H         1 6DG         0.0867
     47 H20        42.9874   50.6847   39.0299 H         1 6DG         0.0867
     48 H21        48.3285   49.9287   40.2571 H         1 6DG         0.0949
@<TRIPOS>BOND
     1    8    1 ar 
     2    1   12 ar 
     3    9    2 ar 
     4    2   10 ar 
     5    3   19 1  
     6   21    3 1  
     7    4   14 1  
     8   18    4 1  
     9    6    5 2  
    10    5   27 1  
    11   23    6 1  
    12    8    7 1  
    13    9    8 ar 
    14   13    9 1  
    15   10   11 1  
    16   10   12 ar 
    17   14   13 1  
    18   16   13 1  
    19   14   15 1  
    20   17   16 1  
    21   18   17 1  
    22   19   18 1  
    23   20   19 1  
    24   25   20 1  
    25   22   21 2  
    26   21   25 1  
    27   22   23 1  
    28   23   24 1  
    29   24   25 2  
    30   24   26 1  
    31   26   27 2  
    32    1   28 1  
    33    2   29 1  
    34    3   30 1  
    35    3   31 1  
    36    4   32 1  
    37    4   33 1  
    38    5   34 1  
    39    6   35 1  
    40   12   36 1  
    41   13   37 1  
    42   14   38 1  
    43   15   39 1  
    44   15   40 1  
    45   15   41 1  
    46   17   42 1  
    47   17   43 1  
    48   18   44 1  
    49   19   45 1  
    50   20   46 1  
    51   20   47 1  
    52   27   48 1  
@<TRIPOS>SUBSTRUCTURE
     1 6DG         1

