### 
### Created by X-TOOL on Mon Sep 10 21:13:32 2018
### 

@<TRIPOS>MOLECULE
5isz_ligand
  144   145     1     0     0
SMALL
GAST_HUCK


@<TRIPOS>ATOM
      1 N          36.4330  -35.6070   47.4680 N.4       1 GLY         0.2357
      2 CA         36.6230  -35.1470   48.8820 C.3       1 GLY         0.0545
      3 C          37.8130  -35.8080   49.5500 C.2       1 GLY         0.2236
      4 O          38.0850  -36.9860   49.3200 O.2       1 GLY        -0.3910
      5 N          38.5170  -35.0470   50.3880 N.am      1 ILE        -0.2610
      6 CA         39.7690  -35.5000   50.9860 C.3       1 ILE         0.1336
      7 C          39.5080  -36.2760   52.2730 C.2       1 ILE         0.2042
      8 O          38.3700  -36.3540   52.7510 O.2       1 ILE        -0.3944
      9 CB         40.7050  -34.3040   51.2430 C.3       1 ILE        -0.0037
     10 CG1        40.0960  -33.3180   52.2460 C.3       1 ILE        -0.0491
     11 CG2        41.0160  -33.5800   49.9340 C.3       1 ILE        -0.0582
     12 CD1        41.0360  -32.1500   52.6250 C.3       1 ILE        -0.0648
     13 N          40.5670  -36.8380   52.8510 N.am      1 LEU        -0.2637
     14 CA         40.4380  -37.5720   54.1060 C.3       1 LEU         0.1312
     15 C          39.9440  -36.6600   55.2210 C.2       1 LEU         0.2037
     16 O          40.3500  -35.4980   55.3260 O.2       1 LEU        -0.3944
     17 CB         41.7770  -38.1870   54.5110 C.3       1 LEU        -0.0101
     18 CG         42.1380  -39.5230   53.8650 C.3       1 LEU        -0.0425
     19 CD1        43.6330  -39.6970   53.9280 C.3       1 LEU        -0.0625
     20 CD2        41.4380  -40.6730   54.5780 C.3       1 LEU        -0.0625
     21 N          39.0630  -37.1970   56.0610 N.am      1 GLY        -0.2664
     22 CA         38.5650  -36.4860   57.2220 C.3       1 GLY         0.1201
     23 C          39.3360  -36.6910   58.5120 C.2       1 GLY         0.2009
     24 O          38.9710  -36.1060   59.5400 O.2       1 GLY        -0.3947
     25 N          40.3800  -37.5160   58.5080 N.am      1 PHE        -0.2622
     26 CA         41.2400  -37.6800   59.6720 C.3       1 PHE         0.1404
     27 C          42.6890  -37.5410   59.2440 C.2       1 PHE         0.2060
     28 O          43.0300  -37.7400   58.0760 O.2       1 PHE        -0.3942
     29 CB         41.0310  -39.0280   60.3800 C.3       1 PHE         0.0214
     30 CG         41.1160  -40.2430   59.4660 C.ar      1 PHE        -0.0386
     31 CD1        39.9740  -40.7770   58.8910 C.ar      1 PHE        -0.0601
     32 CD2        42.3280  -40.8680   59.2230 C.ar      1 PHE        -0.0601
     33 CE1        40.0360  -41.8990   58.0750 C.ar      1 PHE        -0.0686
     34 CE2        42.3980  -41.9900   58.4020 C.ar      1 PHE        -0.0686
     35 CZ         41.2490  -42.5020   57.8280 C.ar      1 PHE        -0.0687
     36 N          43.5420  -37.1970   60.2160 N.am      1 VAL        -0.2633
     37 CA         44.9500  -36.9090   59.9720 C.3       1 VAL         0.1333
     38 C          45.7960  -37.6090   61.0280 C.2       1 VAL         0.2043
     39 O          45.3500  -37.8340   62.1580 O.2       1 VAL        -0.3944
     40 CB         45.2240  -35.3890   59.9680 C.3       1 VAL        -0.0063
     41 CG1        44.4660  -34.7230   58.8070 C.3       1 VAL        -0.0584
     42 CG2        44.8240  -34.7570   61.2980 C.3       1 VAL        -0.0584
     43 N          47.0250  -37.9620   60.6430 N.am      1 PHE        -0.2619
     44 CA         47.9520  -38.6870   61.5030 C.3       1 PHE         0.1404
     45 C          49.3830  -38.2750   61.1750 C.2       1 PHE         0.2060
     46 O          49.7340  -38.0930   60.0070 O.2       1 PHE        -0.3942
     47 CB         47.7810  -40.2000   61.3300 C.3       1 PHE         0.0214
     48 CG         47.6070  -40.6300   59.8880 C.ar      1 PHE        -0.0386
     49 CD1        48.7030  -40.8890   59.0870 C.ar      1 PHE        -0.0601
     50 CD2        46.3420  -40.7770   59.3480 C.ar      1 PHE        -0.0601
     51 CE1        48.5390  -41.2940   57.7590 C.ar      1 PHE        -0.0686
     52 CE2        46.1670  -41.1700   58.0270 C.ar      1 PHE        -0.0686
     53 CZ         47.2660  -41.4290   57.2320 C.ar      1 PHE        -0.0687
     54 N          50.2090  -38.1440   62.2070 N.am      1 THR        -0.2612
     55 CA         51.5660  -37.6380   62.0450 C.3       1 THR         0.1564
     56 C          52.5500  -38.7630   61.7150 C.2       1 THR         0.2059
     57 O          52.3600  -39.9160   62.1160 O.2       1 THR        -0.3943
     58 CB         52.0080  -36.9040   63.3160 C.3       1 THR         0.0924
     59 OG1        51.6860  -37.6900   64.4740 O.3       1 THR        -0.3874
     60 CG2        51.3070  -35.5510   63.4180 C.3       1 THR        -0.0346
     61 N          53.6070  -38.4100   60.9760 N.am      1 LEU        -0.2694
     62 CA         54.7320  -39.3170   60.7000 C.3       1 LEU         0.0946
     63 C          55.5480  -39.6250   61.9590 C.2       1 LEU         0.0601
     64 O          55.4340  -38.9340   62.9670 O.co2     1 LEU        -0.5666
     65 CB         55.6970  -38.7290   59.6550 C.3       1 LEU        -0.0156
     66 CG         55.1810  -38.2690   58.2990 C.3       1 LEU        -0.0431
     67 CD1        56.3270  -38.1130   57.3270 C.3       1 LEU        -0.0625
     68 CD2        54.1770  -39.2380   57.7630 C.3       1 LEU        -0.0625
     69 OXT        56.3630  -40.5500   61.9800 O.co2     1 LEU        -0.5666
     70 H1         35.6333  -35.1417   47.0679 H         1 GLY         0.2012
     71 H2         36.2825  -36.6036   47.4562 H         1 GLY         0.2012
     72 H3         37.2553  -35.3849   46.9290 H         1 GLY         0.2012
     73 H4         35.7165  -35.3879   49.4567 H         1 GLY         0.1061
     74 H5         36.7782  -34.0580   48.8814 H         1 GLY         0.1061
     75 H6         38.1757  -34.1348   50.6146 H         1 ILE         0.1884
     76 H7         40.2645  -36.1765   50.2741 H         1 ILE         0.0803
     77 H8         41.6462  -34.6882   51.6630 H         1 ILE         0.0345
     78 H9         39.8416  -33.8695   53.1631 H         1 ILE         0.0267
     79 H10        39.1803  -32.8968   51.8054 H         1 ILE         0.0267
     80 H11        41.4528  -34.2906   49.2168 H         1 ILE         0.0235
     81 H12        41.7311  -32.7665   50.1258 H         1 ILE         0.0235
     82 H13        40.0881  -33.1618   49.5168 H         1 ILE         0.0235
     83 H14        40.5292  -31.4902   53.3446 H         1 ILE         0.0230
     84 H15        41.2931  -31.5781   51.7212 H         1 ILE         0.0230
     85 H16        41.9543  -32.5508   53.0789 H         1 ILE         0.0230
     86 H17        41.4650  -36.7561   52.4187 H         1 LEU         0.1883
     87 H18        39.7066  -38.3810   53.9622 H         1 LEU         0.0800
     88 H19        41.7597  -38.3368   55.6006 H         1 LEU         0.0315
     89 H20        42.5672  -37.4668   54.2524 H         1 LEU         0.0315
     90 H21        41.8190  -39.5127   52.8123 H         1 LEU         0.0298
     91 H22        43.9103  -40.6560   53.4661 H         1 LEU         0.0232
     92 H23        43.9593  -39.6881   54.9784 H         1 LEU         0.0232
     93 H24        44.1211  -38.8740   53.3854 H         1 LEU         0.0232
     94 H25        40.3487  -40.5301   54.5224 H         1 LEU         0.0232
     95 H26        41.7514  -40.6960   55.6321 H         1 LEU         0.0232
     96 H27        41.7083  -41.6232   54.0943 H         1 LEU         0.0232
     97 H28        38.7325  -38.1243   55.8852 H         1 GLY         0.1881
     98 H29        37.5282  -36.8100   57.3952 H         1 GLY         0.0763
     99 H30        38.5793  -35.4110   56.9893 H         1 GLY         0.0763
    100 H31        40.5804  -38.0397   57.6800 H         1 PHE         0.1885
    101 H32        41.0045  -36.8791   60.3883 H         1 PHE         0.0823
    102 H33        40.0355  -39.0194   60.8477 H         1 PHE         0.0474
    103 H34        41.8012  -39.1298   61.1587 H         1 PHE         0.0474
    104 H35        39.0144  -40.3103   59.0817 H         1 PHE         0.0557
    105 H36        43.2321  -40.4791   59.6772 H         1 PHE         0.0557
    106 H37        39.1308  -42.2995   57.6331 H         1 PHE         0.0599
    107 H38        43.3547  -42.4630   58.2124 H         1 PHE         0.0599
    108 H39        41.3029  -43.3741   57.1865 H         1 PHE         0.0559
    109 H40        43.1977  -37.1346   61.1528 H         1 VAL         0.1883
    110 H41        45.2212  -37.3087   58.9837 H         1 VAL         0.0802
    111 H42        46.3022  -35.2299   59.8195 H         1 VAL         0.0343
    112 H43        44.6662  -33.6414   58.8110 H         1 VAL         0.0234
    113 H44        43.3864  -34.8965   58.9265 H         1 VAL         0.0234
    114 H45        44.8034  -35.1548   57.8532 H         1 VAL         0.0234
    115 H46        45.3747  -35.2446   62.1159 H         1 VAL         0.0234
    116 H47        43.7431  -34.8868   61.4553 H         1 VAL         0.0234
    117 H48        45.0659  -33.6841   61.2816 H         1 VAL         0.0234
    118 H49        47.3236  -37.7172   59.7205 H         1 PHE         0.1885
    119 H50        47.7392  -38.4273   62.5505 H         1 PHE         0.0823
    120 H51        46.8930  -40.5166   61.8967 H         1 PHE         0.0474
    121 H52        48.6728  -40.6994   61.7365 H         1 PHE         0.0474
    122 H53        49.7017  -40.7768   59.4932 H         1 PHE         0.0557
    123 H54        45.4728  -40.5823   59.9658 H         1 PHE         0.0557
    124 H55        49.4067  -41.5018   57.1434 H         1 PHE         0.0599
    125 H56        45.1675  -41.2734   57.6203 H         1 PHE         0.0599
    126 H57        47.1327  -41.7363   56.2011 H         1 PHE         0.0559
    127 H58        49.8910  -38.3996   63.1200 H         1 THR         0.1884
    128 H59        51.5692  -36.9225   61.2096 H         1 THR         0.0826
    129 H60        53.0957  -36.7448   63.2774 H         1 THR         0.0639
    130 H61        50.7476  -37.8347   64.5062 H         1 THR         0.2101
    131 H62        51.6339  -35.0368   64.3339 H         1 THR         0.0257
    132 H63        50.2182  -35.7038   63.4520 H         1 THR         0.0257
    133 H64        51.5641  -34.9378   62.5417 H         1 THR         0.0257
    134 H65        53.6341  -37.4866   60.5931 H         1 LEU         0.1875
    135 H66        54.3182  -40.2583   60.3092 H         1 LEU         0.0726
    136 H67        56.4562  -39.5002   59.4581 H         1 LEU         0.0308
    137 H68        56.1744  -37.8556   60.1232 H         1 LEU         0.0308
    138 H69        54.6918  -37.2918   58.4243 H         1 LEU         0.0297
    139 H70        55.9389  -37.7806   56.3529 H         1 LEU         0.0232
    140 H71        56.8401  -39.0786   57.2070 H         1 LEU         0.0232
    141 H72        57.0364  -37.3663   57.7132 H         1 LEU         0.0232
    142 H73        53.3490  -39.3421   58.4797 H         1 LEU         0.0232
    143 H74        54.6562  -40.2165   57.6118 H         1 LEU         0.0232
    144 H75        53.7869  -38.8685   56.8032 H         1 LEU         0.0232
@<TRIPOS>BOND
     1    1    2 1  
     2    2    3 1  
     3    3    4 2  
     4    3    5 am 
     5    5    6 1  
     6    6    7 1  
     7    6    9 1  
     8    7    8 2  
     9    7   13 am 
    10    9   10 1  
    11    9   11 1  
    12   10   12 1  
    13   13   14 1  
    14   14   15 1  
    15   14   17 1  
    16   15   16 2  
    17   15   21 am 
    18   17   18 1  
    19   18   19 1  
    20   18   20 1  
    21   21   22 1  
    22   22   23 1  
    23   23   24 2  
    24   23   25 am 
    25   25   26 1  
    26   26   27 1  
    27   26   29 1  
    28   27   28 2  
    29   27   36 am 
    30   29   30 1  
    31   30   31 ar 
    32   30   32 ar 
    33   31   33 ar 
    34   32   34 ar 
    35   33   35 ar 
    36   34   35 ar 
    37   36   37 1  
    38   37   38 1  
    39   37   40 1  
    40   38   39 2  
    41   38   43 am 
    42   40   41 1  
    43   40   42 1  
    44   43   44 1  
    45   44   45 1  
    46   44   47 1  
    47   45   46 2  
    48   45   54 am 
    49   47   48 1  
    50   48   49 ar 
    51   48   50 ar 
    52   49   51 ar 
    53   50   52 ar 
    54   51   53 ar 
    55   52   53 ar 
    56   54   55 1  
    57   55   56 1  
    58   55   58 1  
    59   56   57 2  
    60   56   61 am 
    61   58   59 1  
    62   58   60 1  
    63   61   62 1  
    64   62   63 1  
    65   62   65 1  
    66   63   64 ar 
    67   63   69 ar 
    68   65   66 1  
    69   66   67 1  
    70   66   68 1  
    71    1   70 1  
    72    1   71 1  
    73    1   72 1  
    74    2   73 1  
    75    2   74 1  
    76    5   75 1  
    77    6   76 1  
    78    9   77 1  
    79   10   78 1  
    80   10   79 1  
    81   11   80 1  
    82   11   81 1  
    83   11   82 1  
    84   12   83 1  
    85   12   84 1  
    86   12   85 1  
    87   13   86 1  
    88   14   87 1  
    89   17   88 1  
    90   17   89 1  
    91   18   90 1  
    92   19   91 1  
    93   19   92 1  
    94   19   93 1  
    95   20   94 1  
    96   20   95 1  
    97   20   96 1  
    98   21   97 1  
    99   22   98 1  
   100   22   99 1  
   101   25  100 1  
   102   26  101 1  
   103   29  102 1  
   104   29  103 1  
   105   31  104 1  
   106   32  105 1  
   107   33  106 1  
   108   34  107 1  
   109   35  108 1  
   110   36  109 1  
   111   37  110 1  
   112   40  111 1  
   113   41  112 1  
   114   41  113 1  
   115   41  114 1  
   116   42  115 1  
   117   42  116 1  
   118   42  117 1  
   119   43  118 1  
   120   44  119 1  
   121   47  120 1  
   122   47  121 1  
   123   49  122 1  
   124   50  123 1  
   125   51  124 1  
   126   52  125 1  
   127   53  126 1  
   128   54  127 1  
   129   55  128 1  
   130   58  129 1  
   131   59  130 1  
   132   60  131 1  
   133   60  132 1  
   134   60  133 1  
   135   61  134 1  
   136   62  135 1  
   137   65  136 1  
   138   65  137 1  
   139   66  138 1  
   140   67  139 1  
   141   67  140 1  
   142   67  141 1  
   143   68  142 1  
   144   68  143 1  
   145   68  144 1  
@<TRIPOS>SUBSTRUCTURE
     1 GLY         1

