### 
### Created by X-TOOL on Mon Sep 10 21:13:28 2018
### 

@<TRIPOS>MOLECULE
5itd_ligand
   61    65     1     0     0
SMALL
GAST_HUCK


@<TRIPOS>ATOM
      1 C2         -0.4480  110.0230   13.9930 C.3       1 6CY         0.0542
      2 C41         3.3490  118.7760   19.4150 C.ar      1 6CY         0.0128
      3 C42         4.5840  119.1360   19.9650 C.ar      1 6CY         0.0180
      4 C45         3.7470  118.8720   22.1810 C.ar      1 6CY         0.2035
      5 C46         2.4840  118.4860   21.6890 C.ar      1 6CY         0.1536
      6 C47         2.2880  118.4610   20.2940 C.ar      1 6CY        -0.0069
      7 C49         1.4230  118.1400   22.6090 C.1       1 6CY         0.1015
      8 C52         5.0330  119.6160   24.1440 C.3       1 6CY         0.0666
      9 C56        -1.8580  107.9540   13.8620 C.2       1 6CY         0.1755
     10 C58        -0.7110  106.9880   14.0930 C.3       1 6CY         0.0258
     11 C12        -2.9070  110.2490   13.5960 C.3       1 6CY         0.0542
     12 C15        -1.7070  113.0590   15.6120 C.2       1 6CY         0.2088
     13 C17        -0.3780  113.7120   15.9970 C.ar      1 6CY         0.0560
     14 C18         0.0260  114.9160   15.4040 C.ar      1 6CY        -0.0253
     15 C20         1.2330  115.5140   15.7890 C.ar      1 6CY         0.0185
     16 C21         2.1030  114.8450   16.6770 C.ar      1 6CY        -0.0413
     17 C23         1.7240  113.6430   17.2830 C.ar      1 6CY        -0.0504
     18 C25         0.4790  113.0970   16.9370 C.ar      1 6CY        -0.0372
     19 C27         1.6190  116.8150   15.1800 C.ar      1 6CY         0.0781
     20 C29         1.7170  118.1350   13.2240 C.ar      1 6CY         0.0795
     21 N1         -1.7480  109.3440   13.7980 N.am      1 6CY        -0.2696
     22 C5         -0.5980  110.8510   15.3020 C.3       1 6CY         0.0538
     23 N8         -1.8050  111.7170   15.2870 N.am      1 6CY        -0.2684
     24 C9         -3.0930  111.0950   14.8990 C.3       1 6CY         0.0538
     25 O16        -2.6800  113.8220   15.5890 O.2       1 6CY        -0.3843
     26 N28         1.3430  117.0130   13.8740 N.ar      1 6CY        -0.2603
     27 N31         2.3250  119.1270   13.8870 N.ar      1 6CY        -0.2731
     28 C32         2.6080  118.9990   15.1910 C.ar      1 6CY         0.0567
     29 C33         2.2040  117.8610   15.9060 C.ar      1 6CY         0.0356
     30 C34         2.4870  117.7870   17.2790 C.ar      1 6CY        -0.0329
     31 C36         3.1430  118.8320   17.9420 C.ar      1 6CY        -0.0057
     32 C37         3.5050  119.9850   17.2200 C.ar      1 6CY        -0.0449
     33 C39         3.2540  120.0570   15.8390 C.ar      1 6CY        -0.0341
     34 N44         4.7540  119.1570   21.3100 N.ar      1 6CY        -0.2584
     35 N50         0.5920  117.8520   23.3570 N.1       1 6CY        -0.3338
     36 O51         3.9420  118.8870   23.5680 O.3       1 6CY        -0.2917
     37 O57        -2.9210  107.3600   13.7230 O.2       1 6CY        -0.3972
     38 H1         -0.2301  110.6859   13.1427 H         1 6CY         0.0542
     39 H2          0.3593  109.2832   14.0975 H         1 6CY         0.0542
     40 H3          5.4088  119.3994   19.3128 H         1 6CY         0.0872
     41 H4          1.3162  118.1982   19.8919 H         1 6CY         0.0819
     42 H5          5.0124  119.5031   25.2380 H         1 6CY         0.0590
     43 H6          4.9407  120.6807   23.8835 H         1 6CY         0.0590
     44 H7          5.9833  119.2238   23.7527 H         1 6CY         0.0590
     45 H8         -1.0946  105.9570   14.0944 H         1 6CY         0.0467
     46 H9         -0.2386  107.2048   15.0624 H         1 6CY         0.0467
     47 H10         0.0317  107.1017   13.2896 H         1 6CY         0.0467
     48 H11        -3.8137  109.6569   13.4028 H         1 6CY         0.0542
     49 H12        -2.7156  110.9157   12.7423 H         1 6CY         0.0542
     50 H13        -0.5947  115.3839   14.6484 H         1 6CY         0.0724
     51 H14         3.0774  115.2685   16.8919 H         1 6CY         0.0703
     52 H15         2.3720  113.1487   17.9977 H         1 6CY         0.0642
     53 H16         0.1639  112.1722   17.4066 H         1 6CY         0.0708
     54 H17         1.5246  118.2336   12.1618 H         1 6CY         0.1105
     55 H18         0.2917  111.4866   15.4223 H         1 6CY         0.0542
     56 H19        -0.6710  110.1575   16.1527 H         1 6CY         0.0542
     57 H20        -3.4410  110.4406   15.7118 H         1 6CY         0.0542
     58 H21        -3.8385  111.8834   14.7183 H         1 6CY         0.0542
     59 H22         2.1925  116.9051   17.8363 H         1 6CY         0.0673
     60 H23         3.9773  120.8173   17.7292 H         1 6CY         0.0686
     61 H24         3.5607  120.9315   15.2766 H         1 6CY         0.0652
@<TRIPOS>BOND
     1    1   21 1  
     2   22    1 1  
     3    2    3 ar 
     4    2    6 ar 
     5   31    2 1  
     6    3   34 ar 
     7    5    4 ar 
     8   34    4 ar 
     9    4   36 1  
    10    6    5 ar 
    11    5    7 1  
    12    7   35 3  
    13   36    8 1  
    14    9   10 1  
    15   21    9 am 
    16    9   37 2  
    17   11   21 1  
    18   24   11 1  
    19   13   12 1  
    20   12   23 am 
    21   12   25 2  
    22   14   13 ar 
    23   13   18 ar 
    24   15   14 ar 
    25   15   16 ar 
    26   19   15 1  
    27   16   17 ar 
    28   17   18 ar 
    29   19   26 ar 
    30   29   19 ar 
    31   26   20 ar 
    32   27   20 ar 
    33   23   22 1  
    34   23   24 1  
    35   28   27 ar 
    36   29   28 ar 
    37   28   33 ar 
    38   30   29 ar 
    39   30   31 ar 
    40   31   32 ar 
    41   32   33 ar 
    42    1   38 1  
    43    1   39 1  
    44    3   40 1  
    45    6   41 1  
    46    8   42 1  
    47    8   43 1  
    48    8   44 1  
    49   10   45 1  
    50   10   46 1  
    51   10   47 1  
    52   11   48 1  
    53   11   49 1  
    54   14   50 1  
    55   16   51 1  
    56   17   52 1  
    57   18   53 1  
    58   20   54 1  
    59   22   55 1  
    60   22   56 1  
    61   24   57 1  
    62   24   58 1  
    63   30   59 1  
    64   32   60 1  
    65   33   61 1  
@<TRIPOS>SUBSTRUCTURE
     1 6CY         1

