### 
### Created by X-TOOL on Mon Sep 10 21:13:27 2018
### 

@<TRIPOS>MOLECULE
5ito_ligand
   35    34     1     0     0
SMALL
GAST_HUCK


@<TRIPOS>ATOM
      1 O          21.2640   -4.8220   -3.1330 O.co2     1 6DB        -0.5643
      2 C          20.2450   -5.4670   -2.7580 C.2       1 6DB         0.0842
      3 CA         20.0820   -6.9120   -3.1950 C.3       1 6DB         0.0288
      4 CB         20.7250   -7.7870   -2.1530 C.3       1 6DB        -0.0094
      5 N          18.6790   -7.2930   -3.4940 N.4       1 6DB         0.2545
      6 CAI        17.8750   -6.3720   -4.3340 C.3       1 6DB         0.0318
      7 CAE        16.5240   -6.9810   -4.6230 C.2       1 6DB         0.0845
      8 OAB        15.5970   -6.3120   -5.1710 O.co2     1 6DB        -0.5643
      9 OAF        16.3200   -8.1880   -4.3250 O.co2     1 6DB        -0.5643
     10 CAK        18.5380   -5.9700   -5.6470 C.3       1 6DB         0.0057
     11 CAL        18.9000   -7.1410   -6.5190 C.3       1 6DB        -0.0131
     12 CAM        19.5450   -6.8800   -7.8250 C.3       1 6DB         0.0628
     13 NAN        20.1890   -8.0740   -8.3210 N.pl3     1 6DB        -0.2723
     14 CAP        20.9090   -8.0820   -9.5540 C.cat     1 6DB         0.2882
     15 NAO        21.0150   -7.0200  -10.2750 N.pl3     1 6DB        -0.2849
     16 NAQ        21.4870   -9.2040   -9.9140 N.pl3     1 6DB        -0.2849
     17 OXT        19.3670   -4.9590   -2.0160 O.co2     1 6DB        -0.5643
     18 H1         20.6458   -7.0399   -4.1308 H         1 6DB         0.1022
     19 H2         20.6211   -8.8423   -2.4455 H         1 6DB         0.0303
     20 H3         20.2319   -7.6251   -1.1832 H         1 6DB         0.0303
     21 H4         21.7920   -7.5333   -2.0688 H         1 6DB         0.0303
     22 H5         18.1999   -7.3911   -2.6126 H         1 6DB         0.2047
     23 H6         18.7034   -8.1843   -3.9642 H         1 6DB         0.2047
     24 H7         17.7199   -5.4524   -3.7507 H         1 6DB         0.1025
     25 H8         19.4565   -5.4105   -5.4164 H         1 6DB         0.0340
     26 H9         17.8443   -5.3227   -6.2036 H         1 6DB         0.0340
     27 H10        17.9709   -7.6940   -6.7212 H         1 6DB         0.0302
     28 H11        19.5862   -7.7764   -5.9399 H         1 6DB         0.0302
     29 H12        20.2975   -6.0868   -7.7046 H         1 6DB         0.0689
     30 H13        18.7814   -6.5546   -8.5468 H         1 6DB         0.0689
     31 H14        20.1272   -8.9425   -7.7708 H         1 6DB         0.2642
     32 H15        21.5394   -7.0493  -11.1611 H         1 6DB         0.2615
     33 H16        20.5754   -6.1414   -9.9655 H         1 6DB         0.2615
     34 H17        21.3921  -10.0441   -9.3257 H         1 6DB         0.2615
     35 H18        22.0355   -9.2444  -10.7849 H         1 6DB         0.2615
@<TRIPOS>BOND
     1    1    2 ar 
     2    2    3 1  
     3    2   17 ar 
     4    3    4 1  
     5    3    5 1  
     6    5    6 1  
     7    6    7 1  
     8    6   10 1  
     9    7    8 ar 
    10    7    9 ar 
    11   10   11 1  
    12   11   12 1  
    13   12   13 1  
    14   13   14 ar 
    15   14   15 ar 
    16   14   16 ar 
    17    3   18 1  
    18    4   19 1  
    19    4   20 1  
    20    4   21 1  
    21    5   22 1  
    22    5   23 1  
    23    6   24 1  
    24   10   25 1  
    25   10   26 1  
    26   11   27 1  
    27   11   28 1  
    28   12   29 1  
    29   12   30 1  
    30   13   31 1  
    31   15   32 1  
    32   15   33 1  
    33   16   34 1  
    34   16   35 1  
@<TRIPOS>SUBSTRUCTURE
     1 6DB         1

