### 
### Created by X-TOOL on Mon Sep 10 21:13:27 2018
### 

@<TRIPOS>MOLECULE
5itp_ligand
   35    34     1     0     0
SMALL
GAST_HUCK


@<TRIPOS>ATOM
      1 O         -14.0890   80.6440   -1.0480 O.co2     1 6DB        -0.5643
      2 C         -14.9730   81.1900   -0.3570 C.2       1 6DB         0.0842
      3 CA        -16.1030   80.3180    0.1940 C.3       1 6DB         0.0288
      4 CB        -17.3000   80.4030   -0.6870 C.3       1 6DB        -0.0094
      5 N         -15.7070   78.9190    0.3770 N.4       1 6DB         0.2545
      6 CAI       -14.5160   78.6470    1.1760 C.3       1 6DB         0.0318
      7 CAE       -14.3840   77.1710    1.4660 C.2       1 6DB         0.0845
      8 OAB       -15.2870   76.3690    1.1180 O.co2     1 6DB        -0.5643
      9 OAF       -13.3670   76.7530    2.0870 O.co2     1 6DB        -0.5643
     10 CAK       -14.4440   79.3840    2.5350 C.3       1 6DB         0.0057
     11 CAL       -15.5650   79.0000    3.4850 C.3       1 6DB        -0.0131
     12 CAM       -15.5400   79.6600    4.8660 C.3       1 6DB         0.0628
     13 NAN       -16.9060   79.5900    5.4490 N.pl3     1 6DB        -0.2723
     14 CAP       -17.3390   80.3130    6.6040 C.cat     1 6DB         0.2882
     15 NAO       -18.5740   80.1920    7.0290 N.pl3     1 6DB        -0.2849
     16 NAQ       -16.4600   81.0110    7.2380 N.pl3     1 6DB        -0.2849
     17 OXT       -14.9240   82.4210   -0.1140 O.co2     1 6DB        -0.5643
     18 H1        -16.3776   80.7168    1.1817 H         1 6DB         0.1022
     19 H2        -18.1022   79.7714   -0.2776 H         1 6DB         0.0303
     20 H3        -17.0377   80.0540   -1.6966 H         1 6DB         0.0303
     21 H4        -17.6446   81.4464   -0.7377 H         1 6DB         0.0303
     22 H5        -15.5498   78.5289   -0.5390 H         1 6DB         0.2047
     23 H6        -16.4791   78.4432    0.8169 H         1 6DB         0.2047
     24 H7        -13.6497   78.9653    0.5774 H         1 6DB         0.1025
     25 H8        -14.4994   80.4667    2.3487 H         1 6DB         0.0340
     26 H9        -13.4830   79.1428    3.0129 H         1 6DB         0.0340
     27 H10       -15.5203   77.9110    3.6333 H         1 6DB         0.0302
     28 H11       -16.5178   79.2658    3.0039 H         1 6DB         0.0302
     29 H12       -15.2318   80.7115    4.7689 H         1 6DB         0.0689
     30 H13       -14.8310   79.1288    5.5180 H         1 6DB         0.0689
     31 H14       -17.5910   78.9752    4.9866 H         1 6DB         0.2642
     32 H15       -18.8857   80.7130    7.8611 H         1 6DB         0.2615
     33 H16       -19.2321   79.5760    6.5306 H         1 6DB         0.2615
     34 H17       -15.4993   81.0831    6.8737 H         1 6DB         0.2615
     35 H18       -16.7184   81.4966    8.1088 H         1 6DB         0.2615
@<TRIPOS>BOND
     1    1    2 ar 
     2    2    3 1  
     3    2   17 ar 
     4    3    4 1  
     5    3    5 1  
     6    5    6 1  
     7    6    7 1  
     8    6   10 1  
     9    7    8 ar 
    10    7    9 ar 
    11   10   11 1  
    12   11   12 1  
    13   12   13 1  
    14   13   14 ar 
    15   14   15 ar 
    16   14   16 ar 
    17    3   18 1  
    18    4   19 1  
    19    4   20 1  
    20    4   21 1  
    21    5   22 1  
    22    5   23 1  
    23    6   24 1  
    24   10   25 1  
    25   10   26 1  
    26   11   27 1  
    27   11   28 1  
    28   12   29 1  
    29   12   30 1  
    30   13   31 1  
    31   15   32 1  
    32   15   33 1  
    33   16   34 1  
    34   16   35 1  
@<TRIPOS>SUBSTRUCTURE
     1 6DB         1

