### 
### Created by X-TOOL on Mon Sep 10 21:13:30 2018
### 

@<TRIPOS>MOLECULE
5iu2_ligand
   63    69     1     0     0
SMALL
GAST_HUCK


@<TRIPOS>ATOM
      1 C1        -21.4730   10.8310   -6.6370 C.3       1 6DA        -0.0101
      2 C2        -21.9770   10.5250   -8.9840 C.3       1 6DA        -0.0078
      3 C3        -21.3880   10.3700  -10.3700 C.3       1 6DA         0.0878
      4 C11       -15.1030    9.7920   -2.8040 C.ar      1 6DA        -0.0182
      5 C12       -16.3000    9.8840   -3.5070 C.ar      1 6DA         0.0456
      6 C13       -13.0330    7.9290   -0.7480 C.2       1 6DA         0.1263
      7 C14       -11.0960    8.2780   -1.5820 C.ar      1 6DA         0.0713
      8 C15        -9.7620    8.4080   -1.9650 C.ar      1 6DA         0.0165
      9 C16       -10.2110    9.1460   -4.0900 C.ar      1 6DA         0.0614
     10 C17        -9.8690    9.6230   -5.4190 C.ar      1 6DA         0.0265
     11 C18       -12.0200    9.8380   -6.1290 C.ar      1 6DA         0.0502
     12 C19       -12.4980    9.3900   -4.9300 C.ar      1 6DA        -0.0190
     13 C20       -11.6130    9.0640   -3.8710 C.ar      1 6DA         0.0491
     14 C21       -12.0180    8.5930   -2.5820 C.ar      1 6DA         0.1352
     15 C22       -12.9610   10.2570   -7.1990 C.ar      1 6DA        -0.0038
     16 C23       -14.2060   10.8060   -6.8810 C.ar      1 6DA        -0.0521
     17 C24       -15.0930   11.1780   -7.8770 C.ar      1 6DA        -0.0603
     18 C25       -14.7520   11.0240   -9.2070 C.ar      1 6DA        -0.0609
     19 C26       -13.5220   10.4930   -9.5410 C.ar      1 6DA        -0.0603
     20 C27       -12.6370   10.1010   -8.5480 C.ar      1 6DA        -0.0521
     21 N6        -10.7030    9.9640   -6.3770 N.ar      1 6DA        -0.2913
     22 N5         -9.2930    8.8410   -3.1180 N.ar      1 6DA        -0.3017
     23 N4        -11.7620    7.8340   -0.4410 N.2       1 6DA        -0.2930
     24 N3        -13.2760    8.4060   -2.0190 N.pl3     1 6DA        -0.1869
     25 C10       -14.5410    8.5250   -2.6270 C.ar      1 6DA         0.0903
     26 C9        -15.1580    7.3920   -3.1660 C.ar      1 6DA        -0.0393
     27 C8        -16.3690    7.4930   -3.8280 C.ar      1 6DA        -0.0657
     28 C7        -16.9550    8.7480   -4.0030 C.ar      1 6DA         0.0046
     29 N2        -18.1670    8.9920   -4.6460 N.2       1 6DA        -0.3119
     30 S         -17.2460   11.3050   -3.8430 S.3       1 6DA         0.0253
     31 C6        -18.4280   10.2680   -4.6160 C.2       1 6DA         0.1828
     32 N1        -19.5020   10.8430   -5.1680 N.pl3     1 6DA        -0.2756
     33 C         -20.7050   10.1110   -5.5480 C.3       1 6DA         0.0746
     34 N         -20.9060   10.6390   -7.9790 N.4       1 6DA         0.2400
     35 C5        -20.0130   11.7540   -8.3420 C.3       1 6DA        -0.0078
     36 C4        -19.4640   11.5510   -9.7340 C.3       1 6DA         0.0878
     37 O         -20.5120   11.4530  -10.6980 O.3       1 6DA        -0.3693
     38 H1        -21.4729   11.9073   -6.4098 H         1 6DA         0.0835
     39 H2        -22.5074   10.4567   -6.6393 H         1 6DA         0.0835
     40 H3        -22.5975    9.6464   -8.7538 H         1 6DA         0.0837
     41 H4        -22.5994   11.4315   -8.9543 H         1 6DA         0.0837
     42 H5        -22.2069   10.3394  -11.1038 H         1 6DA         0.0613
     43 H6        -20.8216    9.4280  -10.4132 H         1 6DA         0.0613
     44 H7        -14.6206   10.6771   -2.4053 H         1 6DA         0.0519
     45 H8        -13.8294    7.6545   -0.0579 H         1 6DA         0.1370
     46 H9         -9.0227    8.1186   -1.2269 H         1 6DA         0.0864
     47 H10        -8.8122    9.7069   -5.6454 H         1 6DA         0.0861
     48 H11       -13.5671    9.2824   -4.7865 H         1 6DA         0.0725
     49 H12       -14.4809   10.9424   -5.8413 H         1 6DA         0.0632
     50 H13       -16.0592   11.5919   -7.6121 H         1 6DA         0.0620
     51 H14       -15.4471   11.3188   -9.9849 H         1 6DA         0.0625
     52 H15       -13.2470   10.3821  -10.5837 H         1 6DA         0.0620
     53 H16       -11.6819    9.6681   -8.8226 H         1 6DA         0.0632
     54 H17       -14.6823    6.4233   -3.0641 H         1 6DA         0.0522
     55 H18       -16.8592    6.6039   -4.2080 H         1 6DA         0.0526
     56 H19       -19.4783   11.8593   -5.3340 H         1 6DA         0.1927
     57 H20       -20.4163    9.1145   -5.9135 H         1 6DA         0.0585
     58 H21       -21.3522   10.0045   -4.6650 H         1 6DA         0.0585
     59 H22       -20.3707    9.7849   -7.9785 H         1 6DA         0.2036
     60 H23       -19.1793   11.7997   -7.6258 H         1 6DA         0.0837
     61 H24       -20.5776   12.6974   -8.3082 H         1 6DA         0.0837
     62 H25       -18.8720   10.6241   -9.7536 H         1 6DA         0.0613
     63 H26       -18.8189   12.4037   -9.9922 H         1 6DA         0.0613
@<TRIPOS>BOND
     1   33    1 1  
     2    1   34 1  
     3    2    3 1  
     4   34    2 1  
     5    3   37 1  
     6    5    4 ar 
     7    4   25 ar 
     8    5   28 ar 
     9   30    5 1  
    10    6   23 2  
    11   24    6 1  
    12    7    8 ar 
    13   14    7 ar 
    14    7   23 1  
    15    8   22 ar 
    16    9   10 ar 
    17   13    9 ar 
    18    9   22 ar 
    19   10   21 ar 
    20   12   11 ar 
    21   11   15 1  
    22   11   21 ar 
    23   13   12 ar 
    24   14   13 ar 
    25   24   14 1  
    26   15   16 ar 
    27   15   20 ar 
    28   16   17 ar 
    29   17   18 ar 
    30   19   18 ar 
    31   20   19 ar 
    32   25   24 1  
    33   25   26 ar 
    34   27   26 ar 
    35   28   27 ar 
    36   29   28 1  
    37   31   29 2  
    38   31   30 1  
    39   32   31 1  
    40   32   33 1  
    41   34   35 1  
    42   35   36 1  
    43   36   37 1  
    44    1   38 1  
    45    1   39 1  
    46    2   40 1  
    47    2   41 1  
    48    3   42 1  
    49    3   43 1  
    50    4   44 1  
    51    6   45 1  
    52    8   46 1  
    53   10   47 1  
    54   12   48 1  
    55   16   49 1  
    56   17   50 1  
    57   18   51 1  
    58   19   52 1  
    59   20   53 1  
    60   26   54 1  
    61   27   55 1  
    62   32   56 1  
    63   33   57 1  
    64   33   58 1  
    65   34   59 1  
    66   35   60 1  
    67   35   61 1  
    68   36   62 1  
    69   36   63 1  
@<TRIPOS>SUBSTRUCTURE
     1 6DA         1

