### 
### Created by X-TOOL on Mon Sep 10 21:13:27 2018
### 

@<TRIPOS>MOLECULE
5iu4_ligand
   41    44     1     0     0
SMALL
GAST_HUCK


@<TRIPOS>ATOM
      1 C1        -21.3110   13.6780   14.2930 C.ar      1 ZMA        -0.0687
      2 C2        -20.9800   15.0320   14.4720 C.ar      1 ZMA        -0.0398
      3 C3        -19.7940   15.3590   15.1440 C.ar      1 ZMA         0.0805
      4 O4        -19.4840   16.6830   15.3070 O.3       1 ZMA        -0.3376
      5 C5        -18.9350   14.3450   15.6390 C.ar      1 ZMA        -0.0398
      6 C6        -19.2840   13.0100   15.4640 C.ar      1 ZMA        -0.0687
      7 C7        -20.4550   12.6670   14.7910 C.ar      1 ZMA        -0.0516
      8 C8        -20.8530   11.2070   14.5760 C.3       1 ZMA        -0.0023
      9 C9        -21.8460   10.9830   15.7380 C.3       1 ZMA         0.0445
     10 N10       -22.2400    9.5910   15.9280 N.pl3     1 ZMA        -0.2786
     11 C11       -21.4300    8.7350   16.5910 C.ar      1 ZMA         0.1927
     12 N12       -21.8300    7.4370   16.7600 N.ar      1 ZMA        -0.2077
     13 N13       -20.2320    9.1740   17.0650 N.ar      1 ZMA        -0.2135
     14 C14       -19.4060    8.3240   17.7370 C.ar      1 ZMA         0.2184
     15 N15       -18.2390    8.8040   18.1830 N.pl3     1 ZMA        -0.2874
     16 N16       -19.8110    7.0530   17.8960 N.ar      1 ZMA        -0.1571
     17 N17       -19.1300    6.0500   18.5340 N.2       1 ZMA        -0.1422
     18 C18       -20.9960    6.6250   17.4270 C.ar      1 ZMA         0.2435
     19 N19       -21.1870    5.3230   17.7370 N.pl3     1 ZMA        -0.1921
     20 C20       -20.0390    5.0510   18.3930 C.2       1 ZMA         0.2664
     21 C21       -19.7180    3.7290   18.9260 C.2       1 ZMA         0.2490
     22 C22       -20.5960    2.6920   19.1550 C.2       1 ZMA         0.0235
     23 C23       -19.7220    1.7120   19.6530 C.2       1 ZMA         0.0130
     24 C24       -18.4320    2.2190   19.6910 C.2       1 ZMA         0.1505
     25 O25       -18.4080    3.5270   19.2200 O.3       1 ZMA        -0.1861
     26 H1        -22.2229   13.4077   13.7730 H         1 ZMA         0.0530
     27 H2        -21.6321   15.8120   14.0960 H         1 ZMA         0.0525
     28 H3        -18.6608   16.7590   15.7750 H         1 ZMA         0.2458
     29 H4        -18.0152   14.6078   16.1489 H         1 ZMA         0.0525
     30 H5        -18.6400   12.2302   15.8542 H         1 ZMA         0.0530
     31 H6        -19.9837   10.5378   14.6560 H         1 ZMA         0.0426
     32 H7        -21.3384   11.0626   13.5995 H         1 ZMA         0.0426
     33 H8        -22.7519   11.5734   15.5363 H         1 ZMA         0.0561
     34 H9        -21.3759   11.3383   16.6669 H         1 ZMA         0.0561
     35 H10       -23.1406    9.2584   15.5548 H         1 ZMA         0.1971
     36 H11       -17.9941    9.7918   18.0245 H         1 ZMA         0.1966
     37 H12       -17.5857    8.1856   18.6847 H         1 ZMA         0.1966
     38 H13       -21.9872    4.7085   17.5299 H         1 ZMA         0.2437
     39 H14       -21.6720    2.6452   18.9940 H         1 ZMA         0.0819
     40 H15       -20.0125    0.7089   19.9616 H         1 ZMA         0.0636
     41 H16       -17.5594    1.6694   20.0409 H         1 ZMA         0.1574
@<TRIPOS>BOND
     1    1    2 ar 
     2    1    7 ar 
     3    2    3 ar 
     4    3    4 1  
     5    3    5 ar 
     6    5    6 ar 
     7    6    7 ar 
     8    7    8 1  
     9    8    9 1  
    10    9   10 1  
    11   10   11 1  
    12   11   12 ar 
    13   11   13 ar 
    14   12   18 ar 
    15   13   14 ar 
    16   14   15 1  
    17   14   16 ar 
    18   16   17 1  
    19   16   18 ar 
    20   17   20 2  
    21   18   19 1  
    22   19   20 1  
    23   20   21 1  
    24   21   22 2  
    25   21   25 1  
    26   22   23 1  
    27   23   24 2  
    28   24   25 1  
    29    1   26 1  
    30    2   27 1  
    31    4   28 1  
    32    5   29 1  
    33    6   30 1  
    34    8   31 1  
    35    8   32 1  
    36    9   33 1  
    37    9   34 1  
    38   10   35 1  
    39   15   36 1  
    40   15   37 1  
    41   19   38 1  
    42   22   39 1  
    43   23   40 1  
    44   24   41 1  
@<TRIPOS>SUBSTRUCTURE
     1 ZMA         1

