### 
### Created by X-TOOL on Wed Jan  1 15:39:34 2020
### 

@<TRIPOS>MOLECULE
5iu6_ligand
   15    16     1     0     0
SMALL
GAST_HUCK


@<TRIPOS>ATOM
      1 O6        -19.8530   45.1150   20.5480 O.2       1 7HX        -0.4060
      2 C6        -19.6940   44.1220   21.2760 C.2       1 7HX         0.2081
      3 N1        -20.6830   43.5380   22.0130 N.am      1 7HX        -0.2064
      4 C2        -20.4480   42.4570   22.8050 C.2       1 7HX         0.1245
      5 N3        -19.2130   41.9120   22.9160 N.2       1 7HX        -0.2742
      6 C4        -18.1420   42.4220   22.2210 C.2       1 7HX         0.1099
      7 C5        -18.3260   43.5820   21.3360 C.2       1 7HX         0.0435
      8 N9        -16.8190   42.1390   22.0800 N.pl3     1 7HX        -0.2797
      9 C8        -16.1660   43.0080   21.2150 C.2       1 7HX         0.0116
     10 C7        -17.0770   43.9220   20.7320 C.2       1 7HX        -0.0715
     11 H1        -21.6079   43.9158   21.9696 H         1 7HX         0.2545
     12 H2        -21.2737   42.0189   23.3638 H         1 7HX         0.1472
     13 H3        -16.3498   41.3606   22.5646 H         1 7HX         0.2321
     14 H4        -15.1078   42.9727   20.9604 H         1 7HX         0.0774
     15 H5        -16.8846   44.7355   20.0340 H         1 7HX         0.0290
@<TRIPOS>BOND
     1    1    2 2  
     2    2    3 am 
     3    2    7 1  
     4    3    4 1  
     5    4    5 2  
     6    5    6 1  
     7    6    7 2  
     8    6    8 1  
     9    7   10 1  
    10    8    9 1  
    11    9   10 2  
    12    3   11 1  
    13    4   12 1  
    14    8   13 1  
    15    9   14 1  
    16   10   15 1  
@<TRIPOS>SUBSTRUCTURE
     1 7HX         1

