### 
### Created by X-TOOL on Mon Sep 10 21:13:27 2018
### 

@<TRIPOS>MOLECULE
5iu7_ligand
   55    59     1     0     0
SMALL
GAST_HUCK


@<TRIPOS>ATOM
      1 C10         0.3750   14.2570   13.1980 C.3       1 6DY         0.0002
      2 C13         0.3080   12.8360   15.6550 C.3       1 6DY        -0.0297
      3 C15         3.1880   16.0580   12.9710 C.ar      1 6DY        -0.0601
      4 C17         3.7830   18.2890   13.6900 C.ar      1 6DY        -0.0687
      5 C21        -1.2760    6.6520   17.4860 C.2       1 6DY         0.2149
      6 C23        -0.2370    5.0050   18.4870 C.2       1 6DY         0.1092
      7 C18         2.9170   18.0990   14.7720 C.ar      1 6DY        -0.0686
      8 C19         2.2040   16.9070   14.9270 C.ar      1 6DY        -0.0601
      9 C16         3.9020   17.2340   12.7900 C.ar      1 6DY        -0.0686
     10 C12         0.9510   14.2120   15.5810 C.3       1 6DY         0.0002
     11 C14         2.3130   15.8070   14.0410 C.ar      1 6DY        -0.0396
     12 C11         1.5300   14.4950   14.1770 C.3       1 6DY         0.0022
     13 N01         1.5640    8.8600   18.3380 N.pl3     1 6DY        -0.2658
     14 C02         0.3600    8.4130   17.8420 C.2       1 6DY         0.2974
     15 N03        -0.4680    9.2510   17.1870 N.2       1 6DY        -0.2113
     16 C04        -1.7030    8.7770   16.6750 C.2       1 6DY         0.1655
     17 N05        -2.4590    9.7180   16.0480 N.pl3     1 6DY        -0.2812
     18 C06        -2.1570   11.0710   15.8450 C.3       1 6DY         0.0736
     19 C07        -1.2130   11.2540   14.6530 C.3       1 6DY        -0.0104
     20 N08        -0.7940   12.6860   14.6470 N.4       1 6DY         0.2370
     21 C09        -0.2180   12.8710   13.2620 C.3       1 6DY        -0.0297
     22 N20        -2.0940    7.5130   16.8150 N.2       1 6DY        -0.2506
     23 N22        -1.3960    5.3500   17.7940 N.2       1 6DY        -0.2964
     24 N24         0.6320    6.0510   18.6060 N.2       1 6DY        -0.1784
     25 N25         0.0020    7.0930   18.0240 N.pl3     1 6DY        -0.0713
     26 C26         0.0330    3.6970   18.9720 C.2       1 6DY         0.1370
     27 C27        -0.7500    2.5970   19.1940 C.2       1 6DY        -0.0528
     28 C28         0.1000    1.5130   19.6750 C.2       1 6DY        -0.0595
     29 C29         1.4020    2.0660   19.7150 C.2       1 6DY         0.0828
     30 O30         1.3240    3.3890   19.2950 O.3       1 6DY        -0.2592
     31 H1          0.7486   14.4249   12.1771 H         1 6DY         0.0342
     32 H2         -0.4209   14.9827   13.4212 H         1 6DY         0.0342
     33 H3         -0.1079   12.6900   16.6628 H         1 6DY         0.0816
     34 H4          1.0756   12.0724   15.4609 H         1 6DY         0.0816
     35 H5          3.3148   15.2751   12.2321 H         1 6DY         0.0557
     36 H6          4.3346   19.2129   13.5589 H         1 6DY         0.0559
     37 H7          2.7968   18.8902   15.5031 H         1 6DY         0.0599
     38 H8          1.5304   16.8193   15.7718 H         1 6DY         0.0557
     39 H9          4.5618   17.3324   11.9356 H         1 6DY         0.0599
     40 H10         1.7641   14.2662   16.3199 H         1 6DY         0.0342
     41 H11         0.1923   14.9735   15.8142 H         1 6DY         0.0342
     42 H12         2.2729   13.7091   13.9760 H         1 6DY         0.0465
     43 H13         1.8414    9.8434   18.2079 H         1 6DY         0.1953
     44 H14         2.1874    8.2110   18.8392 H         1 6DY         0.1953
     45 H15        -3.3645    9.3965   15.6770 H         1 6DY         0.1911
     46 H16        -1.6749   11.4708   16.7493 H         1 6DY         0.0583
     47 H17        -3.0894   11.6220   15.6523 H         1 6DY         0.0583
     48 H18        -1.7348   11.0088   13.7162 H         1 6DY         0.0835
     49 H19        -0.3332   10.6031   14.7639 H         1 6DY         0.0835
     50 H20        -1.5574   13.3169   14.8343 H         1 6DY         0.2034
     51 H21         0.5635   12.1193   13.0770 H         1 6DY         0.0816
     52 H22        -1.0123   12.7673   12.5082 H         1 6DY         0.0816
     53 H23        -1.8263    2.5402   19.0380 H         1 6DY         0.0394
     54 H24        -0.2011    0.5016   19.9439 H         1 6DY         0.0360
     55 H25         2.3080    1.5454   20.0216 H         1 6DY         0.1013
@<TRIPOS>BOND
     1   12    1 1  
     2    1   21 1  
     3    2   10 1  
     4   20    2 1  
     5    3    9 ar 
     6   11    3 ar 
     7    7    4 ar 
     8    9    4 ar 
     9   22    5 1  
    10    5   23 2  
    11    5   25 1  
    12   23    6 1  
    13    6   24 2  
    14    6   26 1  
    15    8    7 ar 
    16   11    8 ar 
    17   10   12 1  
    18   12   11 1  
    19   14   13 1  
    20   15   14 2  
    21   14   25 1  
    22   16   15 1  
    23   17   16 1  
    24   16   22 2  
    25   18   17 1  
    26   19   18 1  
    27   19   20 1  
    28   20   21 1  
    29   24   25 1  
    30   26   27 2  
    31   26   30 1  
    32   27   28 1  
    33   28   29 2  
    34   29   30 1  
    35    1   31 1  
    36    1   32 1  
    37    2   33 1  
    38    2   34 1  
    39    3   35 1  
    40    4   36 1  
    41    7   37 1  
    42    8   38 1  
    43    9   39 1  
    44   10   40 1  
    45   10   41 1  
    46   12   42 1  
    47   13   43 1  
    48   13   44 1  
    49   17   45 1  
    50   18   46 1  
    51   18   47 1  
    52   19   48 1  
    53   19   49 1  
    54   20   50 1  
    55   21   51 1  
    56   21   52 1  
    57   27   53 1  
    58   28   54 1  
    59   29   55 1  
@<TRIPOS>SUBSTRUCTURE
     1 6DY         1

