### 
### Created by X-TOOL on Mon Sep 10 21:13:27 2018
### 

@<TRIPOS>MOLECULE
5iu8_ligand
   48    51     1     0     0
SMALL
GAST_HUCK


@<TRIPOS>ATOM
      1 N12       -20.9350    5.3830   17.7500 N.2       1 6DZ        -0.2964
      2 C13       -19.8330    5.0060   18.4450 C.2       1 6DZ         0.1092
      3 C20       -20.4510    2.6120   19.2170 C.2       1 6DZ        -0.0528
      4 C21       -19.7350    1.5240   19.7000 C.2       1 6DZ        -0.0595
      5 C22       -18.3990    1.8890   19.7530 C.2       1 6DZ         0.0828
      6 C24       -19.6060   13.0600   15.6520 C.3       1 6DZ         0.0095
      7 C01       -18.8750   16.3740   14.7430 C.3       1 6DZ        -0.0427
      8 N02       -19.0470   15.1190   14.5710 N.4       1 6DZ         0.2405
      9 C03       -20.0920   14.9190   13.7300 C.3       1 6DZ         0.0092
     10 C04       -20.4780   13.4570   13.6270 C.3       1 6DZ         0.0095
     11 N05       -20.6880   12.9210   14.8500 N.4       1 6DZ         0.2442
     12 C06       -21.0210   11.6910   14.7430 C.3       1 6DZ        -0.0100
     13 C07       -21.6910   11.2090   16.0130 C.3       1 6DZ         0.0736
     14 N08       -22.0080    9.8260   15.9130 N.pl3     1 6DZ        -0.2812
     15 C09       -21.1980    8.8940   16.6090 C.2       1 6DZ         0.1655
     16 N10       -21.5990    7.6170   16.7620 N.2       1 6DZ        -0.2506
     17 C11       -20.7910    6.7280   17.4420 C.2       1 6DZ         0.2149
     18 N14       -19.0230    6.0730   18.5640 N.2       1 6DZ        -0.1784
     19 N15       -19.6360    7.1320   17.9380 N.pl3     1 6DZ        -0.0713
     20 C16       -19.2310    8.4390   17.7800 C.2       1 6DZ         0.2974
     21 N17       -17.9880    8.8670   18.3140 N.pl3     1 6DZ        -0.2658
     22 N18       -20.0170    9.3040   17.1180 N.2       1 6DZ        -0.2113
     23 C19       -19.5360    3.6270   18.9840 C.2       1 6DZ         0.1370
     24 O23       -18.3090    3.1640   19.3120 O.3       1 6DZ        -0.2592
     25 C25       -19.1910   14.5120   15.7750 C.3       1 6DZ         0.0092
     26 H1        -21.5265    2.6587   19.0527 H         1 6DZ         0.0394
     27 H2        -20.1489    0.5581   19.9856 H         1 6DZ         0.0360
     28 H3        -17.5731    1.2635   20.0884 H         1 6DZ         0.1013
     29 H4        -18.7703   12.4838   15.2284 H         1 6DZ         0.0868
     30 H5        -19.8496   12.6717   16.6519 H         1 6DZ         0.0868
     31 H6        -18.7583   16.8654   13.7658 H         1 6DZ         0.0778
     32 H7        -17.9713   16.5408   15.3475 H         1 6DZ         0.0778
     33 H8        -19.7474   16.7957   15.2636 H         1 6DZ         0.0778
     34 H9        -18.2228   14.7389   14.1326 H         1 6DZ         0.2035
     35 H10       -19.8151   15.2827   12.7295 H         1 6DZ         0.0868
     36 H11       -20.9576   15.4878   14.1004 H         1 6DZ         0.0868
     37 H12       -19.6674   12.9059   13.1278 H         1 6DZ         0.0868
     38 H13       -21.4002   13.3700   13.0337 H         1 6DZ         0.0868
     39 H14       -21.4543   13.4165   15.2781 H         1 6DZ         0.2038
     40 H15       -20.1204   11.0872   14.5576 H         1 6DZ         0.0835
     41 H16       -21.7188   11.5771   13.9003 H         1 6DZ         0.0835
     42 H17       -22.6160   11.7819   16.1746 H         1 6DZ         0.0583
     43 H18       -21.0104   11.3641   16.8631 H         1 6DZ         0.0583
     44 H19       -22.8083    9.5088   15.3474 H         1 6DZ         0.1911
     45 H20       -17.6858    9.8445   18.1955 H         1 6DZ         0.1953
     46 H21       -17.3879    8.2002   18.8201 H         1 6DZ         0.1953
     47 H22       -18.2311   14.5595   16.3100 H         1 6DZ         0.0868
     48 H23       -19.9587   15.0499   16.3506 H         1 6DZ         0.0868
@<TRIPOS>BOND
     1    1    2 1  
     2   17    1 2  
     3    2   18 2  
     4    2   23 1  
     5    3    4 1  
     6   23    3 2  
     7    4    5 2  
     8    5   24 1  
     9   11    6 1  
    10    6   25 1  
    11    8    7 1  
    12    9    8 1  
    13   25    8 1  
    14   10    9 1  
    15   11   10 1  
    16   12   11 1  
    17   13   12 1  
    18   14   13 1  
    19   15   14 1  
    20   16   15 2  
    21   15   22 1  
    22   16   17 1  
    23   17   19 1  
    24   18   19 1  
    25   19   20 1  
    26   20   21 1  
    27   20   22 2  
    28   23   24 1  
    29    3   26 1  
    30    4   27 1  
    31    5   28 1  
    32    6   29 1  
    33    6   30 1  
    34    7   31 1  
    35    7   32 1  
    36    7   33 1  
    37    8   34 1  
    38    9   35 1  
    39    9   36 1  
    40   10   37 1  
    41   10   38 1  
    42   11   39 1  
    43   12   40 1  
    44   12   41 1  
    45   13   42 1  
    46   13   43 1  
    47   14   44 1  
    48   21   45 1  
    49   21   46 1  
    50   25   47 1  
    51   25   48 1  
@<TRIPOS>SUBSTRUCTURE
     1 6DZ         1

