### 
### Created by X-TOOL on Mon Sep 10 21:13:28 2018
### 

@<TRIPOS>MOLECULE
5iua_ligand
   57    61     1     0     0
SMALL
GAST_HUCK


@<TRIPOS>ATOM
      1 C10       -21.0550   14.8060   14.4660 C.3       1 6DX        -0.0117
      2 C13       -18.7130   14.3340   15.8520 C.3       1 6DX         0.0669
      3 C15       -18.1010   16.1010   14.2420 C.ar      1 6DX         0.0405
      4 C17       -16.7530   15.7550   12.2670 C.ar      1 6DX        -0.0737
      5 C20       -17.8270   17.4590   14.1880 C.ar      1 6DX        -0.0443
      6 C22       -21.0760    6.6640   17.4580 C.2       1 6DX         0.2149
      7 C24       -20.0150    4.9930   18.4320 C.2       1 6DX         0.1092
      8 C18       -16.4800   17.1150   12.2170 C.ar      1 6DX        -0.0751
      9 C19       -17.0150   17.9660   13.1740 C.ar      1 6DX        -0.0737
     10 C16       -17.5620   15.2500   13.2780 C.ar      1 6DX        -0.0443
     11 C14       -19.4730   13.2170   15.1180 C.3       1 6DX        -0.0117
     12 C11       -20.3040   15.8560   15.2850 C.3       1 6DX         0.0669
     13 N01       -18.2590    8.8970   18.0590 N.pl3     1 6DX        -0.2658
     14 C02       -19.5380    8.4200   17.6300 C.2       1 6DX         0.2974
     15 N03       -20.4050    9.2450   17.0000 N.2       1 6DX        -0.2113
     16 C04       -21.6240    8.7800   16.5920 C.2       1 6DX         0.1653
     17 N05       -22.5380    9.6420   15.9250 N.pl3     1 6DX        -0.2861
     18 C06       -22.2140   11.0490   15.7670 C.3       1 6DX         0.0385
     19 C07       -21.3040   11.2390   14.5390 C.3       1 6DX         0.0085
     20 C08       -21.3020   12.7040   14.0310 C.3       1 6DX        -0.0298
     21 N09       -20.8140   13.5030   14.8930 N.4       1 6DX         0.2381
     22 N12       -18.9600   15.5730   15.3120 N.pl3     1 6DX        -0.2987
     23 N21       -21.9650    7.5110   16.8100 N.2       1 6DX        -0.2507
     24 N23       -21.1690    5.3300   17.8120 N.2       1 6DX        -0.2964
     25 N25       -19.2080    6.0860   18.4630 N.2       1 6DX        -0.1784
     26 N26       -19.8880    7.1120   17.8570 N.pl3     1 6DX        -0.0713
     27 C27       -19.6770    3.5940   18.9780 C.2       1 6DX         0.1370
     28 C28       -20.5870    2.5580   19.2260 C.2       1 6DX        -0.0528
     29 C29       -19.8430    1.4610   19.6970 C.2       1 6DX        -0.0595
     30 C30       -18.5030    1.8400   19.7230 C.2       1 6DX         0.0828
     31 O31       -18.4290    3.1370   19.2770 O.3       1 6DX        -0.2592
     32 H1        -20.7424   14.8930   13.4149 H         1 6DX         0.0834
     33 H2        -22.1337   15.0062   14.5456 H         1 6DX         0.0834
     34 H3        -17.6342   14.1289   15.7886 H         1 6DX         0.0567
     35 H4        -19.0238   14.3394   16.9071 H         1 6DX         0.0567
     36 H5        -16.3366   15.0890   11.5200 H         1 6DX         0.0583
     37 H6        -18.2438   18.1264   14.9337 H         1 6DX         0.0515
     38 H7        -15.8489   17.5125   11.4304 H         1 6DX         0.0505
     39 H8        -16.8010   19.0279   13.1331 H         1 6DX         0.0583
     40 H9        -17.7753   14.1879   13.3173 H         1 6DX         0.0515
     41 H10       -19.4111   12.3004   15.7230 H         1 6DX         0.0834
     42 H11       -18.9869   13.0482   14.1458 H         1 6DX         0.0834
     43 H12       -20.6939   15.8600   16.3135 H         1 6DX         0.0567
     44 H13       -20.4565   16.8463   14.8312 H         1 6DX         0.0567
     45 H14       -17.9921    9.8775   17.8908 H         1 6DX         0.1953
     46 H15       -17.6052    8.2599   18.5360 H         1 6DX         0.1953
     47 H16       -23.4249    9.2704   15.5560 H         1 6DX         0.1909
     48 H17       -21.6927   11.4072   16.6669 H         1 6DX         0.0532
     49 H18       -23.1412   11.6240   15.6270 H         1 6DX         0.0532
     50 H19       -21.6599   10.5843   13.7299 H         1 6DX         0.0337
     51 H20       -20.2764   10.9579   14.8129 H         1 6DX         0.0337
     52 H21       -22.3367   13.0060   13.8114 H         1 6DX         0.0815
     53 H22       -20.7004   12.7612   13.1119 H         1 6DX         0.0815
     54 H23       -21.3008   13.3695   15.7655 H         1 6DX         0.2035
     55 H24       -21.6657    2.5950   19.0815 H         1 6DX         0.0394
     56 H25       -20.2425    0.4908   19.9886 H         1 6DX         0.0360
     57 H26       -17.6655    1.2201   20.0397 H         1 6DX         0.1013
@<TRIPOS>BOND
     1    1   12 1  
     2   21    1 1  
     3   11    2 1  
     4    2   22 1  
     5    3    5 ar 
     6    3   10 ar 
     7   22    3 1  
     8    4    8 ar 
     9   10    4 ar 
    10    5    9 ar 
    11   23    6 1  
    12    6   24 2  
    13    6   26 1  
    14   24    7 1  
    15    7   25 2  
    16    7   27 1  
    17    9    8 ar 
    18   21   11 1  
    19   12   22 1  
    20   14   13 1  
    21   15   14 2  
    22   14   26 1  
    23   16   15 1  
    24   17   16 1  
    25   16   23 2  
    26   18   17 1  
    27   19   18 1  
    28   20   19 1  
    29   20   21 1  
    30   25   26 1  
    31   27   28 2  
    32   27   31 1  
    33   28   29 1  
    34   29   30 2  
    35   30   31 1  
    36    1   32 1  
    37    1   33 1  
    38    2   34 1  
    39    2   35 1  
    40    4   36 1  
    41    5   37 1  
    42    8   38 1  
    43    9   39 1  
    44   10   40 1  
    45   11   41 1  
    46   11   42 1  
    47   12   43 1  
    48   12   44 1  
    49   13   45 1  
    50   13   46 1  
    51   17   47 1  
    52   18   48 1  
    53   18   49 1  
    54   19   50 1  
    55   19   51 1  
    56   20   52 1  
    57   20   53 1  
    58   21   54 1  
    59   28   55 1  
    60   29   56 1  
    61   30   57 1  
@<TRIPOS>SUBSTRUCTURE
     1 6DX         1

