### 
### Created by X-TOOL on Mon Sep 10 21:13:28 2018
### 

@<TRIPOS>MOLECULE
5iub_ligand
   54    58     1     0     0
SMALL
GAST_HUCK


@<TRIPOS>ATOM
      1 C10       -19.7100   14.2410   13.2000 C.3       1 6DV         0.0655
      2 C13       -19.5450   12.4790   15.4160 C.3       1 6DV        -0.0119
      3 C15       -17.4670   16.3480   14.9660 C.ar      1 6DV        -0.0473
      4 C17       -15.8630   17.5220   13.5890 C.ar      1 6DV         0.1162
      5 C20       -16.9500   15.5280   12.7480 C.ar      1 6DV         0.1470
      6 C25       -19.9270    4.9120   18.3960 C.2       1 6DV         0.1092
      7 C23       -20.9900    6.4740   17.4570 C.2       1 6DV         0.2149
      8 C19       -16.0530   16.5840   12.5710 C.ar      1 6DV        -0.0063
      9 C16       -16.5700   17.4020   14.7850 C.ar      1 6DV        -0.0440
     10 C12       -19.0460   13.9340   15.4580 C.3       1 6DV         0.0655
     11 C14       -17.6700   15.3980   13.9520 C.ar      1 6DV         0.0711
     12 N01       -18.1760    8.7420   18.0520 N.pl3     1 6DV        -0.2658
     13 C02       -19.4000    8.2400   17.6490 C.2       1 6DV         0.2974
     14 N03       -20.2580    9.0790   17.0200 N.2       1 6DV        -0.2113
     15 C04       -21.4560    8.5570   16.6330 C.2       1 6DV         0.1655
     16 N05       -22.3800    9.3810   15.9780 N.pl3     1 6DV        -0.2812
     17 C06       -22.1140   10.7940   15.7620 C.3       1 6DV         0.0736
     18 C07       -21.2840   11.0440   14.4940 C.3       1 6DV        -0.0103
     19 C09       -20.3440   12.8300   13.1840 C.3       1 6DV        -0.0119
     20 F18       -14.9940   18.5460   13.4230 F         1 6DV        -0.1957
     21 F21       -17.1090   14.6370   11.7400 F         1 6DV        -0.1937
     22 N22       -21.8660    7.2720   16.8270 N.2       1 6DV        -0.2506
     23 N24       -21.0820    5.1670   17.8000 N.2       1 6DV        -0.2964
     24 N26       -19.0700    5.9230   18.4810 N.2       1 6DV        -0.1784
     25 N27       -19.7530    6.9360   17.8760 N.pl3     1 6DV        -0.0713
     26 C28       -19.6390    3.5520   18.9220 C.2       1 6DV         0.1370
     27 C29       -20.4420    2.4350   19.1610 C.2       1 6DV        -0.0528
     28 C30       -19.6200    1.4190   19.6590 C.2       1 6DV        -0.0595
     29 C31       -18.3480    1.9600   19.6990 C.2       1 6DV         0.0828
     30 O32       -18.3550    3.2430   19.2550 O.3       1 6DV        -0.2592
     31 N1        -18.5740   14.3290   14.1260 N.pl3     1 6DV        -0.3007
     32 N2        -20.7050   12.3780   14.5240 N.4       1 6DV         0.2395
     33 H1        -20.4747   14.9694   13.5076 H         1 6DV         0.0564
     34 H2        -19.3597   14.4833   12.1858 H         1 6DV         0.0564
     35 H3        -19.8345   12.1627   16.4290 H         1 6DV         0.0834
     36 H4        -18.7405   11.8274   15.0442 H         1 6DV         0.0834
     37 H5        -18.0125   16.2619   15.8988 H         1 6DV         0.0494
     38 H6        -15.5029   16.6760   11.6415 H         1 6DV         0.0556
     39 H7        -16.4227   18.1287   15.5757 H         1 6DV         0.0537
     40 H8        -18.2196   14.0173   16.1792 H         1 6DV         0.0564
     41 H9        -19.8695   14.5951   15.7659 H         1 6DV         0.0564
     42 H10       -17.9375    9.7269   17.8679 H         1 6DV         0.1953
     43 H11       -17.5029    8.1309   18.5363 H         1 6DV         0.1953
     44 H12       -23.2663    8.9776   15.6424 H         1 6DV         0.1911
     45 H13       -21.5623   11.1866   16.6289 H         1 6DV         0.0583
     46 H14       -23.0732   11.3240   15.6670 H         1 6DV         0.0583
     47 H15       -21.9332   10.9501   13.6110 H         1 6DV         0.0835
     48 H16       -20.4765   10.2993   14.4363 H         1 6DV         0.0835
     49 H17       -19.6221   12.1210   12.7525 H         1 6DV         0.0834
     50 H18       -21.2505   12.8549   12.5614 H         1 6DV         0.0834
     51 H19       -21.5154    2.3671   18.9903 H         1 6DV         0.0394
     52 H20       -19.9186    0.4139   19.9532 H         1 6DV         0.0360
     53 H21       -17.4608    1.4288   20.0404 H         1 6DV         0.1013
     54 H22       -21.4133   13.0016   14.8782 H         1 6DV         0.2035
@<TRIPOS>BOND
     1    1   19 1  
     2   31    1 1  
     3    2   10 1  
     4   32    2 1  
     5    3    9 ar 
     6   11    3 ar 
     7    8    4 ar 
     8    9    4 ar 
     9    4   20 1  
    10    5    8 ar 
    11   11    5 ar 
    12    5   21 1  
    13   23    6 1  
    14    6   24 2  
    15    6   26 1  
    16   22    7 1  
    17    7   23 2  
    18    7   25 1  
    19   10   31 1  
    20   31   11 1  
    21   13   12 1  
    22   14   13 2  
    23   13   25 1  
    24   15   14 1  
    25   16   15 1  
    26   15   22 2  
    27   17   16 1  
    28   18   17 1  
    29   18   32 1  
    30   19   32 1  
    31   24   25 1  
    32   26   27 2  
    33   26   30 1  
    34   27   28 1  
    35   28   29 2  
    36   29   30 1  
    37    1   33 1  
    38    1   34 1  
    39    2   35 1  
    40    2   36 1  
    41    3   37 1  
    42    8   38 1  
    43    9   39 1  
    44   10   40 1  
    45   10   41 1  
    46   12   42 1  
    47   12   43 1  
    48   16   44 1  
    49   17   45 1  
    50   17   46 1  
    51   18   47 1  
    52   18   48 1  
    53   19   49 1  
    54   19   50 1  
    55   27   51 1  
    56   28   52 1  
    57   29   53 1  
    58   32   54 1  
@<TRIPOS>SUBSTRUCTURE
     1 6DV         1

