### 
### Created by X-TOOL on Mon Sep 10 21:13:28 2018
### 

@<TRIPOS>MOLECULE
5iug_ligand
   82    86     1     0     0
SMALL
GAST_HUCK


@<TRIPOS>ATOM
      1 C10        18.9830  -15.4410  -10.7870 C.ar      1 729         0.0730
      2 C11        18.9490  -14.8290   -9.5340 C.ar      1 729        -0.0216
      3 C12        19.9350  -13.8890   -9.2140 C.ar      1 729        -0.0622
      4 C13        20.9520  -13.5720  -10.1030 C.ar      1 729        -0.0131
      5 N01        18.0290  -16.4120  -11.1810 N.am      1 729        -0.2158
      6 N02        16.4210  -17.3290  -12.7330 N.am      1 729        -0.1992
      7 N03        14.7310  -18.3070  -14.1200 N.2       1 729        -0.0662
      8 N04        23.9790  -11.5360   -9.8260 N.2       1 729        -0.2254
      9 N05        23.2940  -12.6400  -10.2780 N.pl3     1 729        -0.2376
     10 N06        23.5260   -9.5260   -8.4930 N.am      1 729        -0.2350
     11 N07        24.5520   -2.8320   -6.5880 N.4       1 729         0.2553
     12 N08        26.0610   -0.6740   -6.8210 N.4       1 729         0.2405
     13 C01        17.3440  -16.3000  -12.4230 C.2       1 729         0.3141
     14 C02        15.6590  -17.3670  -13.9260 C.2       1 729         0.2033
     15 C03        15.1920  -17.4580  -16.0880 C.2       1 729         0.1216
     16 C04        16.0520  -16.9410  -15.1530 C.2       1 729         0.0382
     17 C05        15.0330  -17.0140  -17.5310 C.3       1 729        -0.0260
     18 C06        14.8670  -18.2480  -18.3990 C.3       1 729        -0.0921
     19 C07        13.7760  -16.1730  -17.6340 C.3       1 729        -0.0921
     20 C08        16.2200  -16.2170  -18.0220 C.3       1 729        -0.0921
     21 C09        20.0090  -15.1200  -11.6650 C.ar      1 729        -0.0442
     22 C14        20.9740  -14.1900  -11.3270 C.ar      1 729        -0.0700
     23 C15        22.0380  -12.5510   -9.8070 C.2       1 729         0.0678
     24 C16        21.9150  -11.3900   -9.0860 C.2       1 729        -0.0218
     25 C17        23.1440  -10.7760   -9.0920 C.2       1 729         0.1077
     26 C18        22.8530   -8.9260   -7.3860 C.2       1 729         0.2236
     27 C19        23.3850   -7.5750   -6.9110 C.ar      1 729         0.0479
     28 C20        22.6470   -6.7620   -6.0560 C.ar      1 729        -0.0480
     29 C21        23.1540   -5.5290   -5.6630 C.ar      1 729        -0.0494
     30 C22        24.3890   -5.0980   -6.1250 C.ar      1 729         0.0061
     31 C23        25.1160   -5.9110   -6.9860 C.ar      1 729        -0.0494
     32 C24        24.6090   -7.1420   -7.3800 C.ar      1 729        -0.0480
     33 C25        24.9430   -3.7390   -5.7050 C.3       1 729         0.0045
     34 C26        25.2780   -2.7360   -7.6790 C.3       1 729         0.0110
     35 C27        26.2530   -1.5710   -7.7510 C.3       1 729         0.0092
     36 C28        24.7850   -0.4640   -6.6670 C.3       1 729         0.0092
     37 C29        24.0740   -1.6940   -6.1430 C.3       1 729         0.0110
     38 C30        26.7070    0.4330   -7.0920 C.3       1 729        -0.0427
     39 C31        17.8580  -15.1550   -8.5320 C.3       1 729        -0.0346
     40 O01        17.5430  -15.3660  -13.1720 O.2       1 729        -0.3820
     41 O02        14.1870  -18.1130  -15.4090 O.3       1 729        -0.1531
     42 O03        21.8860   -9.4540   -6.8690 O.2       1 729        -0.3783
     43 H1         19.9035  -13.3968   -8.2487 H         1 729         0.0523
     44 H2         17.8347  -17.1860  -10.5783 H         1 729         0.2262
     45 H3         16.3008  -18.0700  -12.0724 H         1 729         0.2225
     46 H4         23.6730  -13.3946  -10.8677 H         1 729         0.2421
     47 H5         24.3145   -9.0455   -8.8768 H         1 729         0.2199
     48 H6         23.7144   -3.2657   -6.9436 H         1 729         0.2053
     49 H7         26.4242   -1.0377   -5.9539 H         1 729         0.2035
     50 H8         16.9058  -16.2975  -15.3602 H         1 729         0.0827
     51 H9         14.7503  -17.9442  -19.4497 H         1 729         0.0100
     52 H10        13.9749  -18.8053  -18.0773 H         1 729         0.0100
     53 H11        15.7555  -18.8888  -18.2992 H         1 729         0.0100
     54 H12        13.8838  -15.2745  -17.0086 H         1 729         0.0100
     55 H13        12.9127  -16.7598  -17.2870 H         1 729         0.0100
     56 H14        13.6194  -15.8743  -18.6810 H         1 729         0.0100
     57 H15        17.1301  -16.8301  -17.9459 H         1 729         0.0100
     58 H16        16.3346  -15.3127  -17.4062 H         1 729         0.0100
     59 H17        16.0592  -15.9283  -19.0712 H         1 729         0.0100
     60 H18        20.0542  -15.6070  -12.6324 H         1 729         0.0491
     61 H19        21.7563  -13.9466  -12.0368 H         1 729         0.0540
     62 H20        21.0120  -11.0237   -8.5999 H         1 729         0.0293
     63 H21        21.6781   -7.0899   -5.6970 H         1 729         0.0652
     64 H22        22.5808   -4.9002   -4.9913 H         1 729         0.0572
     65 H23        26.0824   -5.5830   -7.3514 H         1 729         0.0572
     66 H24        25.1774   -7.7665   -8.0596 H         1 729         0.0652
     67 H25        24.5603   -3.4749   -4.7081 H         1 729         0.0991
     68 H26        26.0419   -3.7794   -5.6770 H         1 729         0.0991
     69 H27        24.5884   -2.6465   -8.5313 H         1 729         0.0868
     70 H28        25.8604   -3.6642   -7.7744 H         1 729         0.0868
     71 H29        27.2749   -1.9652   -7.6493 H         1 729         0.0868
     72 H30        26.1433   -1.0851   -8.7317 H         1 729         0.0868
     73 H31        24.3495   -0.1873   -7.6385 H         1 729         0.0868
     74 H32        24.6431    0.3609   -5.9533 H         1 729         0.0868
     75 H33        24.1525   -1.6944   -5.0458 H         1 729         0.0868
     76 H34        23.0154   -1.6288   -6.4349 H         1 729         0.0868
     77 H35        27.7777    0.2122   -7.2141 H         1 729         0.0778
     78 H36        26.5719    1.1478   -6.2669 H         1 729         0.0778
     79 H37        26.3140    0.8685   -8.0225 H         1 729         0.0778
     80 H38        17.1813  -15.9096   -8.9594 H         1 729         0.0362
     81 H39        17.2895  -14.2426   -8.2991 H         1 729         0.0362
     82 H40        18.3120  -15.5494   -7.6109 H         1 729         0.0362
@<TRIPOS>BOND
     1    2    1 ar 
     2    1    5 1  
     3   21    1 ar 
     4    3    2 ar 
     5    2   39 1  
     6    4    3 ar 
     7    4   22 ar 
     8   23    4 1  
     9    5   13 am 
    10   13    6 am 
    11    6   14 1  
    12   14    7 2  
    13    7   41 1  
    14    8    9 1  
    15   25    8 2  
    16   23    9 1  
    17   10   25 1  
    18   26   10 am 
    19   11   33 1  
    20   34   11 1  
    21   11   37 1  
    22   35   12 1  
    23   12   36 1  
    24   12   38 1  
    25   13   40 2  
    26   14   16 1  
    27   16   15 2  
    28   15   17 1  
    29   15   41 1  
    30   17   18 1  
    31   17   19 1  
    32   17   20 1  
    33   22   21 ar 
    34   24   23 2  
    35   25   24 1  
    36   27   26 1  
    37   26   42 2  
    38   28   27 ar 
    39   32   27 ar 
    40   29   28 ar 
    41   30   29 ar 
    42   30   31 ar 
    43   33   30 1  
    44   31   32 ar 
    45   34   35 1  
    46   36   37 1  
    47    3   43 1  
    48    5   44 1  
    49    6   45 1  
    50    9   46 1  
    51   10   47 1  
    52   11   48 1  
    53   12   49 1  
    54   16   50 1  
    55   18   51 1  
    56   18   52 1  
    57   18   53 1  
    58   19   54 1  
    59   19   55 1  
    60   19   56 1  
    61   20   57 1  
    62   20   58 1  
    63   20   59 1  
    64   21   60 1  
    65   22   61 1  
    66   24   62 1  
    67   28   63 1  
    68   29   64 1  
    69   31   65 1  
    70   32   66 1  
    71   33   67 1  
    72   33   68 1  
    73   34   69 1  
    74   34   70 1  
    75   35   71 1  
    76   35   72 1  
    77   36   73 1  
    78   36   74 1  
    79   37   75 1  
    80   37   76 1  
    81   38   77 1  
    82   38   78 1  
    83   38   79 1  
    84   39   80 1  
    85   39   81 1  
    86   39   82 1  
@<TRIPOS>SUBSTRUCTURE
     1 729         1

