### 
### Created by X-TOOL on Mon Sep 10 21:13:27 2018
### 

@<TRIPOS>MOLECULE
5iuh_ligand
   79    83     1     0     0
SMALL
GAST_HUCK


@<TRIPOS>ATOM
      1 C10        14.8350  -16.5360  -17.6320 C.3       1 34Y         0.0248
      2 C11        15.4990  -17.5750  -18.5020 C.3       1 34Y        -0.0481
      3 C12        19.8930  -15.2430  -11.8880 C.ar      1 34Y        -0.0442
      4 C13        18.7710  -15.5420  -10.9280 C.ar      1 34Y         0.0730
      5 C14        18.6930  -14.8590   -9.5780 C.ar      1 34Y        -0.0216
      6 C15        19.7470  -13.8430   -9.1900 C.ar      1 34Y        -0.0622
      7 C16        20.8680  -13.5480  -10.1540 C.ar      1 34Y        -0.0131
      8 C17        20.9440  -14.2250  -11.5040 C.ar      1 34Y        -0.0700
      9 C18        21.9290  -12.5270   -9.8340 C.2       1 34Y         0.0678
     10 C19        21.7940  -11.4310   -9.0210 C.2       1 34Y        -0.0218
     11 C20        23.0020  -10.7770   -9.0530 C.2       1 34Y         0.1077
     12 N01        17.8000  -16.5030  -11.3080 N.am      1 34Y        -0.2158
     13 C02        17.1360  -16.3670  -12.5560 C.2       1 34Y         0.3129
     14 N03        16.1620  -17.3590  -12.8690 N.am      1 34Y        -0.2157
     15 O04        17.3910  -15.4270  -13.2830 O.2       1 34Y        -0.3820
     16 C05        15.4470  -17.3660  -14.0890 C.2       1 34Y         0.1146
     17 N06        14.3090  -18.0540  -14.3120 N.2       1 34Y        -0.1675
     18 O07        13.9330  -17.8390  -15.6310 O.3       1 34Y        -0.1924
     19 C08        14.8580  -17.0310  -16.2030 C.2       1 34Y         0.1296
     20 C09        15.8010  -16.7360  -15.2680 C.2       1 34Y        -0.0109
     21 N21        23.8190  -11.4500   -9.8750 N.2       1 34Y        -0.2254
     22 N22        23.1530  -12.5460  -10.3710 N.pl3     1 34Y        -0.2376
     23 N23        23.3950   -9.5730   -8.4020 N.am      1 34Y        -0.2350
     24 C24        22.6480   -8.9200   -7.3670 C.2       1 34Y         0.2236
     25 C25        23.2270   -7.6160   -6.8300 C.ar      1 34Y         0.0479
     26 O26        21.5970   -9.3500   -6.9580 O.2       1 34Y        -0.3783
     27 C27        24.5760   -7.1640   -7.3340 C.ar      1 34Y        -0.0480
     28 C28        25.1760   -5.8650   -6.8450 C.ar      1 34Y        -0.0494
     29 C29        24.4290   -5.0020   -5.8580 C.ar      1 34Y         0.0061
     30 C30        23.0620   -5.4530   -5.3670 C.ar      1 34Y        -0.0494
     31 C31        22.4600   -6.7560   -5.8520 C.ar      1 34Y        -0.0480
     32 C32        25.0290   -3.6870   -5.3880 C.3       1 34Y         0.0045
     33 N33        24.5950   -2.7460   -6.1790 N.4       1 34Y         0.2553
     34 C34        25.2670   -2.5930   -7.3550 C.3       1 34Y         0.0110
     35 C35        26.3470   -1.5360   -7.3160 C.3       1 34Y         0.0092
     36 N36        25.9150   -0.3700   -6.7890 N.4       1 34Y         0.2405
     37 C37        25.3510   -0.5600   -5.5710 C.3       1 34Y         0.0092
     38 C38        24.2230   -1.5710   -5.6160 C.3       1 34Y         0.0110
     39 C39        26.8790    0.4820   -6.7210 C.3       1 34Y        -0.0427
     40 C40        17.5700  -15.1750   -8.6150 C.3       1 34Y        -0.0346
     41 C41        13.4040  -16.3570  -18.0660 C.3       1 34Y        -0.0481
     42 H1         15.3723  -15.5793  -17.7103 H         1 34Y         0.0514
     43 H2         15.4935  -17.2350  -19.5481 H         1 34Y         0.0259
     44 H3         14.9503  -18.5250  -18.4223 H         1 34Y         0.0259
     45 H4         16.5372  -17.7223  -18.1698 H         1 34Y         0.0259
     46 H5         19.9466  -15.7519  -12.8436 H         1 34Y         0.0491
     47 H6         19.6962  -13.3355   -8.2335 H         1 34Y         0.0523
     48 H7         21.7460  -13.9825  -12.1918 H         1 34Y         0.0540
     49 H8         20.9068  -11.1376   -8.4618 H         1 34Y         0.0293
     50 H9         17.5848  -17.2694  -10.7028 H         1 34Y         0.2262
     51 H10        15.9768  -18.0785  -12.1996 H         1 34Y         0.2209
     52 H11        16.6808  -16.1127  -15.4212 H         1 34Y         0.0249
     53 H12        23.5251  -13.2459  -11.0287 H         1 34Y         0.2421
     54 H13        24.2557   -9.1518   -8.6879 H         1 34Y         0.2199
     55 H14        25.1168   -7.7730   -8.0493 H         1 34Y         0.0652
     56 H15        26.1490   -5.5517   -7.2058 H         1 34Y         0.0572
     57 H16        22.5136   -4.8367   -4.6638 H         1 34Y         0.0572
     58 H17        21.4842   -7.0699   -5.4994 H         1 34Y         0.0652
     59 H18        26.1268   -3.7385   -5.4349 H         1 34Y         0.0991
     60 H19        24.7154   -3.4809   -4.3540 H         1 34Y         0.0991
     61 H20        23.7115   -3.1258   -6.4810 H         1 34Y         0.2053
     62 H21        24.5413   -2.3167   -8.1341 H         1 34Y         0.0868
     63 H22        25.7342   -3.5547   -7.6135 H         1 34Y         0.0868
     64 H23        26.6955   -1.3506   -8.3427 H         1 34Y         0.0868
     65 H24        27.1833   -1.9093   -6.7067 H         1 34Y         0.0868
     66 H25        25.2089    0.0058   -7.4024 H         1 34Y         0.2035
     67 H26        24.9525    0.4000   -5.2111 H         1 34Y         0.0868
     68 H27        26.1228   -0.9207   -4.8752 H         1 34Y         0.0868
     69 H28        23.8837   -1.7654   -4.5879 H         1 34Y         0.0868
     70 H29        23.3940   -1.1472   -6.2017 H         1 34Y         0.0868
     71 H30        27.3190    0.6183   -7.7199 H         1 34Y         0.0778
     72 H31        27.6489    0.1102   -6.0289 H         1 34Y         0.0778
     73 H32        26.4922    1.4450   -6.3563 H         1 34Y         0.0778
     74 H33        16.9049  -15.9286   -9.0619 H         1 34Y         0.0362
     75 H34        16.9979  -14.2591   -8.4056 H         1 34Y         0.0362
     76 H35        17.9905  -15.5671   -7.6772 H         1 34Y         0.0362
     77 H36        12.9205  -15.5996  -17.4316 H         1 34Y         0.0259
     78 H37        12.8688  -17.3130  -17.9682 H         1 34Y         0.0259
     79 H38        13.3775  -16.0276  -19.1152 H         1 34Y         0.0259
@<TRIPOS>BOND
     1    1    2 1  
     2   19    1 1  
     3    1   41 1  
     4    4    3 ar 
     5    3    8 ar 
     6    4    5 ar 
     7   12    4 1  
     8    5    6 ar 
     9    5   40 1  
    10    6    7 ar 
    11    8    7 ar 
    12    7    9 1  
    13    9   10 2  
    14    9   22 1  
    15   10   11 1  
    16   11   21 2  
    17   11   23 1  
    18   13   12 am 
    19   14   13 am 
    20   13   15 2  
    21   16   14 1  
    22   17   16 2  
    23   16   20 1  
    24   18   17 1  
    25   18   19 1  
    26   19   20 2  
    27   21   22 1  
    28   23   24 am 
    29   24   25 1  
    30   24   26 2  
    31   25   27 ar 
    32   25   31 ar 
    33   27   28 ar 
    34   28   29 ar 
    35   29   30 ar 
    36   29   32 1  
    37   30   31 ar 
    38   32   33 1  
    39   33   34 1  
    40   33   38 1  
    41   34   35 1  
    42   35   36 1  
    43   36   37 1  
    44   36   39 1  
    45   37   38 1  
    46    1   42 1  
    47    2   43 1  
    48    2   44 1  
    49    2   45 1  
    50    3   46 1  
    51    6   47 1  
    52    8   48 1  
    53   10   49 1  
    54   12   50 1  
    55   14   51 1  
    56   20   52 1  
    57   22   53 1  
    58   23   54 1  
    59   27   55 1  
    60   28   56 1  
    61   30   57 1  
    62   31   58 1  
    63   32   59 1  
    64   32   60 1  
    65   33   61 1  
    66   34   62 1  
    67   34   63 1  
    68   35   64 1  
    69   35   65 1  
    70   36   66 1  
    71   37   67 1  
    72   37   68 1  
    73   38   69 1  
    74   38   70 1  
    75   39   71 1  
    76   39   72 1  
    77   39   73 1  
    78   40   74 1  
    79   40   75 1  
    80   40   76 1  
    81   41   77 1  
    82   41   78 1  
    83   41   79 1  
@<TRIPOS>SUBSTRUCTURE
     1 34Y         1

