### 
### Created by X-TOOL on Mon Sep 10 21:13:27 2018
### 

@<TRIPOS>MOLECULE
5iui_ligand
   58    61     1     0     0
SMALL
GAST_HUCK


@<TRIPOS>ATOM
      1 C10        75.3610   69.1050    9.2860 C.2       1 45Q         0.1086
      2 C14        75.2180   67.2690    7.6350 C.2       1 45Q         0.2236
      3 C15        75.8320   65.9600    7.2400 C.ar      1 45Q         0.0479
      4 C17        77.1860   65.5700    7.7010 C.ar      1 45Q        -0.0480
      5 N01        69.6900   74.2530   11.2310 N.pl3     1 45Q        -0.3383
      6 C02        71.5670   72.8330   11.9190 C.ar      1 45Q        -0.0478
      7 C03        70.7330   73.4480   10.8760 C.ar      1 45Q         0.0404
      8 C04        71.0430   73.1390    9.4460 C.ar      1 45Q        -0.0254
      9 C05        72.1670   72.2420    9.1050 C.ar      1 45Q        -0.0605
     10 C06        73.0000   71.6650   10.1640 C.ar      1 45Q        -0.0110
     11 C07        72.6870   71.9500   11.5520 C.ar      1 45Q        -0.0683
     12 C08        74.1440   70.7360    9.9610 C.2       1 45Q         0.0695
     13 C09        74.1620   69.6850    9.1520 C.2       1 45Q        -0.0208
     14 N11        76.0070   69.7580   10.2200 N.2       1 45Q        -0.2244
     15 N12        75.2680   70.7540   10.6240 N.pl3     1 45Q        -0.2368
     16 N13        75.8210   67.9420    8.6970 N.am      1 45Q        -0.2349
     17 O16        74.2780   67.6700    7.0810 O.2       1 45Q        -0.3783
     18 C18        77.7630   64.2630    7.3300 C.ar      1 45Q        -0.0494
     19 C19        76.9760   63.3140    6.5190 C.ar      1 45Q         0.0061
     20 C20        75.6340   63.6900    6.0450 C.ar      1 45Q        -0.0494
     21 C21        75.0480   65.0040    6.4180 C.ar      1 45Q        -0.0480
     22 C22        77.6150   62.0220    6.1390 C.3       1 45Q         0.0043
     23 N23        77.4830   60.9480    6.8470 N.4       1 45Q         0.2529
     24 C24        78.1420   59.8660    6.2660 C.3       1 45Q         0.0066
     25 C25        78.0320   58.5720    7.0620 C.3       1 45Q         0.1347
     26 N26        77.2510   58.7060    8.1770 N.2       1 45Q        -0.2186
     27 C27        77.3960   59.8210    8.9700 C.3       1 45Q         0.1347
     28 C28        77.6060   61.1020    8.1750 C.3       1 45Q         0.0066
     29 C29        77.1060   57.6260    8.8790 C.2       1 45Q         0.1527
     30 C30        70.2460   73.7240    8.3460 C.3       1 45Q        -0.0342
     31 H1         77.7591   66.2528    8.3178 H         1 45Q         0.0652
     32 H2         69.5036   74.4459   12.2255 H         1 45Q         0.1712
     33 H3         69.0891   74.6678   10.5045 H         1 45Q         0.1712
     34 H4         71.3564   73.0306   12.9638 H         1 45Q         0.0504
     35 H5         72.3763   72.0098    8.0670 H         1 45Q         0.0529
     36 H6         73.2899   71.5039   12.3347 H         1 45Q         0.0545
     37 H7         73.3533   69.3558    8.5011 H         1 45Q         0.0300
     38 H8         75.5283   71.4406   11.3463 H         1 45Q         0.2425
     39 H9         76.6626   67.5476    9.0660 H         1 45Q         0.2199
     40 H10        78.7639   64.0005    7.6530 H         1 45Q         0.0572
     41 H11        75.0707   63.0055    5.4212 H         1 45Q         0.0572
     42 H12        74.0482   65.2643    6.0899 H         1 45Q         0.0652
     43 H13        78.6955   62.2202    6.0828 H         1 45Q         0.0991
     44 H14        77.2347   61.7760    5.1366 H         1 45Q         0.0991
     45 H15        76.5086   60.7118    6.7425 H         1 45Q         0.2052
     46 H16        79.2073   60.1221    6.1681 H         1 45Q         0.0850
     47 H17        77.7127   59.6953    5.2677 H         1 45Q         0.0850
     48 H18        79.0407   58.2629    7.3733 H         1 45Q         0.0774
     49 H19        77.5940   57.7969    6.4160 H         1 45Q         0.0774
     50 H20        78.2654   59.6715    9.6271 H         1 45Q         0.0774
     51 H21        76.4890   59.9346    9.5819 H         1 45Q         0.0774
     52 H22        76.8623   61.8411    8.5077 H         1 45Q         0.0850
     53 H23        78.6175   61.4785    8.3871 H         1 45Q         0.0850
     54 H24        76.9805   56.6657    8.3811 H         1 45Q         0.2526
     55 H25        77.1096   57.6790    9.9667 H         1 45Q         0.2526
     56 H26        69.4547   74.3624    8.7659 H         1 45Q         0.0365
     57 H27        69.7902   72.9168    7.7539 H         1 45Q         0.0365
     58 H28        70.9002   74.3280    7.7002 H         1 45Q         0.0365
@<TRIPOS>BOND
     1   13    1 1  
     2    1   14 2  
     3    1   16 1  
     4    2    3 1  
     5   16    2 am 
     6    2   17 2  
     7    3    4 ar 
     8    3   21 ar 
     9    4   18 ar 
    10    7    5 1  
    11    6    7 ar 
    12   11    6 ar 
    13    8    7 ar 
    14    9    8 ar 
    15    8   30 1  
    16   10    9 ar 
    17   10   11 ar 
    18   12   10 1  
    19   12   13 2  
    20   12   15 1  
    21   14   15 1  
    22   18   19 ar 
    23   19   20 ar 
    24   19   22 1  
    25   20   21 ar 
    26   22   23 1  
    27   23   24 1  
    28   23   28 1  
    29   24   25 1  
    30   25   26 1  
    31   26   27 1  
    32   26   29 2  
    33   27   28 1  
    34    4   31 1  
    35    5   32 1  
    36    5   33 1  
    37    6   34 1  
    38    9   35 1  
    39   11   36 1  
    40   13   37 1  
    41   15   38 1  
    42   16   39 1  
    43   18   40 1  
    44   20   41 1  
    45   21   42 1  
    46   22   43 1  
    47   22   44 1  
    48   23   45 1  
    49   24   46 1  
    50   24   47 1  
    51   25   48 1  
    52   25   49 1  
    53   27   50 1  
    54   27   51 1  
    55   28   52 1  
    56   28   53 1  
    57   29   54 1  
    58   29   55 1  
    59   30   56 1  
    60   30   57 1  
    61   30   58 1  
@<TRIPOS>SUBSTRUCTURE
     1 45Q         1

