### 
### Created by X-TOOL on Mon Sep 10 21:13:26 2018
### 

@<TRIPOS>MOLECULE
5iv4_ligand
   31    33     1     0     0
SMALL
GAST_HUCK


@<TRIPOS>ATOM
      1 CAL        14.5810   26.4670   -2.9900 C.2       1 LRI        -0.0797
      2 CAM        14.8640   25.5960   -4.0130 C.2       1 LRI        -0.0931
      3 CAN        14.1510   24.4780   -4.1160 C.2       1 LRI        -0.0195
      4 SAO        13.1010   24.4330   -2.7710 S.3       1 LRI        -0.0423
      5 CAK        13.6610   25.9090   -2.2010 C.2       1 LRI         0.0347
      6 CAJ        13.0630   26.5770   -0.9170 C.3       1 LRI         0.0772
      7 NAI        11.8870   27.3540   -1.2210 N.pl3     1 LRI        -0.2744
      8 CAP        12.1820   28.6200   -1.8670 C.3       1 LRI         0.0456
      9 CAQ        11.6800   29.8890   -1.1200 C.3       1 LRI        -0.0272
     10 CAR        13.1670   29.4970   -1.2320 C.3       1 LRI        -0.0272
     11 C4         10.7390   26.7500   -1.4190 C.ar      1 LRI         0.1147
     12 N3         10.6290   25.4680   -1.1020 N.ar      1 LRI        -0.2464
     13 C5          9.6280   27.3530   -2.0350 C.ar      1 LRI         0.0085
     14 C6          8.4930   26.6390   -2.3120 C.ar      1 LRI         0.1059
     15 CL6         6.9640   27.2280   -2.9960 Cl        1 LRI        -0.0371
     16 N1          8.4800   25.3500   -1.9960 N.ar      1 LRI        -0.2585
     17 C2          9.5630   24.7990   -1.4440 C.ar      1 LRI         0.1671
     18 NAA         9.5780   23.5120   -1.2230 N.pl3     1 LRI        -0.3070
     19 H1         15.0315   27.4480   -2.8467 H         1 LRI         0.0277
     20 H2         15.6569   25.8163   -4.7262 H         1 LRI         0.0371
     21 H3         14.2233   23.7334   -4.9074 H         1 LRI         0.0598
     22 H4         13.8218   27.2374   -0.4719 H         1 LRI         0.0716
     23 H5         12.7943   25.7898   -0.1973 H         1 LRI         0.0716
     24 H6         12.1238   28.5340   -2.9621 H         1 LRI         0.0563
     25 H7         11.1486   29.8004   -0.1610 H         1 LRI         0.0289
     26 H8         11.2841   30.7486   -1.6806 H         1 LRI         0.0289
     27 H9         13.8422   30.0991   -1.8578 H         1 LRI         0.0289
     28 H10        13.7067   29.1509   -0.3382 H         1 LRI         0.0289
     29 H11         9.6710   28.4043   -2.2958 H         1 LRI         0.0543
     30 H12        10.4065   23.0721   -0.7976 H         1 LRI         0.1823
     31 H13         8.7613   22.9368   -1.4741 H         1 LRI         0.1823
@<TRIPOS>BOND
     1    1    2 1  
     2    1    5 2  
     3    2    3 2  
     4    3    4 1  
     5    4    5 1  
     6    5    6 1  
     7    6    7 1  
     8    7    8 1  
     9    7   11 1  
    10    8    9 1  
    11    8   10 1  
    12    9   10 1  
    13   11   12 ar 
    14   11   13 ar 
    15   12   17 ar 
    16   13   14 ar 
    17   14   15 1  
    18   14   16 ar 
    19   16   17 ar 
    20   17   18 1  
    21    1   19 1  
    22    2   20 1  
    23    3   21 1  
    24    6   22 1  
    25    6   23 1  
    26    8   24 1  
    27    9   25 1  
    28    9   26 1  
    29   10   27 1  
    30   10   28 1  
    31   13   29 1  
    32   18   30 1  
    33   18   31 1  
@<TRIPOS>SUBSTRUCTURE
     1 LRI         1

