### 
### Created by X-TOOL on Mon Sep 10 21:13:26 2018
### 

@<TRIPOS>MOLECULE
5ivc_ligand
   42    44     1     0     0
SMALL
GAST_HUCK


@<TRIPOS>ATOM
      1 C10       -23.8370   20.1690    2.5610 C.ar      1 6E7         0.0762
      2 C13       -24.0020   21.7070    0.2930 C.ar      1 6E7        -0.0136
      3 C20       -25.9930   25.9370    3.6610 C.3       1 6E7         0.0011
      4 C21       -26.3670   25.0080    4.8170 C.ar      1 6E7        -0.0411
      5 C22       -27.6130   25.0730    5.4030 C.ar      1 6E7        -0.0603
      6 C24       -27.1430   23.2570    6.9330 C.ar      1 6E7        -0.0687
      7 C26       -25.5040   24.0160    5.3190 C.ar      1 6E7        -0.0603
      8 O01       -24.1730   20.3430    7.8680 O.co2     1 6E7        -0.5574
      9 C02       -23.5090   19.3160    7.5750 C.2       1 6E7         0.0723
     10 O03       -22.8570   18.6440    8.3920 O.co2     1 6E7        -0.5574
     11 C04       -23.5270   18.8550    6.1250 C.ar      1 6E7         0.0315
     12 C05       -23.3680   17.5050    5.8340 C.ar      1 6E7        -0.0190
     13 C06       -23.3890   17.1190    4.5090 C.ar      1 6E7         0.0154
     14 N07       -23.5420   17.9590    3.4680 N.ar      1 6E7        -0.2851
     15 C08       -23.7080   19.2790    3.7560 C.ar      1 6E7         0.0746
     16 C09       -23.6900   19.7750    5.0660 C.ar      1 6E7        -0.0096
     17 C11       -24.2280   21.4950    2.6550 C.ar      1 6E7        -0.0041
     18 C12       -24.3240   22.2960    1.5060 C.ar      1 6E7         0.0712
     19 C14       -23.6180   20.3770    0.2830 C.ar      1 6E7         0.0173
     20 N15       -23.5120   19.6180    1.3880 N.ar      1 6E7        -0.2833
     21 C16       -24.7280   23.7190    1.5740 C.2       1 6E7         0.2153
     22 O17       -24.0320   24.5960    1.0640 O.2       1 6E7        -0.3794
     23 N18       -25.8510   24.0060    2.1770 N.am      1 6E7        -0.2824
     24 C19       -26.3130   25.3770    2.3140 C.3       1 6E7         0.0402
     25 C23       -28.0080   24.2290    6.4420 C.ar      1 6E7        -0.0686
     26 C25       -25.8770   23.1520    6.3580 C.ar      1 6E7        -0.0686
     27 H1        -24.0499   22.2760   -0.6284 H         1 6E7         0.0766
     28 H2        -24.9115   26.1321    3.7081 H         1 6E7         0.0446
     29 H3        -26.5419   26.8824    3.7835 H         1 6E7         0.0446
     30 H4        -28.3176   25.8128    5.0406 H         1 6E7         0.0557
     31 H5        -27.4445   22.5993    7.7402 H         1 6E7         0.0559
     32 H6        -24.5150   23.9165    4.8865 H         1 6E7         0.0557
     33 H7        -23.2315   16.7764    6.6249 H         1 6E7         0.0750
     34 H8        -23.2740   16.0634    4.2908 H         1 6E7         0.0837
     35 H9        -23.7982   20.8357    5.2614 H         1 6E7         0.0764
     36 H10       -24.4621   21.9180    3.6252 H         1 6E7         0.0782
     37 H11       -23.3890   19.9200   -0.6729 H         1 6E7         0.0841
     38 H12       -26.4061   23.2642    2.5534 H         1 6E7         0.1850
     39 H13       -25.8256   25.9956    1.5460 H         1 6E7         0.0542
     40 H14       -27.4029   25.4019    2.1676 H         1 6E7         0.0542
     41 H15       -28.9984   24.3321    6.8703 H         1 6E7         0.0599
     42 H16       -25.1807   22.4017    6.7147 H         1 6E7         0.0599
@<TRIPOS>BOND
     1    1   15 1  
     2   17    1 ar 
     3    1   20 ar 
     4   18    2 ar 
     5    2   19 ar 
     6    3    4 1  
     7   24    3 1  
     8    4    5 ar 
     9    4    7 ar 
    10    5   25 ar 
    11   25    6 ar 
    12   26    6 ar 
    13    7   26 ar 
    14    9    8 ar 
    15    9   10 ar 
    16   11    9 1  
    17   11   12 ar 
    18   16   11 ar 
    19   13   12 ar 
    20   14   13 ar 
    21   15   14 ar 
    22   15   16 ar 
    23   18   17 ar 
    24   21   18 1  
    25   19   20 ar 
    26   21   22 2  
    27   23   21 am 
    28   23   24 1  
    29    2   27 1  
    30    3   28 1  
    31    3   29 1  
    32    5   30 1  
    33    6   31 1  
    34    7   32 1  
    35   12   33 1  
    36   13   34 1  
    37   16   35 1  
    38   17   36 1  
    39   19   37 1  
    40   23   38 1  
    41   24   39 1  
    42   24   40 1  
    43   25   41 1  
    44   26   42 1  
@<TRIPOS>SUBSTRUCTURE
     1 6E7         1

