### 
### Created by X-TOOL on Mon Sep 10 21:13:27 2018
### 

@<TRIPOS>MOLECULE
5ive_ligand
   28    29     1     0     0
SMALL
GAST_HUCK


@<TRIPOS>ATOM
      1 C10       -22.9960   17.6890    7.2400 C.2       1 6E8         0.0126
      2 N12       -23.7960   19.3860    8.2420 N.am      1 6E8        -0.0816
      3 C13       -24.1280   20.2440    9.2130 C.2       1 6E8         0.2508
      4 C15       -23.7540   18.1810    4.8670 C.1       1 6E8         0.0455
      5 C01       -24.2430   22.8820   10.9280 C.3       1 6E8        -0.0601
      6 C02       -25.3130   22.4820    9.8840 C.3       1 6E8        -0.0253
      7 C03       -26.5330   21.9980   10.6700 C.3       1 6E8        -0.0601
      8 C04       -24.9130   21.4550    8.8160 C.2       1 6E8         0.0461
      9 C05       -25.2620   21.6180    7.5140 C.2       1 6E8         0.0659
     10 C06       -26.0540   22.7590    6.9260 C.3       1 6E8        -0.0015
     11 N07       -24.8850   20.6680    6.5710 N.pl3     1 6E8        -0.2245
     12 C08       -24.1480   19.5510    6.9560 C.2       1 6E8         0.2573
     13 C09       -23.6400   18.4670    6.2600 C.2       1 6E8         0.1295
     14 N11       -23.0710   18.2410    8.4560 N.2       1 6E8        -0.1973
     15 O14       -23.7920   20.0290   10.3720 O.2       1 6E8        -0.3897
     16 N16       -23.8270   17.8930    3.7330 N.1       1 6E8        -0.3797
     17 H1        -22.4939   16.7453    7.0321 H         1 6E8         0.0644
     18 H2        -24.6681   23.6197   11.6245 H         1 6E8         0.0243
     19 H3        -23.3751   23.3208   10.4140 H         1 6E8         0.0243
     20 H4        -23.9253   21.9899   11.4877 H         1 6E8         0.0243
     21 H5        -25.5908   23.3975    9.3412 H         1 6E8         0.0352
     22 H6        -27.3265   21.7003    9.9687 H         1 6E8         0.0243
     23 H7        -26.8995   22.8102   11.3150 H         1 6E8         0.0243
     24 H8        -26.2503   21.1354   11.2913 H         1 6E8         0.0243
     25 H9        -26.1716   22.6041    5.8433 H         1 6E8         0.0452
     26 H10       -25.5224   23.7052    7.1054 H         1 6E8         0.0452
     27 H11       -27.0456   22.7999    7.4003 H         1 6E8         0.0452
     28 H12       -25.1520   20.7911    5.5838 H         1 6E8         0.2310
@<TRIPOS>BOND
     1    1   13 1  
     2   14    1 2  
     3    3    2 am 
     4    2   12 1  
     5    2   14 1  
     6    8    3 1  
     7    3   15 2  
     8   13    4 1  
     9    4   16 3  
    10    6    5 1  
    11    6    7 1  
    12    6    8 1  
    13    8    9 2  
    14    9   10 1  
    15    9   11 1  
    16   11   12 1  
    17   12   13 2  
    18    1   17 1  
    19    5   18 1  
    20    5   19 1  
    21    5   20 1  
    22    6   21 1  
    23    7   22 1  
    24    7   23 1  
    25    7   24 1  
    26   10   25 1  
    27   10   26 1  
    28   10   27 1  
    29   11   28 1  
@<TRIPOS>SUBSTRUCTURE
     1 6E8         1

