### 
### Created by X-TOOL on Mon Sep 10 21:13:27 2018
### 

@<TRIPOS>MOLECULE
5ivf_ligand
   37    39     1     0     0
SMALL
GAST_HUCK


@<TRIPOS>ATOM
      1 C10       -24.5330   21.1370    6.6720 C.2       1 6EB         0.3025
      2 C13       -26.6370   24.1290    6.4330 C.2       1 6EB         0.0239
      3 C15       -28.9700   24.8200    6.7080 C.3       1 6EB         0.3409
      4 C20       -23.7290   19.0660    7.5560 C.2       1 6EB         0.2435
      5 C22       -23.5680   18.6450    6.1720 C.ar      1 6EB         0.0710
      6 C24       -22.9240   17.0400    4.5630 C.ar      1 6EB        -0.0040
      7 C01       -24.1030   23.0430    0.7400 C.3       1 6EB         0.0498
      8 N02       -23.9250   21.6890    1.2640 N.pl3     1 6EB        -0.2473
      9 C03       -23.6530   20.5340    0.5380 C.2       1 6EB         0.1017
     10 N04       -23.5600   19.4690    1.3610 N.2       1 6EB        -0.3165
     11 C05       -23.8780   19.9350    2.6400 C.2       1 6EB         0.0405
     12 C06       -24.0120   21.3050    2.5810 C.2       1 6EB         0.0549
     13 C07       -23.7300   19.0910    3.7800 C.ar      1 6EB         0.0485
     14 C08       -23.8780   19.5430    5.1330 C.ar      1 6EB         0.0380
     15 N09       -24.3760   20.8060    5.3730 N.2       1 6EB        -0.2814
     16 O11       -25.0200   22.3520    7.0370 O.3       1 6EB        -0.2140
     17 C12       -25.5780   23.1120    5.9730 C.3       1 6EB         0.1618
     18 C14       -27.8810   23.8840    6.3350 C.2       1 6EB         0.0116
     19 F16       -28.6840   25.5290    7.7880 F         1 6EB        -0.2515
     20 F17       -30.1220   24.1860    6.9370 F         1 6EB        -0.2515
     21 F18       -29.2290   25.7040    5.7500 F         1 6EB        -0.2515
     22 N19       -24.2260   20.3190    7.7560 N.am      1 6EB        -0.1652
     23 O21       -23.4550   18.3660    8.5030 O.2       1 6EB        -0.3822
     24 C23       -23.0710   17.3760    5.8840 C.ar      1 6EB        -0.0319
     25 N25       -23.2280   17.8680    3.5060 N.ar      1 6EB        -0.3094
     26 H1        -26.3137   25.0807    6.8522 H         1 6EB         0.1562
     27 H2        -22.5411   16.0519    4.3345 H         1 6EB         0.0720
     28 H3        -23.9728   23.0335   -0.3522 H         1 6EB         0.0593
     29 H4        -23.3565   23.7124    1.1924 H         1 6EB         0.0593
     30 H5        -25.1135   23.4014    0.9857 H         1 6EB         0.0593
     31 H6        -23.5320   20.4949   -0.5436 H         1 6EB         0.1244
     32 H7        -24.1611   21.9691    3.4311 H         1 6EB         0.0952
     33 H8        -24.7652   23.6584    5.4723 H         1 6EB         0.1076
     34 H9        -26.0479   22.4190    5.2596 H         1 6EB         0.1076
     35 H10       -28.1702   22.9088    5.9460 H         1 6EB         0.0546
     36 H11       -24.3711   20.6531    8.6873 H         1 6EB         0.2550
     37 H12       -22.8105   16.6809    6.6740 H         1 6EB         0.0676
@<TRIPOS>BOND
     1    1   15 2  
     2   16    1 1  
     3    1   22 1  
     4   17    2 1  
     5    2   18 2  
     6   18    3 1  
     7    3   19 1  
     8    3   20 1  
     9    3   21 1  
    10    4    5 1  
    11   22    4 am 
    12    4   23 2  
    13   14    5 ar 
    14    5   24 ar 
    15   24    6 ar 
    16   25    6 ar 
    17    8    7 1  
    18    8    9 1  
    19   12    8 1  
    20   10    9 2  
    21   11   10 1  
    22   11   12 2  
    23   13   11 1  
    24   14   13 ar 
    25   13   25 ar 
    26   15   14 1  
    27   16   17 1  
    28    2   26 1  
    29    6   27 1  
    30    7   28 1  
    31    7   29 1  
    32    7   30 1  
    33    9   31 1  
    34   12   32 1  
    35   17   33 1  
    36   17   34 1  
    37   18   35 1  
    38   22   36 1  
    39   24   37 1  
@<TRIPOS>SUBSTRUCTURE
     1 6EB         1

