### 
### Created by X-TOOL on Mon Sep 10 21:13:26 2018
### 

@<TRIPOS>MOLECULE
5ivj_ligand
   50    53     1     0     0
SMALL
GAST_HUCK


@<TRIPOS>ATOM
      1 N12       -24.5960   21.8780    3.5670 N.2       1 6ED        -0.2045
      2 C15       -24.2470   22.5460    0.9420 C.3       1 6ED        -0.0047
      3 C17       -25.1220   22.5810   -1.3380 C.3       1 6ED        -0.0263
      4 C22       -27.5880   21.8370   -0.6270 C.3       1 6ED         0.0511
      5 C24       -25.8570   23.6940    4.0770 C.ar      1 6ED         0.0825
      6 C26       -26.4080   23.2560    6.4020 C.ar      1 6ED        -0.0292
      7 O01       -22.7020   18.4190    8.4090 O.co2     1 6ED        -0.5615
      8 C02       -23.4750   19.0840    7.6900 C.2       1 6ED         0.0658
      9 O03       -24.1560   20.0460    8.1110 O.co2     1 6ED        -0.5615
     10 C04       -23.5840   18.7330    6.2450 C.ar      1 6ED         0.0509
     11 C05       -23.0820   17.4890    5.8710 C.ar      1 6ED        -0.0308
     12 C06       -23.1530   17.1040    4.5310 C.ar      1 6ED         0.0016
     13 N07       -23.7020   17.8870    3.5610 N.ar      1 6ED        -0.3063
     14 C08       -24.1900   19.0880    3.9520 C.ar      1 6ED         0.0362
     15 C09       -24.1350   19.5430    5.2670 C.ar      1 6ED         0.1002
     16 N10       -24.6820   20.8040    5.6470 N.pl3     1 6ED        -0.2606
     17 C11       -24.9770   21.7470    4.8400 C.2       1 6ED         0.1345
     18 N13       -25.1510   23.0750    3.0980 N.pl3     1 6ED        -0.2130
     19 C25       -25.7840   22.9000    5.2140 C.ar      1 6ED         0.0369
     20 C27       -27.1130   24.4490    6.3790 C.ar      1 6ED         0.1202
     21 F28       -27.7300   24.8350    7.5010 F         1 6ED        -0.1932
     22 C29       -27.2110   25.2700    5.2700 C.ar      1 6ED        -0.0367
     23 C30       -26.5780   24.8970    4.0950 C.ar      1 6ED        -0.0373
     24 C14       -24.9390   23.4400    1.8680 C.3       1 6ED         0.0994
     25 N16       -25.1510   21.8970   -0.0310 N.4       1 6ED         0.2374
     26 C18       -26.1760   23.6950   -1.4570 C.3       1 6ED         0.0511
     27 C19       -27.5730   23.1930   -1.2460 C.3       1 6ED         0.2585
     28 F20       -28.2540   23.1690   -2.4490 F         1 6ED        -0.2052
     29 F21       -28.2650   24.0710   -0.4500 F         1 6ED        -0.2052
     30 C23       -26.5550   21.7570    0.4960 C.3       1 6ED        -0.0263
     31 H1        -23.7417   21.7622    1.5255 H         1 6ED         0.0841
     32 H2        -23.4982   23.1301    0.3869 H         1 6ED         0.0841
     33 H3        -25.3075   21.8373   -2.1270 H         1 6ED         0.0816
     34 H4        -24.1255   23.0248   -1.4793 H         1 6ED         0.0816
     35 H5        -27.3498   21.0851   -1.3937 H         1 6ED         0.0375
     36 H6        -28.5882   21.6368   -0.2153 H         1 6ED         0.0375
     37 H7        -26.3476   22.6396    7.2917 H         1 6ED         0.0575
     38 H8        -22.6423   16.8289    6.6100 H         1 6ED         0.0708
     39 H9        -22.7526   16.1369    4.2493 H         1 6ED         0.0722
     40 H10       -24.6461   19.7269    3.2044 H         1 6ED         0.0744
     41 H11       -24.8519   20.9658    6.6499 H         1 6ED         0.2102
     42 H12       -27.7760   26.1938    5.3195 H         1 6ED         0.0577
     43 H13       -26.6387   25.5205    3.2103 H         1 6ED         0.0546
     44 H14       -25.9243   23.6510    1.4268 H         1 6ED         0.0654
     45 H15       -24.3501   24.3681    1.9109 H         1 6ED         0.0654
     46 H16       -24.8003   20.9636   -0.1790 H         1 6ED         0.2034
     47 H17       -26.1089   24.1375   -2.4618 H         1 6ED         0.0375
     48 H18       -25.9609   24.4654   -0.7019 H         1 6ED         0.0375
     49 H19       -26.6513   20.7846    1.0010 H         1 6ED         0.0816
     50 H20       -26.7479   22.5653    1.2168 H         1 6ED         0.0816
@<TRIPOS>BOND
     1    1   17 2  
     2   18    1 1  
     3    2   24 1  
     4   25    2 1  
     5   25    3 1  
     6    3   26 1  
     7    4   27 1  
     8   30    4 1  
     9   18    5 1  
    10    5   19 ar 
    11    5   23 ar 
    12   19    6 ar 
    13    6   20 ar 
    14    8    7 ar 
    15    8    9 ar 
    16   10    8 1  
    17   10   11 ar 
    18   15   10 ar 
    19   11   12 ar 
    20   13   12 ar 
    21   14   13 ar 
    22   15   14 ar 
    23   16   15 1  
    24   17   16 1  
    25   19   17 1  
    26   24   18 1  
    27   20   21 1  
    28   22   20 ar 
    29   23   22 ar 
    30   25   30 1  
    31   26   27 1  
    32   27   28 1  
    33   27   29 1  
    34    2   31 1  
    35    2   32 1  
    36    3   33 1  
    37    3   34 1  
    38    4   35 1  
    39    4   36 1  
    40    6   37 1  
    41   11   38 1  
    42   12   39 1  
    43   14   40 1  
    44   16   41 1  
    45   22   42 1  
    46   23   43 1  
    47   24   44 1  
    48   24   45 1  
    49   25   46 1  
    50   26   47 1  
    51   26   48 1  
    52   30   49 1  
    53   30   50 1  
@<TRIPOS>SUBSTRUCTURE
     1 6ED         1

