### 
### Created by X-TOOL on Mon Sep 10 21:13:28 2018
### 

@<TRIPOS>MOLECULE
5ivs_ligand
   91    95     1     0     0
SMALL
GAST_HUCK


@<TRIPOS>ATOM
      1 C2        -24.7110   15.9430   -4.2180 C.2       1 6EF         0.3218
      2 C5        -26.8950   15.0840   -4.2980 C.3       1 6EF         0.0663
      3 C7        -22.6090   16.8460   -1.4950 C.ar      1 6EF        -0.0243
      4 C9        -19.4480   17.7190   -2.0610 C.ar      1 6EF        -0.0579
      5 C10       -18.5380   18.7400   -1.9140 C.ar      1 6EF        -0.0682
      6 C11       -18.8820   20.0220   -2.2880 C.ar      1 6EF        -0.0685
      7 C12       -20.1380   20.2780   -2.7980 C.ar      1 6EF        -0.0682
      8 C13       -21.0420   19.2450   -2.9410 C.ar      1 6EF        -0.0579
      9 C15       -24.5640   17.7060   -0.3730 C.ar      1 6EF        -0.0682
     10 C18       -22.3480   16.0250   -0.4140 C.ar      1 6EF        -0.0579
     11 C20       -19.3210   17.3750   -7.5640 C.ar      1 6EF        -0.0210
     12 C21       -18.4890   17.0040   -8.6010 C.ar      1 6EF        -0.0735
     13 C22       -18.6780   15.8130   -9.2540 C.ar      1 6EF        -0.0840
     14 C         -21.3570   16.0620   -5.0180 C.2       1 6EF         0.2318
     15 N         -23.3880   15.6130   -3.9760 N.am      1 6EF        -0.2369
     16 O         -20.7650   15.0060   -4.8540 O.2       1 6EF        -0.3828
     17 C1        -22.3370   16.6200   -4.0240 C.3       1 6EF         0.1596
     18 O3        -25.5120   14.8360   -4.0630 O.3       1 6EF        -0.2671
     19 O4        -25.1040   17.0610   -4.5110 O.2       1 6EF        -0.3774
     20 C6        -21.6550   16.7980   -2.6690 C.3       1 6EF         0.0662
     21 C8        -20.6990   17.9540   -2.5760 C.ar      1 6EF        -0.0243
     22 C14       -23.7120   17.6890   -1.4630 C.ar      1 6EF        -0.0579
     23 C16       -24.3020   16.8700    0.6940 C.ar      1 6EF        -0.0685
     24 C17       -23.1960   16.0360    0.6740 C.ar      1 6EF        -0.0682
     25 C19       -20.3530   16.5170   -7.1910 C.ar      1 6EF         0.0689
     26 C23       -19.6920   14.9600   -8.8790 C.ar      1 6EF        -0.0825
     27 C24       -20.5330   15.3050   -7.8460 C.ar      1 6EF        -0.0475
     28 C25       -15.0210   19.5610   -6.5800 C.3       1 6EF         0.0934
     29 C26       -14.2320   19.4370   -5.2810 C.3       1 6EF         0.0295
     30 N27       -14.7270   18.2590   -4.5070 N.4       1 6EF         0.2345
     31 C28       -16.2210   18.1470   -4.4210 C.3       1 6EF        -0.0062
     32 C29       -16.8210   18.2880   -5.7980 C.3       1 6EF         0.1000
     33 O30       -16.4420   19.5690   -6.3390 O.3       1 6EF        -0.3655
     34 C31       -18.3210   18.2940   -5.6010 C.3       1 6EF        -0.0139
     35 N32       -21.2270   16.8620   -6.1310 N.am      1 6EF        -0.2347
     36 C33       -19.0300   18.6890   -6.8800 C.3       1 6EF        -0.0205
     37 C34       -14.4300   20.6520   -4.4170 C.3       1 6EF         0.1219
     38 O35       -13.6180   21.5960   -5.0710 O.3       1 6EF        -0.2581
     39 C36       -14.1440   22.8150   -5.2380 C.2       1 6EF         0.3216
     40 N37       -13.2430   23.6070   -5.8860 N.am      1 6EF        -0.2512
     41 O38       -15.2490   23.1570   -4.8380 O.2       1 6EF        -0.3774
     42 C39       -12.2900   24.3950   -5.1490 C.3       1 6EF         0.0664
     43 C40       -12.5070   24.4770   -3.6750 C.ar      1 6EF        -0.0210
     44 C41       -13.5930   23.9350   -3.0120 C.ar      1 6EF        -0.0584
     45 C42       -13.7610   24.0140   -1.6530 C.ar      1 6EF        -0.0685
     46 C43       -12.8170   24.6830   -0.9210 C.ar      1 6EF        -0.0687
     47 C44       -11.7330   25.2280   -1.5670 C.ar      1 6EF        -0.0685
     48 C45       -11.5580   25.1270   -2.9260 C.ar      1 6EF        -0.0584
     49 H1        -27.4639   14.1536   -4.1543 H         1 6EF         0.0575
     50 H2        -27.0333   15.4429   -5.3286 H         1 6EF         0.0575
     51 H3        -27.2558   15.8470   -3.5925 H         1 6EF         0.0575
     52 H4        -19.1732   16.7129   -1.7656 H         1 6EF         0.0561
     53 H5        -17.5544   18.5377   -1.5058 H         1 6EF         0.0600
     54 H6        -18.1656   20.8285   -2.1813 H         1 6EF         0.0561
     55 H7        -20.4137   21.2862   -3.0852 H         1 6EF         0.0600
     56 H8        -22.0287   19.4459   -3.3424 H         1 6EF         0.0561
     57 H9        -25.4241   18.3656   -0.3570 H         1 6EF         0.0600
     58 H10       -21.4804   15.3751   -0.4212 H         1 6EF         0.0561
     59 H11       -17.6796   17.6594   -8.9017 H         1 6EF         0.0513
     60 H12       -18.0228   15.5403  -10.0734 H         1 6EF         0.0470
     61 H13       -23.1498   14.6652   -3.7642 H         1 6EF         0.1903
     62 H14       -22.7392   17.5863   -4.3624 H         1 6EF         0.0854
     63 H15       -21.0475   15.8909   -2.5343 H         1 6EF         0.0667
     64 H16       -23.9084   18.3435   -2.3045 H         1 6EF         0.0561
     65 H17       -24.9650   16.8662    1.5516 H         1 6EF         0.0561
     66 H18       -22.9955   15.3875    1.5192 H         1 6EF         0.0600
     67 H19       -19.8275   14.0176   -9.3972 H         1 6EF         0.0520
     68 H20       -21.3308   14.6355   -7.5452 H         1 6EF         0.0480
     69 H21       -14.7741   18.7089   -7.2304 H         1 6EF         0.0617
     70 H22       -14.7387   20.4987   -7.0810 H         1 6EF         0.0617
     71 H23       -13.1638   19.3147   -5.5133 H         1 6EF         0.0900
     72 H24       -14.3627   18.3240   -3.5694 H         1 6EF         0.2019
     73 H25       -14.3745   17.4236   -4.9473 H         1 6EF         0.2019
     74 H26       -16.6105   18.9428   -3.7691 H         1 6EF         0.0840
     75 H27       -16.4908   17.1658   -4.0032 H         1 6EF         0.0840
     76 H28       -16.5029   17.4695   -6.4605 H         1 6EF         0.0651
     77 H29       -18.5779   19.0133   -4.8094 H         1 6EF         0.0311
     78 H30       -18.6496   17.2875   -5.3027 H         1 6EF         0.0311
     79 H31       -21.7613   17.7051   -6.1924 H         1 6EF         0.2235
     80 H32       -19.9628   19.2282   -6.6582 H         1 6EF         0.0398
     81 H33       -18.3819   19.3196   -7.5063 H         1 6EF         0.0398
     82 H34       -14.0881   20.4728   -3.3870 H         1 6EF         0.0669
     83 H35       -15.4834   20.9685   -4.4039 H         1 6EF         0.0669
     84 H36       -13.2442   23.6409   -6.8854 H         1 6EF         0.1894
     85 H37       -12.3182   25.4188   -5.5504 H         1 6EF         0.0683
     86 H38       -11.2931   23.9620   -5.3184 H         1 6EF         0.0683
     87 H39       -14.3491   23.4222   -3.5954 H         1 6EF         0.0557
     88 H40       -14.6187   23.5587   -1.1712 H         1 6EF         0.0599
     89 H41       -12.9230   24.7815    0.1533 H         1 6EF         0.0559
     90 H42       -10.9888   25.7570   -0.9827 H         1 6EF         0.0599
     91 H43       -10.6822   25.5549   -3.4003 H         1 6EF         0.0557
@<TRIPOS>BOND
     1   15    1 am 
     2    1   18 1  
     3    1   19 2  
     4   18    2 1  
     5    3   10 ar 
     6   20    3 1  
     7    3   22 ar 
     8    4    5 ar 
     9   21    4 ar 
    10    5    6 ar 
    11    7    6 ar 
    12    8    7 ar 
    13   21    8 ar 
    14   22    9 ar 
    15    9   23 ar 
    16   10   24 ar 
    17   11   12 ar 
    18   11   25 ar 
    19   36   11 1  
    20   12   13 ar 
    21   13   26 ar 
    22   14   16 2  
    23   14   17 1  
    24   35   14 am 
    25   17   15 1  
    26   17   20 1  
    27   20   21 1  
    28   24   23 ar 
    29   25   27 ar 
    30   25   35 1  
    31   27   26 ar 
    32   28   29 1  
    33   33   28 1  
    34   30   29 1  
    35   29   37 1  
    36   31   30 1  
    37   32   31 1  
    38   32   33 1  
    39   34   32 1  
    40   34   36 1  
    41   37   38 1  
    42   38   39 1  
    43   39   40 am 
    44   39   41 2  
    45   40   42 1  
    46   42   43 1  
    47   43   44 ar 
    48   43   48 ar 
    49   44   45 ar 
    50   45   46 ar 
    51   46   47 ar 
    52   47   48 ar 
    53    2   49 1  
    54    2   50 1  
    55    2   51 1  
    56    4   52 1  
    57    5   53 1  
    58    6   54 1  
    59    7   55 1  
    60    8   56 1  
    61    9   57 1  
    62   10   58 1  
    63   12   59 1  
    64   13   60 1  
    65   15   61 1  
    66   17   62 1  
    67   20   63 1  
    68   22   64 1  
    69   23   65 1  
    70   24   66 1  
    71   26   67 1  
    72   27   68 1  
    73   28   69 1  
    74   28   70 1  
    75   29   71 1  
    76   30   72 1  
    77   30   73 1  
    78   31   74 1  
    79   31   75 1  
    80   32   76 1  
    81   34   77 1  
    82   34   78 1  
    83   35   79 1  
    84   36   80 1  
    85   36   81 1  
    86   37   82 1  
    87   37   83 1  
    88   40   84 1  
    89   42   85 1  
    90   42   86 1  
    91   44   87 1  
    92   45   88 1  
    93   46   89 1  
    94   47   90 1  
    95   48   91 1  
@<TRIPOS>SUBSTRUCTURE
     1 6EF         1

