### 
### Created by X-TOOL on Mon Sep 10 21:13:27 2018
### 

@<TRIPOS>MOLECULE
5ivt_ligand
   78    81     1     0     0
SMALL
GAST_HUCK


@<TRIPOS>ATOM
      1 C2        -14.2770   19.6430   -5.1420 C.3       1 6EE        -0.0062
      2 C3        -14.8050   20.9110   -4.4900 C.3       1 6EE         0.1001
      3 O8        -19.3170   19.3140   -6.4980 O.2       1 6EE        -0.3775
      4 C9        -20.7220   17.1990   -3.9620 C.3       1 6EE         0.1278
      5 C10       -20.7870   17.9520   -2.6560 C.3       1 6EE         0.4094
      6 C13       -14.3990   22.0750   -5.3630 C.3       1 6EE        -0.0127
      7 C15       -13.6680   23.8410   -3.7080 C.ar      1 6EE         0.0318
      8 C20       -12.4610   24.3810   -4.1170 C.ar      1 6EE         0.0947
      9 C30       -11.9960   20.9420   -8.1380 C.ar      1 6EE        -0.0571
     10 C34       -12.9850   22.9480   -8.9690 C.ar      1 6EE        -0.0571
     11 C31       -13.1810   20.2600   -8.3630 C.ar      1 6EE        -0.0542
     12 C33       -14.1710   22.2670   -9.1970 C.ar      1 6EE        -0.0542
     13 C35        -8.7830   22.2250   -9.7520 C.ar      1 6EE        -0.0284
     14 C39       -10.2680   23.9160  -10.5400 C.ar      1 6EE        -0.0284
     15 C37        -8.5580   23.0890  -11.9840 C.ar      1 6EE        -0.0017
     16 C19       -11.5660   24.7720   -3.1380 C.ar      1 6EE         0.0191
     17 C17       -12.9410   24.1360   -1.4440 C.ar      1 6EE         0.0203
     18 C28       -11.8830   22.3000   -8.4200 C.ar      1 6EE        -0.0210
     19 C29        -9.8520   23.0700   -9.5210 C.ar      1 6EE        -0.0248
     20 C36        -8.1460   22.2410  -10.9790 C.ar      1 6EE         0.1245
     21 C38        -9.6190   23.9320  -11.7570 C.ar      1 6EE         0.1245
     22 C16       -13.8950   23.7270   -2.3490 C.ar      1 6EE         0.1477
     23 C32       -14.2660   20.9210   -8.8940 C.ar      1 6EE         0.0332
     24 C23       -10.9730   24.0470   -5.9960 C.2       1 6EE         0.2565
     25 C6        -19.4210   18.4560   -5.6380 C.2       1 6EE         0.3199
     26 C         -16.6950   19.8040   -3.6360 C.3       1 6EE         0.0934
     27 C1        -16.3520   18.4650   -4.2800 C.3       1 6EE         0.0295
     28 C14       -14.7040   23.4050   -4.7020 C.3       1 6EE        -0.0127
     29 C4        -17.1170   18.1910   -5.5580 C.3       1 6EE         0.1219
     30 C27       -10.5490   22.9930   -8.1890 C.3       1 6EE         0.0847
     31 C24       -10.7200   24.3280   -7.4500 C.3       1 6EE         0.0921
     32 N18       -11.7660   24.6550   -1.8200 N.ar      1 6EE        -0.3250
     33 N22       -12.1430   24.5550   -5.4850 N.am      1 6EE        -0.2261
     34 N7        -20.6090   18.1170   -5.0670 N.am      1 6EE        -0.2539
     35 N         -14.8840   18.4230   -4.5340 N.4       1 6EE         0.2345
     36 N26        -9.4680   25.1380   -7.4830 N.4       1 6EE         0.2414
     37 O25       -10.1350   23.4460   -5.3470 O.2       1 6EE        -0.3782
     38 O         -16.2270   20.8870   -4.4450 O.3       1 6EE        -0.3655
     39 O5        -18.3920   17.7180   -5.1520 O.3       1 6EE        -0.2582
     40 F41        -7.1080   21.4180  -11.1990 F         1 6EE        -0.1863
     41 F40       -10.0330   24.7490  -12.7500 F         1 6EE        -0.1863
     42 F21       -15.0430   23.2030   -1.8860 F         1 6EE        -0.1848
     43 F         -20.9610   17.1180   -1.5980 F         1 6EE        -0.1685
     44 F11       -19.6350   18.6170   -2.3930 F         1 6EE        -0.1685
     45 F12       -21.8380   18.8200   -2.6590 F         1 6EE        -0.1685
     46 CL        -15.7400   20.0710   -9.1780 Cl        1 6EE        -0.0769
     47 H1        -13.1855   19.6019   -5.0122 H         1 6EE         0.0840
     48 H2        -14.5181   19.6655   -6.2150 H         1 6EE         0.0840
     49 H3        -14.3926   21.0190   -3.4760 H         1 6EE         0.0651
     50 H4        -21.6369   16.6000   -4.0808 H         1 6EE         0.0608
     51 H5        -19.8464   16.5332   -3.9532 H         1 6EE         0.0608
     52 H6        -14.9480   22.0156   -6.3143 H         1 6EE         0.0313
     53 H7        -13.3183   22.0138   -5.5588 H         1 6EE         0.0313
     54 H8        -11.1425   20.4086   -7.7355 H         1 6EE         0.0561
     55 H9        -12.9154   23.9998   -9.2220 H         1 6EE         0.0561
     56 H10       -13.2539   19.2059   -8.1210 H         1 6EE         0.0606
     57 H11       -15.0245   22.7900   -9.6131 H         1 6EE         0.0606
     58 H12        -8.4448   21.5513   -8.9730 H         1 6EE         0.0512
     59 H13       -11.1146   24.5731  -10.3770 H         1 6EE         0.0512
     60 H14        -8.0511   23.0910  -12.9422 H         1 6EE         0.0534
     61 H15       -10.6284   25.2077   -3.4639 H         1 6EE         0.0648
     62 H16       -13.1500   24.0336   -0.3853 H         1 6EE         0.0660
     63 H17       -16.2196   19.8611   -2.6457 H         1 6EE         0.0617
     64 H18       -17.7865   19.8821   -3.5239 H         1 6EE         0.0617
     65 H19       -16.6066   17.6699   -3.5638 H         1 6EE         0.0900
     66 H20       -15.6693   23.3199   -4.1815 H         1 6EE         0.0415
     67 H21       -14.7766   24.1730   -5.4861 H         1 6EE         0.0415
     68 H22       -16.5991   17.4286   -6.1584 H         1 6EE         0.0669
     69 H23       -17.2208   19.1138   -6.1476 H         1 6EE         0.0669
     70 H24        -9.9387   22.3516   -7.5362 H         1 6EE         0.0701
     71 H25       -11.5536   24.8929   -7.8926 H         1 6EE         0.1155
     72 H26       -12.7732   25.0503   -6.0830 H         1 6EE         0.2260
     73 H27       -21.4454   18.5254   -5.4326 H         1 6EE         0.1870
     74 H28       -14.4253   18.2604   -3.6513 H         1 6EE         0.2019
     75 H29       -14.7028   17.6494   -5.1543 H         1 6EE         0.2019
     76 H30        -9.6156   26.0048   -6.9902 H         1 6EE         0.2019
     77 H31        -9.2196   25.3338   -8.4401 H         1 6EE         0.2019
     78 H32        -8.7228   24.6229   -7.0410 H         1 6EE         0.2019
@<TRIPOS>BOND
     1    2    1 1  
     2    1   35 1  
     3    6    2 1  
     4    2   38 1  
     5   25    3 2  
     6    4    5 1  
     7   34    4 1  
     8    5   43 1  
     9    5   44 1  
    10    5   45 1  
    11   28    6 1  
    12    8    7 ar 
    13    7   22 ar 
    14    7   28 1  
    15    8   16 ar 
    16   33    8 1  
    17    9   11 ar 
    18   18    9 ar 
    19   10   12 ar 
    20   18   10 ar 
    21   11   23 ar 
    22   12   23 ar 
    23   19   13 ar 
    24   13   20 ar 
    25   19   14 ar 
    26   14   21 ar 
    27   20   15 ar 
    28   21   15 ar 
    29   16   32 ar 
    30   22   17 ar 
    31   32   17 ar 
    32   30   18 1  
    33   30   19 1  
    34   20   40 1  
    35   21   41 1  
    36   22   42 1  
    37   23   46 1  
    38   31   24 1  
    39   24   33 am 
    40   24   37 2  
    41   25   34 am 
    42   39   25 1  
    43   26   27 1  
    44   38   26 1  
    45   27   29 1  
    46   35   27 1  
    47   29   39 1  
    48   30   31 1  
    49   31   36 1  
    50    1   47 1  
    51    1   48 1  
    52    2   49 1  
    53    4   50 1  
    54    4   51 1  
    55    6   52 1  
    56    6   53 1  
    57    9   54 1  
    58   10   55 1  
    59   11   56 1  
    60   12   57 1  
    61   13   58 1  
    62   14   59 1  
    63   15   60 1  
    64   16   61 1  
    65   17   62 1  
    66   26   63 1  
    67   26   64 1  
    68   27   65 1  
    69   28   66 1  
    70   28   67 1  
    71   29   68 1  
    72   29   69 1  
    73   30   70 1  
    74   31   71 1  
    75   33   72 1  
    76   34   73 1  
    77   35   74 1  
    78   35   75 1  
    79   36   76 1  
    80   36   77 1  
    81   36   78 1  
@<TRIPOS>SUBSTRUCTURE
     1 6EE         1

