### 
### Created by X-TOOL on Mon Sep 10 21:13:27 2018
### 

@<TRIPOS>MOLECULE
5ivv_ligand
   31    33     1     0     0
SMALL
GAST_HUCK


@<TRIPOS>ATOM
      1 C15       -25.9530   23.9210    4.3070 C.ar      1 6EN         0.1338
      2 C17       -27.4430   25.1650    5.4880 C.ar      1 6EN        -0.0065
      3 C20       -25.8220   22.9940    5.3490 C.ar      1 6EN         0.0307
      4 O01       -22.6480   18.4650    8.4150 O.co2     1 6EN        -0.5618
      5 C02       -23.4120   19.1140    7.6790 C.2       1 6EN         0.0651
      6 O03       -24.1190   20.0940    8.0640 O.co2     1 6EN        -0.5618
      7 C04       -23.5280   18.7660    6.1940 C.ar      1 6EN         0.0491
      8 C05       -23.0780   17.5160    5.7610 C.ar      1 6EN        -0.0319
      9 C06       -23.1720   17.1800    4.4040 C.ar      1 6EN         0.0007
     10 N07       -23.6800   18.0320    3.4720 N.ar      1 6EN        -0.3074
     11 C08       -24.1050   19.2490    3.9200 C.ar      1 6EN         0.0345
     12 C09       -24.0510   19.6580    5.2720 C.ar      1 6EN         0.0935
     13 N10       -24.5140   20.9290    5.6700 N.pl3     1 6EN        -0.2857
     14 C11       -24.9020   21.9780    4.9230 C.2       1 6EN         0.0654
     15 C12       -24.4930   22.3400    3.6560 C.2       1 6EN         0.0421
     16 N13       -25.1400   23.5220    3.2660 N.pl3     1 6EN        -0.2675
     17 C14       -24.9860   24.2200    1.9820 C.3       1 6EN         0.0379
     18 N16       -26.7520   25.0280    4.3390 N.ar      1 6EN        -0.2878
     19 C18       -27.3750   24.2990    6.5630 C.ar      1 6EN        -0.0511
     20 C19       -26.5550   23.1870    6.5070 C.ar      1 6EN        -0.0532
     21 H1        -28.1030   26.0204    5.5758 H         1 6EN         0.0748
     22 H2        -22.6591   16.8111    6.4700 H         1 6EN         0.0705
     23 H3        -22.8267   16.2036    4.0840 H         1 6EN         0.0714
     24 H4        -24.5091   19.9452    3.1940 H         1 6EN         0.0737
     25 H5        -24.5625   21.0766    6.6882 H         1 6EN         0.2016
     26 H6        -23.7750   21.7902    3.0493 H         1 6EN         0.0753
     27 H7        -25.6230   25.1167    1.9735 H         1 6EN         0.0559
     28 H8        -25.2849   23.5501    1.1623 H         1 6EN         0.0559
     29 H9        -23.9349   24.5157    1.8491 H         1 6EN         0.0559
     30 H10       -27.9654   24.4918    7.4514 H         1 6EN         0.0590
     31 H11       -26.4889   22.4936    7.3376 H         1 6EN         0.0677
@<TRIPOS>BOND
     1    3    1 ar 
     2    1   16 1  
     3    1   18 ar 
     4   18    2 ar 
     5    2   19 ar 
     6   14    3 1  
     7    3   20 ar 
     8    5    4 ar 
     9    5    6 ar 
    10    7    5 1  
    11    7    8 ar 
    12   12    7 ar 
    13    8    9 ar 
    14   10    9 ar 
    15   11   10 ar 
    16   12   11 ar 
    17   13   12 1  
    18   13   14 1  
    19   14   15 2  
    20   15   16 1  
    21   16   17 1  
    22   19   20 ar 
    23    2   21 1  
    24    8   22 1  
    25    9   23 1  
    26   11   24 1  
    27   13   25 1  
    28   15   26 1  
    29   17   27 1  
    30   17   28 1  
    31   17   29 1  
    32   19   30 1  
    33   20   31 1  
@<TRIPOS>SUBSTRUCTURE
     1 6EN         1

