### 
### Created by X-TOOL on Mon Sep 10 21:13:28 2018
### 

@<TRIPOS>MOLECULE
5ivy_ligand
   30    31     1     0     0
SMALL
GAST_HUCK


@<TRIPOS>ATOM
      1 C10       -27.9150   23.4510    6.2090 C.ar      1 6EO        -0.0573
      2 C15       -27.0110   24.5210    4.2560 C.ar      1 6EO        -0.0573
      3 C17       -24.2300   19.1960    3.8880 C.ar      1 6EO         0.0353
      4 C20       -23.2330   17.4650    5.7590 C.ar      1 6EO        -0.0340
      5 O01       -24.1190   20.1120    8.0600 O.co2     1 6EO        -0.5624
      6 C02       -23.5010   19.1390    7.6110 C.2       1 6EO         0.0638
      7 O03       -22.7770   18.3970    8.3070 O.co2     1 6EO        -0.5624
      8 C04       -23.6340   18.7470    6.1550 C.ar      1 6EO         0.0497
      9 C05       -24.1670   19.6070    5.2120 C.ar      1 6EO         0.1093
     10 N06       -24.5560   20.9000    5.6110 N.am      1 6EO        -0.2222
     11 C07       -25.1690   21.8570    4.9110 C.2       1 6EO         0.2185
     12 C08       -25.4660   23.1680    5.5980 C.3       1 6EO         0.0771
     13 C09       -26.8020   23.7080    5.3580 C.ar      1 6EO        -0.0234
     14 C11       -29.1630   23.9800    5.9240 C.ar      1 6EO        -0.0542
     15 C12       -29.3080   24.7830    4.7820 C.ar      1 6EO         0.0333
     16 CL1       -30.8550   25.4770    4.3700 Cl        1 6EO        -0.0768
     17 C14       -28.2360   25.0450    3.9680 C.ar      1 6EO        -0.0542
     18 O16       -25.4220   21.7450    3.7250 O.2       1 6EO        -0.3802
     19 N18       -23.8620   17.9550    3.4630 N.ar      1 6EO        -0.3097
     20 C19       -23.3580   17.1230    4.4220 C.ar      1 6EO        -0.0015
     21 H1        -27.7837   22.8339    7.0905 H         1 6EO         0.0561
     22 H2        -26.1756   24.7472    3.6033 H         1 6EO         0.0561
     23 H3        -24.5926   19.9025    3.1501 H         1 6EO         0.0721
     24 H4        -22.8354   16.7590    6.4792 H         1 6EO         0.0699
     25 H5        -24.3413   21.1362    6.5587 H         1 6EO         0.2303
     26 H6        -24.7319   23.9090    5.2489 H         1 6EO         0.0666
     27 H7        -25.3492   23.0184    6.6815 H         1 6EO         0.0666
     28 H8        -30.0101   23.7780    6.5695 H         1 6EO         0.0606
     29 H9        -28.3632   25.6711    3.0923 H         1 6EO         0.0606
     30 H10       -23.0358   16.1336    4.1182 H         1 6EO         0.0696
@<TRIPOS>BOND
     1   13    1 ar 
     2    1   14 ar 
     3   13    2 ar 
     4    2   17 ar 
     5    9    3 ar 
     6    3   19 ar 
     7    8    4 ar 
     8    4   20 ar 
     9    6    5 ar 
    10    6    7 ar 
    11    8    6 1  
    12    9    8 ar 
    13   10    9 1  
    14   11   10 am 
    15   12   11 1  
    16   11   18 2  
    17   12   13 1  
    18   14   15 ar 
    19   15   16 1  
    20   15   17 ar 
    21   19   20 ar 
    22    1   21 1  
    23    2   22 1  
    24    3   23 1  
    25    4   24 1  
    26   10   25 1  
    27   12   26 1  
    28   12   27 1  
    29   14   28 1  
    30   17   29 1  
    31   20   30 1  
@<TRIPOS>SUBSTRUCTURE
     1 6EO         1

