### 
### Created by X-TOOL on Mon Sep 10 21:13:26 2018
### 

@<TRIPOS>MOLECULE
5iw0_ligand
   37    39     1     0     0
SMALL
GAST_HUCK


@<TRIPOS>ATOM
      1 C10       -23.9120   21.6140    1.3670 C.2       1 6EP        -0.0194
      2 C13       -24.8820   23.2300    3.5460 C.3       1 6EP         0.1081
      3 C15       -26.0170   22.9920    5.7620 C.ar      1 6EP        -0.0636
      4 C17       -27.0980   24.8380    6.8070 C.ar      1 6EP         0.0264
      5 C20       -26.0210   25.1480    4.6710 C.ar      1 6EP        -0.0409
      6 C21       -25.6640   26.0650    3.5350 C.3       1 6EP        -0.0335
      7 C24       -23.3280   17.3440    6.0760 C.ar      1 6EP        -0.0281
      8 O01       -24.1230   20.1560    8.1020 O.co2     1 6EP        -0.5576
      9 C02       -23.4130   19.1720    7.7640 C.2       1 6EP         0.0703
     10 O03       -22.6700   18.5310    8.5460 O.co2     1 6EP        -0.5576
     11 C04       -23.4320   18.7070    6.3460 C.ar      1 6EP         0.0249
     12 C05       -23.5220   19.5840    5.2450 C.ar      1 6EP         0.0159
     13 C06       -23.5340   19.0420    3.9390 C.ar      1 6EP         0.1881
     14 N07       -23.6110   19.9260    2.7780 N.pl3     1 6EP        -0.1182
     15 N08       -23.1250   19.4700    1.5910 N.2       1 6EP        -0.2226
     16 C09       -23.3190   20.5090    0.7220 C.2       1 6EP        -0.0215
     17 C11       -24.0870   21.2330    2.6510 C.2       1 6EP         0.2286
     18 O12       -24.5990   21.8580    3.7230 O.3       1 6EP        -0.2716
     19 C14       -25.6580   23.8120    4.6760 C.ar      1 6EP        -0.0101
     20 C16       -26.7400   23.5050    6.8310 C.ar      1 6EP        -0.0615
     21 CL1       -28.0000   25.5270    8.1320 Cl        1 6EP        -0.0789
     22 C19       -26.7480   25.6440    5.7560 C.ar      1 6EP        -0.0532
     23 N22       -23.4350   17.7170    3.6690 N.ar      1 6EP        -0.2646
     24 C23       -23.3390   16.9100    4.7460 C.ar      1 6EP         0.0075
     25 H1        -24.1739   22.5733    0.9230 H         1 6EP         0.0218
     26 H2        -25.4644   23.3518    2.6208 H         1 6EP         0.0772
     27 H3        -23.9312   23.7757    3.4553 H         1 6EP         0.0772
     28 H4        -25.7258   21.9478    5.7641 H         1 6EP         0.0539
     29 H5        -26.0511   27.0735    3.7424 H         1 6EP         0.0376
     30 H6        -26.1096   25.6857    2.6036 H         1 6EP         0.0376
     31 H7        -24.5701   26.1070    3.4276 H         1 6EP         0.0376
     32 H8        -23.2397   16.6291    6.8860 H         1 6EP         0.0676
     33 H9        -23.5810   20.6556    5.3975 H         1 6EP         0.0708
     34 H10       -23.0498   20.4856   -0.3330 H         1 6EP         0.0621
     35 H11       -27.0173   22.8722    7.6663 H         1 6EP         0.0548
     36 H12       -27.0410   26.6876    5.7664 H         1 6EP         0.0543
     37 H13       -23.2647   15.8435    4.5671 H         1 6EP         0.0807
@<TRIPOS>BOND
     1    1   16 1  
     2   17    1 2  
     3   18    2 1  
     4    2   19 1  
     5   19    3 ar 
     6    3   20 ar 
     7   20    4 ar 
     8    4   21 1  
     9   22    4 ar 
    10    5    6 1  
    11   19    5 ar 
    12    5   22 ar 
    13   11    7 ar 
    14    7   24 ar 
    15    9    8 ar 
    16    9   10 ar 
    17   11    9 1  
    18   12   11 ar 
    19   13   12 ar 
    20   14   13 1  
    21   13   23 ar 
    22   14   15 1  
    23   17   14 1  
    24   15   16 2  
    25   17   18 1  
    26   23   24 ar 
    27    1   25 1  
    28    2   26 1  
    29    2   27 1  
    30    3   28 1  
    31    6   29 1  
    32    6   30 1  
    33    6   31 1  
    34    7   32 1  
    35   12   33 1  
    36   16   34 1  
    37   20   35 1  
    38   22   36 1  
    39   24   37 1  
@<TRIPOS>SUBSTRUCTURE
     1 6EP         1

