### 
### Created by X-TOOL on Mon Sep 10 21:13:28 2018
### 

@<TRIPOS>MOLECULE
5iwg_ligand
   42    44     1     0     0
SMALL
GAST_HUCK


@<TRIPOS>ATOM
      1 O1         67.0780   31.6750   -0.8460 O.2       1 IWX        -0.3862
      2 C2         68.0140   31.0770   -0.3390 C.2       1 IWX         0.2036
      3 N3         67.7450   30.0110    0.4830 N.am      1 IWX        -0.2379
      4 C4         66.4800   29.4660    0.8180 C.ar      1 IWX         0.0866
      5 C5         66.0840   29.3100    2.1430 C.ar      1 IWX        -0.0448
      6 C6         64.8500   28.7000    2.4650 C.ar      1 IWX        -0.0466
      7 C7         64.0340   28.2310    1.4290 C.ar      1 IWX        -0.0806
      8 C8         64.4120   28.3600    0.1170 C.ar      1 IWX        -0.0552
      9 C9         65.6360   28.9550   -0.1880 C.ar      1 IWX         0.0604
     10 N10        65.9510   29.0580   -1.5240 N.pl3     1 IWX        -0.3410
     11 C11        64.3830   28.5610    3.8690 C.ar      1 IWX        -0.0333
     12 C12        63.0190   28.7480    4.2050 C.ar      1 IWX        -0.0588
     13 C13        62.5850   28.6270    5.5140 C.ar      1 IWX        -0.0291
     14 C14        63.4990   28.3300    6.5110 C.ar      1 IWX         0.1312
     15 F15        63.0640   28.2160    7.7730 F         1 IWX        -0.1842
     16 C16        64.8470   28.1540    6.2080 C.ar      1 IWX        -0.0291
     17 C17        65.2950   28.2650    4.8990 C.ar      1 IWX        -0.0588
     18 C18        69.4320   31.5170   -0.7150 C.3       1 IWX         0.0580
     19 C19        69.6160   33.0480   -0.6670 C.3       1 IWX        -0.0092
     20 C20        71.0430   33.3620   -1.1300 C.3       1 IWX         0.0500
     21 O21        71.9780   32.7240   -0.2610 O.3       1 IWX        -0.3794
     22 C22        71.9480   31.2970   -0.3060 C.3       1 IWX         0.0500
     23 C23        70.5490   30.7940    0.0800 C.3       1 IWX        -0.0092
     24 H1         68.5386   29.5642    0.8961 H         1 IWX         0.2217
     25 H2         66.7306   29.6610    2.9391 H         1 IWX         0.0458
     26 H3         63.0881   27.7582    1.6675 H         1 IWX         0.0467
     27 H4         63.7651   28.0026   -0.6760 H         1 IWX         0.0474
     28 H5         66.8416   29.4883   -1.8115 H         1 IWX         0.1688
     29 H6         65.2961   28.7048   -2.2362 H         1 IWX         0.1688
     30 H7         62.3052   28.9893    3.4257 H         1 IWX         0.0598
     31 H8         61.5374   28.7637    5.7567 H         1 IWX         0.0601
     32 H9         65.5515   27.9286    7.0004 H         1 IWX         0.0601
     33 H10        66.3452   28.1240    4.6706 H         1 IWX         0.0598
     34 H11        69.5671   31.2225   -1.7662 H         1 IWX         0.0544
     35 H12        69.4675   33.4109    0.3607 H         1 IWX         0.0315
     36 H13        68.8901   33.5335   -1.3358 H         1 IWX         0.0315
     37 H14        71.2047   34.4498   -1.1069 H         1 IWX         0.0561
     38 H15        71.1850   32.9919   -2.1561 H         1 IWX         0.0561
     39 H16        72.6888   30.8936    0.4000 H         1 IWX         0.0561
     40 H17        72.1897   30.9585   -1.3243 H         1 IWX         0.0561
     41 H18        70.4902   29.7151   -0.1262 H         1 IWX         0.0315
     42 H19        70.3919   30.9711    1.1542 H         1 IWX         0.0315
@<TRIPOS>BOND
     1    1    2 2  
     2    2    3 am 
     3    2   18 1  
     4    3    4 1  
     5    4    5 ar 
     6    4    9 ar 
     7    5    6 ar 
     8    6    7 ar 
     9    6   11 1  
    10    7    8 ar 
    11    8    9 ar 
    12    9   10 1  
    13   11   12 ar 
    14   11   17 ar 
    15   12   13 ar 
    16   13   14 ar 
    17   14   15 1  
    18   14   16 ar 
    19   16   17 ar 
    20   18   19 1  
    21   18   23 1  
    22   19   20 1  
    23   20   21 1  
    24   21   22 1  
    25   22   23 1  
    26    3   24 1  
    27    5   25 1  
    28    7   26 1  
    29    8   27 1  
    30   10   28 1  
    31   10   29 1  
    32   12   30 1  
    33   13   31 1  
    34   16   32 1  
    35   17   33 1  
    36   18   34 1  
    37   19   35 1  
    38   19   36 1  
    39   20   37 1  
    40   20   38 1  
    41   22   39 1  
    42   22   40 1  
    43   23   41 1  
    44   23   42 1  
@<TRIPOS>SUBSTRUCTURE
     1 IWX         1

