### 
### Created by X-TOOL on Mon Sep 10 21:13:27 2018
### 

@<TRIPOS>MOLECULE
5ix0_ligand
   46    49     1     0     0
SMALL
GAST_HUCK


@<TRIPOS>ATOM
      1 C2         63.4880   28.1390    6.4780 C.ar      1 6EZ         0.1312
      2 C3         64.8380   27.9820    6.1740 C.ar      1 6EZ        -0.0291
      3 C4         65.2800   28.0960    4.8620 C.ar      1 6EZ        -0.0588
      4 C5         64.3600   28.3760    3.8330 C.ar      1 6EZ        -0.0333
      5 C6         62.9980   28.5350    4.1690 C.ar      1 6EZ        -0.0588
      6 C7         62.5690   28.4120    5.4790 C.ar      1 6EZ        -0.0291
      7 C9         66.0240   29.1550    2.1030 C.ar      1 6EZ        -0.0448
      8 C10        66.4480   29.2870    0.7840 C.ar      1 6EZ         0.0866
      9 C12        67.9700   30.9670   -0.2450 C.2       1 6EZ         0.2037
     10 O13        67.0860   31.4530   -0.9340 O.2       1 6EZ        -0.3862
     11 C15        70.3710   30.4190   -0.7590 C.3       1 6EZ        -0.0063
     12 C16        71.8100   30.9750   -0.9000 C.3       1 6EZ         0.0615
     13 C17        72.3050   31.7500    0.3480 C.3       1 6EZ        -0.0241
     14 C18        71.9030   33.2120    0.0470 C.3       1 6EZ        -0.0241
     15 C19        71.1050   33.1300   -1.2680 C.3       1 6EZ         0.0615
     16 C20        69.6140   32.8360   -0.9520 C.3       1 6EZ        -0.0063
     17 C22        65.6400   28.7480   -0.2310 C.ar      1 6EZ         0.0604
     18 C24        64.4320   28.1100    0.0690 C.ar      1 6EZ        -0.0552
     19 F1         63.0520   28.0200    7.7400 F         1 6EZ        -0.1842
     20 C8         64.8150   28.5090    2.4220 C.ar      1 6EZ        -0.0466
     21 N11        67.6900   29.9320    0.5910 N.am      1 6EZ        -0.2379
     22 C14        69.3990   31.4910   -0.2180 C.3       1 6EZ         0.0586
     23 O21        71.7060   31.9900   -1.9300 O.3       1 6EZ        -0.3730
     24 N23        65.9940   28.8530   -1.5550 N.pl3     1 6EZ        -0.3410
     25 C25        64.0310   27.9850    1.3830 C.ar      1 6EZ        -0.0806
     26 H1         65.5477   27.7697    6.9654 H         1 6EZ         0.0601
     27 H2         66.3314   27.9696    4.6305 H         1 6EZ         0.0598
     28 H3         62.2779   28.7566    3.3897 H         1 6EZ         0.0598
     29 H4         61.5190   28.5288    5.7217 H         1 6EZ         0.0601
     30 H5         66.6374   29.5579    2.9008 H         1 6EZ         0.0458
     31 H6         70.3841   29.5658   -0.0648 H         1 6EZ         0.0317
     32 H7         70.0194   30.0835   -1.7458 H         1 6EZ         0.0317
     33 H8         72.5134   30.1718   -1.1648 H         1 6EZ         0.0597
     34 H9         73.3952   31.6574    0.4617 H         1 6EZ         0.0291
     35 H10        71.8090   31.3855    1.2596 H         1 6EZ         0.0291
     36 H11        72.7955   33.8426   -0.0786 H         1 6EZ         0.0291
     37 H12        71.2781   33.6179    0.8562 H         1 6EZ         0.0291
     38 H13        71.1990   34.0486   -1.8658 H         1 6EZ         0.0597
     39 H14        69.0546   32.8106   -1.8988 H         1 6EZ         0.0317
     40 H15        69.2249   33.6462   -0.3178 H         1 6EZ         0.0317
     41 H16        63.8129   27.7151   -0.7284 H         1 6EZ         0.0474
     42 H17        68.4548   29.5858    1.1344 H         1 6EZ         0.2217
     43 H18        69.6515   31.6651    0.8384 H         1 6EZ         0.0544
     44 H19        66.8760   29.3160   -1.8171 H         1 6EZ         0.1688
     45 H20        65.3773   28.4687   -2.2850 H         1 6EZ         0.1688
     46 H21        63.1017   27.4773    1.6150 H         1 6EZ         0.0467
@<TRIPOS>BOND
     1    2    1 ar 
     2    6    1 ar 
     3    1   19 1  
     4    3    2 ar 
     5    4    3 ar 
     6    4    5 ar 
     7   20    4 1  
     8    5    6 ar 
     9    8    7 ar 
    10    7   20 ar 
    11    8   17 ar 
    12   21    8 1  
    13    9   10 2  
    14    9   21 am 
    15   22    9 1  
    16   11   12 1  
    17   11   22 1  
    18   12   13 1  
    19   12   23 1  
    20   13   14 1  
    21   14   15 1  
    22   15   16 1  
    23   15   23 1  
    24   16   22 1  
    25   17   18 ar 
    26   17   24 1  
    27   18   25 ar 
    28   20   25 ar 
    29    2   26 1  
    30    3   27 1  
    31    5   28 1  
    32    6   29 1  
    33    7   30 1  
    34   11   31 1  
    35   11   32 1  
    36   12   33 1  
    37   13   34 1  
    38   13   35 1  
    39   14   36 1  
    40   14   37 1  
    41   15   38 1  
    42   16   39 1  
    43   16   40 1  
    44   18   41 1  
    45   21   42 1  
    46   22   43 1  
    47   24   44 1  
    48   24   45 1  
    49   25   46 1  
@<TRIPOS>SUBSTRUCTURE
     1 6EZ         1

