### 
### Created by X-TOOL on Mon Sep 10 21:13:31 2018
### 

@<TRIPOS>MOLECULE
5izc_ligand
   21    22     1     0     0
SMALL
GAST_HUCK


@<TRIPOS>ATOM
      1 CAB         6.0560  -17.4570   15.7770 C.2       1 6F4        -0.0797
      2 CAA         4.8370  -18.0270   15.8310 C.2       1 6F4        -0.0931
      3 CAE         4.0090  -17.6800   14.8350 C.2       1 6F4        -0.0195
      4 SAD         4.8390  -16.5670   13.8240 S.3       1 6F4        -0.0423
      5 CAC         6.1810  -16.6230   14.7240 C.2       1 6F4         0.0347
      6 CAF         7.4250  -15.8160   14.2950 C.3       1 6F4         0.0764
      7 NAG         7.1280  -14.3910   14.1810 N.pl3     1 6F4        -0.2750
      8 CAH         8.0770  -13.4630   14.3970 C.2       1 6F4         0.1879
      9 SAJ         9.7250  -13.6400   14.0650 S.3       1 6F4         0.0806
     10 NAI         7.8480  -12.2720   14.9500 N.2       1 6F4        -0.2875
     11 NAL         8.9140  -11.4630   15.0970 N.2       1 6F4        -0.2878
     12 CAK        10.0360  -12.0090   14.6860 C.2       1 6F4         0.1833
     13 NAM        11.1710  -11.3960   14.7440 N.pl3     1 6F4        -0.3023
     14 H1          6.8485  -17.6472   16.4993 H         1 6F4         0.0277
     15 H2          4.5463  -18.7164   16.6223 H         1 6F4         0.0371
     16 H3          2.9911  -18.0399   14.6925 H         1 6F4         0.0598
     17 H4          7.7726  -16.1873   13.3197 H         1 6F4         0.0715
     18 H5          8.2177  -15.9566   15.0446 H         1 6F4         0.0715
     19 H6          6.1749  -14.0913   13.9307 H         1 6F4         0.1901
     20 H7         11.2221  -10.4423   15.1296 H         1 6F4         0.1834
     21 H8         12.0253  -11.8607   14.4046 H         1 6F4         0.1834
@<TRIPOS>BOND
     1    1    2 1  
     2    1    5 2  
     3    2    3 2  
     4    3    4 1  
     5    4    5 1  
     6    5    6 1  
     7    6    7 1  
     8    7    8 1  
     9    8    9 1  
    10    8   10 2  
    11    9   12 1  
    12   10   11 1  
    13   11   12 2  
    14   12   13 1  
    15    1   14 1  
    16    2   15 1  
    17    3   16 1  
    18    6   17 1  
    19    6   18 1  
    20    7   19 1  
    21   13   20 1  
    22   13   21 1  
@<TRIPOS>SUBSTRUCTURE
     1 6F4         1

