### 
### Created by X-TOOL on Mon Sep 10 21:13:30 2018
### 

@<TRIPOS>MOLECULE
5izf_ligand
  122   124     1     0     0
SMALL
GAST_HUCK


@<TRIPOS>ATOM
      1 C4         -3.4480   52.7200   -1.0440 C.ar      1 6J9         0.1213
      2 C5         -3.5990   51.5450   -0.1280 C.ar      1 6J9         0.0435
      3 C6         -2.3940   50.7240    0.0670 C.ar      1 6J9         0.1355
      4 N1         -6.6840   55.2960   -1.9070 N.am      1 6J9        -0.2692
      5 C7         -4.6700   50.9970    0.6400 C.2       1 6J9        -0.0545
      6 C8         -4.0890   49.8990    1.2600 C.2       1 6J9         0.0249
      7 N2         -2.2290   52.9250   -1.6140 N.ar      1 6J9        -0.2730
      8 C9         -1.1700   52.1260   -1.3750 C.ar      1 6J9         0.0500
      9 N          -4.5180   53.5850   -1.3500 N.pl3     1 6J9        -0.2839
     10 C1         -5.7680   53.0170   -1.8640 C.3       1 6J9         0.0534
     11 C          -4.3620   55.0320   -1.1960 C.3       1 6J9         0.0534
     12 C2         -5.2920   55.6720   -2.2290 C.3       1 6J9         0.0547
     13 C3         -6.9020   53.9250   -1.3940 C.3       1 6J9         0.0547
     14 N4         -1.2340   51.0550   -0.5600 N.ar      1 6J9        -0.2772
     15 N3         -2.7710   49.7570    0.9180 N.pl3     1 6J9        -0.2665
     16 C1        -13.8030   57.3380    3.4500 C.2       1 AZ1         0.1782
     17 C2        -12.6170   56.7730    4.2050 C.3       1 AZ1         0.0374
     18 C3        -11.5260   56.2220    3.2880 C.3       1 AZ1        -0.0361
     19 C4        -10.6240   57.3080    2.7110 C.3       1 AZ1        -0.0510
     20 C5        -10.8440   57.3950    1.2050 C.3       1 AZ1        -0.0528
     21 C6         -9.5410   57.3740    0.4110 C.3       1 AZ1        -0.0510
     22 C7         -9.2760   55.9760   -0.1310 C.3       1 AZ1        -0.0361
     23 C8         -9.1140   55.9300   -1.6520 C.3       1 AZ1         0.0374
     24 C9         -7.6800   56.1950   -2.0990 C.2       1 AZ1         0.1786
     25 O2        -14.1100   58.4990    3.6850 O.2       1 AZ1        -0.3969
     26 O3         -7.4940   57.2670   -2.6560 O.2       1 AZ1        -0.3969
     27 N         -14.4500   56.5400    2.5870 N.am      1 DAR        -0.2656
     28 CA        -15.5870   56.9670    1.7810 C.3       1 DAR         0.1309
     29 CB        -16.2880   55.7410    1.1990 C.3       1 DAR        -0.0092
     30 CG        -17.6230   56.1170    0.5610 C.3       1 DAR        -0.0156
     31 CD        -18.5130   54.9070    0.3210 C.3       1 DAR         0.0627
     32 NE        -17.9760   53.9570   -0.6480 N.pl3     1 DAR        -0.2723
     33 CZ        -18.2800   53.9220   -1.9520 C.cat     1 DAR         0.2882
     34 NH1       -19.1260   54.7920   -2.5100 N.pl3     1 DAR        -0.2849
     35 NH2       -17.7160   52.9900   -2.7200 N.pl3     1 DAR        -0.2849
     36 C         -15.1810   57.9360    0.6950 C.2       1 DAR         0.2016
     37 O         -15.8160   58.9690    0.5320 O.2       1 DAR        -0.3945
     38 C1        -18.0740   57.3960   -5.9580 C.2       1 ACA         0.1782
     39 O1        -18.8770   56.5060   -5.7120 O.2       1 ACA        -0.3969
     40 C2        -17.4870   58.1680   -4.7990 C.3       1 ACA         0.0374
     41 C3        -16.2030   57.4990   -4.3180 C.3       1 ACA        -0.0360
     42 C4        -15.7790   58.0280   -2.9500 C.3       1 ACA        -0.0492
     43 C5        -14.4520   57.4160   -2.5100 C.3       1 ACA        -0.0326
     44 C6        -13.8320   58.1960   -1.3540 C.3       1 ACA         0.0310
     45 N6        -14.1220   57.6060   -0.0540 N.am      1 ACA        -0.2851
     46 N         -17.6690   57.7450   -7.1850 N.am      1 DAR        -0.2656
     47 CA        -18.3550   57.3620   -8.4140 C.3       1 DAR         0.1307
     48 CB        -17.4130   57.5050   -9.6090 C.3       1 DAR        -0.0092
     49 CG        -17.4890   56.2510  -10.4720 C.3       1 DAR        -0.0156
     50 CD        -16.3860   56.2030  -11.5210 C.3       1 DAR         0.0627
     51 NE        -15.5340   55.0330  -11.3610 N.pl3     1 DAR        -0.2723
     52 CZ        -15.4880   53.9790  -12.1880 C.cat     1 DAR         0.2882
     53 NH1       -14.6510   52.9830  -11.9130 N.pl3     1 DAR        -0.2849
     54 NH2       -16.2530   53.8920  -13.2790 N.pl3     1 DAR        -0.2849
     55 C         -19.6030   58.1770   -8.6320 C.2       1 DAR         0.1992
     56 O         -20.5460   57.7070   -9.2520 O.2       1 DAR        -0.3947
     57 N         -19.6800   59.4990   -8.1150 N.am      1 NH2        -0.2990
     58 H1         -5.6957   51.3541    0.7203 H         1 6J9         0.0311
     59 H2         -4.6184   49.2306    1.9374 H         1 6J9         0.0922
     60 H3         -0.2273   52.3547   -1.8588 H         1 6J9         0.0975
     61 H4         -5.9107   52.0003   -1.4690 H         1 6J9         0.0549
     62 H5         -5.7430   52.9832   -2.9632 H         1 6J9         0.0549
     63 H6         -3.3194   55.3260   -1.3872 H         1 6J9         0.0549
     64 H7         -4.6497   55.3410   -0.1803 H         1 6J9         0.0549
     65 H8         -5.1864   56.7664   -2.1949 H         1 6J9         0.0543
     66 H9         -5.0335   55.3098   -3.2350 H         1 6J9         0.0543
     67 H10        -7.8603   53.5402   -1.7729 H         1 6J9         0.0543
     68 H11        -6.9237   53.9445   -0.2944 H         1 6J9         0.0543
     69 H12        -2.1531   49.0101    1.2662 H         1 6J9         0.2318
     70 H13       -12.9716   55.9591    4.8544 H         1 AZ1         0.0502
     71 H14       -12.1830   57.5727    4.8231 H         1 AZ1         0.0502
     72 H15       -12.0059   55.6868    2.4554 H         1 AZ1         0.0290
     73 H16       -10.9048   55.5211    3.8650 H         1 AZ1         0.0290
     74 H17        -9.5721   57.0595    2.9153 H         1 AZ1         0.0267
     75 H18       -10.8692   58.2747    3.1750 H         1 AZ1         0.0267
     76 H19       -11.3757   58.3317    0.9817 H         1 AZ1         0.0265
     77 H20       -11.4601   56.5397    0.8905 H         1 AZ1         0.0265
     78 H21        -8.7106   57.6720    1.0680 H         1 AZ1         0.0267
     79 H22        -9.6161   58.0806   -0.4286 H         1 AZ1         0.0267
     80 H23       -10.1202   55.3286    0.1486 H         1 AZ1         0.0290
     81 H24        -8.3527   55.5938    0.3289 H         1 AZ1         0.0290
     82 H25        -9.7686   56.6927   -2.0990 H         1 AZ1         0.0502
     83 H26        -9.4153   54.9338   -2.0081 H         1 AZ1         0.0502
     84 H27       -14.1334   55.5963    2.4910 H         1 DAR         0.1883
     85 H28       -16.2967   57.4858    2.4421 H         1 DAR         0.0800
     86 H29       -16.4680   55.0146    2.0052 H         1 DAR         0.0313
     87 H30       -15.6405   55.2872    0.4343 H         1 DAR         0.0313
     88 H31       -17.4275   56.6084   -0.4035 H         1 DAR         0.0301
     89 H32       -18.1491   56.8154    1.2284 H         1 DAR         0.0301
     90 H33       -19.4873   55.2618   -0.0462 H         1 DAR         0.0689
     91 H34       -18.6505   54.3835    1.2786 H         1 DAR         0.0689
     92 H35       -17.3075   53.2549   -0.3001 H         1 DAR         0.2642
     93 H36       -19.3352   54.7334   -3.5168 H         1 DAR         0.2615
     94 H37       -19.5692   55.5215   -1.9335 H         1 DAR         0.2615
     95 H38       -17.0610   52.3103   -2.3079 H         1 DAR         0.2615
     96 H39       -17.9352   52.9495   -3.7256 H         1 DAR         0.2615
     97 H40       -18.2142   58.1942   -3.9741 H         1 ACA         0.0502
     98 H41       -17.2625   59.1950   -5.1227 H         1 ACA         0.0502
     99 H42       -15.4011   57.6997   -5.0437 H         1 ACA         0.0290
    100 H43       -16.3696   56.4141   -4.2464 H         1 ACA         0.0290
    101 H44       -16.5536   57.7747   -2.2112 H         1 ACA         0.0267
    102 H45       -15.6692   59.1211   -3.0060 H         1 ACA         0.0267
    103 H46       -13.7551   57.4241   -3.3610 H         1 ACA         0.0285
    104 H47       -14.6260   56.3786   -2.1884 H         1 ACA         0.0285
    105 H48       -14.2279   59.2221   -1.3702 H         1 ACA         0.0520
    106 H49       -12.7411   58.2216   -1.4926 H         1 ACA         0.0520
    107 H50       -13.4929   56.9138    0.2995 H         1 ACA         0.1851
    108 H51       -16.8436   58.3039   -7.2643 H         1 DAR         0.1883
    109 H52       -18.6480   56.3053   -8.3273 H         1 DAR         0.0800
    110 H53       -16.3824   57.6397   -9.2489 H         1 DAR         0.0313
    111 H54       -17.7098   58.3794  -10.2067 H         1 DAR         0.0313
    112 H55       -18.4633   56.2313  -10.9822 H         1 DAR         0.0301
    113 H56       -17.3975   55.3683   -9.8221 H         1 DAR         0.0301
    114 H57       -15.7678   57.1082  -11.4285 H         1 DAR         0.0689
    115 H58       -16.8462   56.1737  -12.5197 H         1 DAR         0.0689
    116 H59       -14.9120   55.0136  -10.5402 H         1 DAR         0.2642
    117 H60       -14.6015   52.1648  -12.5367 H         1 DAR         0.2615
    118 H61       -14.0521   53.0297  -11.0763 H         1 DAR         0.2615
    119 H62       -16.9082   54.6523  -13.5106 H         1 DAR         0.2615
    120 H63       -16.1879   53.0646  -13.8890 H         1 DAR         0.2615
    121 H64       -20.5063   60.0441   -8.2570 H         1 NH2         0.1815
    122 H65       -18.9079   59.8839   -7.6093 H         1 NH2         0.1815
@<TRIPOS>BOND
     1    1    2 ar 
     2    1    7 ar 
     3    9    1 1  
     4    2    3 ar 
     5    2    5 1  
     6    3   14 ar 
     7    3   15 1  
     8    4   12 1  
     9    4   13 1  
    10   24    4 am 
    11    5    6 2  
    12    6   15 1  
    13    7    8 ar 
    14    8   14 ar 
    15   10    9 1  
    16   11    9 1  
    17   13   10 1  
    18   12   11 1  
    19   16   17 1  
    20   16   25 2  
    21   27   16 am 
    22   17   18 1  
    23   18   19 1  
    24   19   20 1  
    25   20   21 1  
    26   21   22 1  
    27   22   23 1  
    28   23   24 1  
    29   24   26 2  
    30   28   27 1  
    31   28   29 1  
    32   36   28 1  
    33   29   30 1  
    34   30   31 1  
    35   31   32 1  
    36   32   33 ar 
    37   33   34 ar 
    38   33   35 ar 
    39   36   37 2  
    40   45   36 am 
    41   38   39 2  
    42   40   38 1  
    43   38   46 am 
    44   41   40 1  
    45   42   41 1  
    46   43   42 1  
    47   44   43 1  
    48   44   45 1  
    49   46   47 1  
    50   47   48 1  
    51   47   55 1  
    52   48   49 1  
    53   49   50 1  
    54   50   51 1  
    55   51   52 ar 
    56   52   53 ar 
    57   52   54 ar 
    58   55   56 2  
    59   55   57 am 
    60    5   58 1  
    61    6   59 1  
    62    8   60 1  
    63   10   61 1  
    64   10   62 1  
    65   11   63 1  
    66   11   64 1  
    67   12   65 1  
    68   12   66 1  
    69   13   67 1  
    70   13   68 1  
    71   15   69 1  
    72   17   70 1  
    73   17   71 1  
    74   18   72 1  
    75   18   73 1  
    76   19   74 1  
    77   19   75 1  
    78   20   76 1  
    79   20   77 1  
    80   21   78 1  
    81   21   79 1  
    82   22   80 1  
    83   22   81 1  
    84   23   82 1  
    85   23   83 1  
    86   27   84 1  
    87   28   85 1  
    88   29   86 1  
    89   29   87 1  
    90   30   88 1  
    91   30   89 1  
    92   31   90 1  
    93   31   91 1  
    94   32   92 1  
    95   34   93 1  
    96   34   94 1  
    97   35   95 1  
    98   35   96 1  
    99   40   97 1  
   100   40   98 1  
   101   41   99 1  
   102   41  100 1  
   103   42  101 1  
   104   42  102 1  
   105   43  103 1  
   106   43  104 1  
   107   44  105 1  
   108   44  106 1  
   109   45  107 1  
   110   46  108 1  
   111   47  109 1  
   112   48  110 1  
   113   48  111 1  
   114   49  112 1  
   115   49  113 1  
   116   50  114 1  
   117   50  115 1  
   118   51  116 1  
   119   53  117 1  
   120   53  118 1  
   121   54  119 1  
   122   54  120 1  
   123   57  121 1  
   124   57  122 1  
@<TRIPOS>SUBSTRUCTURE
     1 6J9         1

