### 
### Created by X-TOOL on Mon Sep 10 21:13:28 2018
### 

@<TRIPOS>MOLECULE
5izj_ligand
  101   103     1     0     0
SMALL
GAST_HUCK


@<TRIPOS>ATOM
      1 C4         29.1230  -13.5490   86.8300 C.ar      1 6J9         0.1213
      2 C5         29.2370  -15.0370   86.9120 C.ar      1 6J9         0.0435
      3 C6         29.2200  -15.7490   85.6260 C.ar      1 6J9         0.1355
      4 N1         29.1960  -11.1580   90.2770 N.am      1 6J9        -0.2692
      5 C7         29.3580  -15.9800   87.9730 C.2       1 6J9        -0.0545
      6 C8         29.4130  -17.2000   87.3130 C.2       1 6J9         0.0249
      7 N2         29.0210  -12.9840   85.5980 N.ar      1 6J9        -0.2730
      8 C9         29.0270  -13.7140   84.4620 C.ar      1 6J9         0.0500
      9 N          29.1160  -12.7380   87.9780 N.pl3     1 6J9        -0.2839
     10 C1         28.1110  -12.9610   89.0220 C.3       1 6J9         0.0534
     11 C          30.1150  -11.6780   88.0910 C.3       1 6J9         0.0534
     12 C2         29.4930  -10.5880   88.9540 C.3       1 6J9         0.0547
     13 C3         28.7380  -12.5580   90.3560 C.3       1 6J9         0.0547
     14 N4         29.1240  -15.0590   84.4590 N.ar      1 6J9        -0.2772
     15 N3         29.3360  -17.0450   85.9600 N.pl3     1 6J9        -0.2665
     16 C1         32.8200  -12.2740   99.1280 C.2       1 AZ1         0.1782
     17 C2         33.1990  -13.2950   98.0840 C.3       1 AZ1         0.0374
     18 C3         32.4700  -13.0060   96.7780 C.3       1 AZ1        -0.0361
     19 C4         33.2600  -12.0810   95.8660 C.3       1 AZ1        -0.0510
     20 C5         32.6430  -12.0410   94.4730 C.3       1 AZ1        -0.0528
     21 C6         31.6910  -10.8630   94.3140 C.3       1 AZ1        -0.0510
     22 C7         31.2820  -10.6990   92.8590 C.3       1 AZ1        -0.0361
     23 C8         29.8000  -10.9930   92.6690 C.3       1 AZ1         0.0374
     24 C9         29.3350  -10.3830   91.3620 C.2       1 AZ1         0.1786
     25 O2         33.6220  -11.3820   99.3610 O.2       1 AZ1        -0.3969
     26 O3         29.1020   -9.1820   91.3410 O.2       1 AZ1        -0.3969
     27 N          31.6290  -12.4190   99.7240 N.am      1 DAR        -0.2656
     28 CA         30.9040  -11.3260  100.3730 C.3       1 DAR         0.1310
     29 CB         29.6810  -11.8460  101.1490 C.3       1 DAR        -0.0092
     30 CG         28.5930  -12.5090  100.2990 C.3       1 DAR        -0.0156
     31 CD         27.5070  -13.1500  101.1600 C.3       1 DAR         0.0627
     32 NE         26.4860  -12.2000  101.5780 N.pl3     1 DAR        -0.2723
     33 CZ         25.3760  -11.8940  100.8930 C.cat     1 DAR         0.2882
     34 NH1        24.5270  -11.0020  101.4050 N.pl3     1 DAR        -0.2849
     35 NH2        25.0900  -12.4490   99.7120 N.pl3     1 DAR        -0.2849
     36 C          30.5360  -10.2440   99.3820 C.2       1 DAR         0.2033
     37 O          30.2440  -10.5280   98.2130 O.2       1 DAR        -0.3944
     38 N          30.5640   -8.9960   99.8470 N.am      1 DAR        -0.2695
     39 CA         30.1850   -7.8440   99.0250 C.3       1 DAR         0.0945
     40 CB         30.8690   -6.5700   99.5170 C.3       1 DAR        -0.0148
     41 CG         31.2200   -5.6710   98.3350 C.3       1 DAR        -0.0162
     42 CD         32.0130   -4.4460   98.7730 C.3       1 DAR         0.0627
     43 NE         33.4230   -4.5530   98.4290 N.pl3     1 DAR        -0.2723
     44 CZ         34.4230   -4.5850   99.3200 C.cat     1 DAR         0.2882
     45 NH1        34.2080   -4.5210  100.6380 N.pl3     1 DAR        -0.2849
     46 NH2        35.6760   -4.6850   98.8790 N.pl3     1 DAR        -0.2849
     47 C          28.6920   -7.6680   99.0430 C.2       1 DAR         0.0601
     48 O          28.1080   -7.2870   98.0420 O.co2     1 DAR        -0.5666
     49 OXT        28.0590   -7.9060  100.0590 O.co2     1 DAR        -0.5666
     50 H1         29.3978  -15.7895   89.0445 H         1 6J9         0.0311
     51 H2         29.5062  -18.1625   87.8139 H         1 6J9         0.0922
     52 H3         28.9506  -13.1970   83.5123 H         1 6J9         0.0975
     53 H4         27.8246  -14.0228   89.0471 H         1 6J9         0.0549
     54 H5         27.2209  -12.3457   88.8242 H         1 6J9         0.0549
     55 H6         30.3613  -11.2802   87.0955 H         1 6J9         0.0549
     56 H7         31.0278  -12.0652   88.5673 H         1 6J9         0.0549
     57 H8         30.1979   -9.7502   89.0599 H         1 6J9         0.0543
     58 H9         28.5641  -10.2289   88.4869 H         1 6J9         0.0543
     59 H10        27.9908  -12.6554   91.1573 H         1 6J9         0.0543
     60 H11        29.5948  -13.2132   90.5719 H         1 6J9         0.0543
     61 H12        29.3632  -17.8205   85.2827 H         1 6J9         0.2318
     62 H13        32.9231  -14.2986   98.4399 H         1 AZ1         0.0502
     63 H14        34.2845  -13.2527   97.9114 H         1 AZ1         0.0502
     64 H15        31.5041  -12.5333   97.0096 H         1 AZ1         0.0290
     65 H16        32.2964  -13.9566   96.2524 H         1 AZ1         0.0290
     66 H17        34.2954  -12.4450   95.7918 H         1 AZ1         0.0267
     67 H18        33.2576  -11.0665   96.2911 H         1 AZ1         0.0267
     68 H19        32.0870  -12.9746   94.3021 H         1 AZ1         0.0265
     69 H20        33.4480  -11.9521   93.7286 H         1 AZ1         0.0265
     70 H21        32.1918   -9.9447   94.6545 H         1 AZ1         0.0267
     71 H22        30.7930  -11.0388   94.9244 H         1 AZ1         0.0267
     72 H23        31.8682  -11.3945   92.2405 H         1 AZ1         0.0290
     73 H24        31.4865   -9.6655   92.5427 H         1 AZ1         0.0290
     74 H25        29.2287  -10.5576   93.5021 H         1 AZ1         0.0502
     75 H26        29.6409  -12.0811   92.6444 H         1 AZ1         0.0502
     76 H27        31.2109  -13.3274   99.7255 H         1 DAR         0.1883
     77 H28        31.5853  -10.8732  101.1084 H         1 DAR         0.0800
     78 H29        29.2268  -10.9940  101.6760 H         1 DAR         0.0313
     79 H30        30.0347  -12.5850  101.8830 H         1 DAR         0.0313
     80 H31        29.0554  -13.2866   99.6733 H         1 DAR         0.0301
     81 H32        28.1314  -11.7463   99.6546 H         1 DAR         0.0301
     82 H33        27.9770  -13.5786  102.0574 H         1 DAR         0.0689
     83 H34        27.0255  -13.9511  100.5800 H         1 DAR         0.0689
     84 H35        26.6295  -11.7215  102.4788 H         1 DAR         0.2642
     85 H36        23.6687  -10.7546  100.8922 H         1 DAR         0.2615
     86 H37        24.7296  -10.5604  102.3132 H         1 DAR         0.2615
     87 H38        25.7322  -13.1401   99.2987 H         1 DAR         0.2615
     88 H39        24.2273  -12.1858   99.2147 H         1 DAR         0.2615
     89 H40        30.8542   -8.8398  100.7912 H         1 DAR         0.1875
     90 H41        30.5049   -8.0338   97.9898 H         1 DAR         0.0726
     91 H42        31.7897   -6.8369  100.0566 H         1 DAR         0.0307
     92 H43        30.1901   -6.0313  100.1943 H         1 DAR         0.0307
     93 H44        30.2895   -5.3388   97.8515 H         1 DAR         0.0301
     94 H45        31.8217   -6.2464   97.6161 H         1 DAR         0.0301
     95 H46        31.9217   -4.3361   99.8637 H         1 DAR         0.0689
     96 H47        31.5941   -3.5572   98.2785 H         1 DAR         0.0689
     97 H48        33.6694   -4.6080   97.4304 H         1 DAR         0.2642
     98 H49        35.0036   -4.5486  101.2915 H         1 DAR         0.2615
     99 H50        33.2467   -4.4441  100.9999 H         1 DAR         0.2615
    100 H51        35.8635   -4.7356   97.8675 H         1 DAR         0.2615
    101 H52        36.4574   -4.7117   99.5495 H         1 DAR         0.2615
@<TRIPOS>BOND
     1    1    2 ar 
     2    1    7 ar 
     3    9    1 1  
     4    2    3 ar 
     5    2    5 1  
     6    3   14 ar 
     7    3   15 1  
     8    4   12 1  
     9    4   13 1  
    10   24    4 am 
    11    5    6 2  
    12    6   15 1  
    13    7    8 ar 
    14    8   14 ar 
    15   10    9 1  
    16   11    9 1  
    17   13   10 1  
    18   12   11 1  
    19   17   16 1  
    20   16   25 2  
    21   16   27 am 
    22   18   17 1  
    23   19   18 1  
    24   20   19 1  
    25   21   20 1  
    26   22   21 1  
    27   23   22 1  
    28   23   24 1  
    29   24   26 2  
    30   27   28 1  
    31   28   29 1  
    32   28   36 1  
    33   29   30 1  
    34   30   31 1  
    35   31   32 1  
    36   32   33 ar 
    37   33   34 ar 
    38   33   35 ar 
    39   36   37 2  
    40   36   38 am 
    41   38   39 1  
    42   39   40 1  
    43   39   47 1  
    44   40   41 1  
    45   41   42 1  
    46   42   43 1  
    47   43   44 ar 
    48   44   45 ar 
    49   44   46 ar 
    50   47   48 ar 
    51   47   49 ar 
    52    5   50 1  
    53    6   51 1  
    54    8   52 1  
    55   10   53 1  
    56   10   54 1  
    57   11   55 1  
    58   11   56 1  
    59   12   57 1  
    60   12   58 1  
    61   13   59 1  
    62   13   60 1  
    63   15   61 1  
    64   17   62 1  
    65   17   63 1  
    66   18   64 1  
    67   18   65 1  
    68   19   66 1  
    69   19   67 1  
    70   20   68 1  
    71   20   69 1  
    72   21   70 1  
    73   21   71 1  
    74   22   72 1  
    75   22   73 1  
    76   23   74 1  
    77   23   75 1  
    78   27   76 1  
    79   28   77 1  
    80   29   78 1  
    81   29   79 1  
    82   30   80 1  
    83   30   81 1  
    84   31   82 1  
    85   31   83 1  
    86   32   84 1  
    87   34   85 1  
    88   34   86 1  
    89   35   87 1  
    90   35   88 1  
    91   38   89 1  
    92   39   90 1  
    93   40   91 1  
    94   40   92 1  
    95   41   93 1  
    96   41   94 1  
    97   42   95 1  
    98   42   96 1  
    99   43   97 1  
   100   45   98 1  
   101   45   99 1  
   102   46  100 1  
   103   46  101 1  
@<TRIPOS>SUBSTRUCTURE
     1 6J9         1

