### 
### Created by X-TOOL on Mon Sep 10 21:13:29 2018
### 

@<TRIPOS>MOLECULE
5izq_ligand
   53    55     1     0     0
SMALL
GAST_HUCK


@<TRIPOS>ATOM
      1 C1         -3.9860   22.2440   -7.0780 C.2       1 83A         0.1590
      2 N1         -3.2000   21.5680   -9.1750 N.am      1 83A        -0.2566
      3 O1         -5.3810   21.6520   -8.7680 O.2       1 83A        -0.3846
      4 C2         -4.2370   21.8080   -8.3610 C.2       1 83A         0.2163
      5 N2         -1.6650   22.1510   -7.5350 N.pl3     1 83A        -0.2068
      6 O2        -10.4360   21.0540    2.1540 O.2       1 83A        -0.3908
      7 C3         -1.9330   21.7330   -8.7710 C.cat     1 83A         0.1958
      8 N3         -0.8660   21.4550   -9.6520 N.pl3     1 83A        -0.3348
      9 O3        -10.0590   16.9320    2.1800 O.co2     1 83A        -0.5666
     10 C4         -2.6530   22.4080   -6.6730 C.2       1 83A         0.2721
     11 N4         -2.6540   22.8280   -5.3930 N.pl3     1 83A        -0.1623
     12 O4        -12.1120   16.2550    1.9400 O.co2     1 83A        -0.5666
     13 C5         -3.8840   22.9770   -4.8930 C.2       1 83A         0.1386
     14 N5         -5.4570   22.1560   -1.7670 N.pl3     1 83A        -0.3156
     15 O5        -13.6280   19.1600   -2.7120 O.co2     1 83A        -0.5690
     16 C6         -4.6670   22.6050   -5.9510 C.2       1 83A         0.0391
     17 N6        -10.4820   19.1680    0.7970 N.am      1 83A        -0.2725
     18 O6        -14.1240   20.8920   -1.4490 O.co2     1 83A        -0.5690
     19 C7         -4.3220   23.4270   -3.5280 C.3       1 83A         0.0643
     20 C8         -5.5560   22.6070   -3.1710 C.3       1 83A         0.0496
     21 C9         -6.6080   21.7510   -1.0160 C.ar      1 83A         0.0435
     22 C10        -6.9410   20.4100   -1.0230 C.ar      1 83A        -0.0382
     23 C11        -8.0290   19.9950   -0.2800 C.ar      1 83A        -0.0535
     24 C12        -8.7640   20.9250    0.4600 C.ar      1 83A         0.0362
     25 C13        -8.4340   22.2800    0.4540 C.ar      1 83A        -0.0535
     26 C14        -7.3440   22.6850   -0.2960 C.ar      1 83A        -0.0382
     27 C15        -9.9680   20.4070    1.2430 C.2       1 83A         0.1968
     28 C16       -11.6220   18.5450    1.3530 C.3       1 83A         0.0951
     29 C17       -11.2510   17.1680    1.8570 C.2       1 83A         0.0601
     30 C18       -12.6190   18.4370    0.2180 C.3       1 83A        -0.0064
     31 C19       -12.2630   19.5180   -0.7840 C.3       1 83A         0.0038
     32 C20       -13.4110   19.8820   -1.7050 C.2       1 83A         0.0350
     33 H1         -3.3763   21.2574  -10.1091 H         1 83A         0.1812
     34 H2         -0.6861   22.2774   -7.2407 H         1 83A         0.2419
     35 H3         -1.0604   21.1311  -10.6102 H         1 83A         0.1762
     36 H4          0.1071   21.5760   -9.3367 H         1 83A         0.1762
     37 H5         -1.7955   23.0149   -4.8555 H         1 83A         0.2626
     38 H6         -4.5320   22.1321   -1.3145 H         1 83A         0.1778
     39 H7         -5.7547   22.5973   -5.8983 H         1 83A         0.0724
     40 H8        -10.0120   18.7059    0.0450 H         1 83A         0.1864
     41 H9         -4.5705   24.4984   -3.5437 H         1 83A         0.0676
     42 H10        -3.5221   23.2468   -2.7947 H         1 83A         0.0676
     43 H11        -6.4565   23.2265   -3.2948 H         1 83A         0.0565
     44 H12        -5.6191   21.7316   -3.8340 H         1 83A         0.0565
     45 H13        -6.3607   19.6986   -1.5994 H         1 83A         0.0530
     46 H14        -8.3124   18.9487   -0.2710 H         1 83A         0.0636
     47 H15        -9.0160   22.9969    1.0218 H         1 83A         0.0636
     48 H16        -7.0637   23.7318   -0.3221 H         1 83A         0.0530
     49 H17       -12.0342   19.1465    2.1765 H         1 83A         0.0726
     50 H18       -13.6404   18.5925    0.5954 H         1 83A         0.0323
     51 H19       -12.5493   17.4458   -0.2539 H         1 83A         0.0323
     52 H20       -11.4222   19.1624   -1.3976 H         1 83A         0.0432
     53 H21       -11.9587   20.4195   -0.2320 H         1 83A         0.0432
@<TRIPOS>BOND
     1    1    4 1  
     2    1   10 2  
     3   16    1 1  
     4    4    2 am 
     5    2    7 ar 
     6    4    3 2  
     7    5    7 ar 
     8   10    5 1  
     9   27    6 2  
    10    7    8 ar 
    11   29    9 ar 
    12   11   10 1  
    13   13   11 1  
    14   29   12 ar 
    15   13   16 2  
    16   19   13 1  
    17   14   20 1  
    18   21   14 1  
    19   32   15 ar 
    20   17   27 am 
    21   28   17 1  
    22   32   18 ar 
    23   20   19 1  
    24   22   21 ar 
    25   26   21 ar 
    26   23   22 ar 
    27   24   23 ar 
    28   24   25 ar 
    29   27   24 1  
    30   25   26 ar 
    31   28   29 1  
    32   30   28 1  
    33   31   30 1  
    34   31   32 1  
    35    2   33 1  
    36    5   34 1  
    37    8   35 1  
    38    8   36 1  
    39   11   37 1  
    40   14   38 1  
    41   16   39 1  
    42   17   40 1  
    43   19   41 1  
    44   19   42 1  
    45   20   43 1  
    46   20   44 1  
    47   22   45 1  
    48   23   46 1  
    49   25   47 1  
    50   26   48 1  
    51   28   49 1  
    52   30   50 1  
    53   30   51 1  
    54   31   52 1  
    55   31   53 1  
@<TRIPOS>SUBSTRUCTURE
     1 83A         1

