### 
### Created by X-TOOL on Mon Sep 10 21:13:27 2018
### 

@<TRIPOS>MOLECULE
5j0d_ligand
   71    74     1     0     0
SMALL
GAST_HUCK


@<TRIPOS>ATOM
      1 O3         12.3260   12.1130   18.6240 O.3       1 6F9        -0.3244
      2 C4         10.9350   18.0140   26.0640 C.3       1 6F9         0.0915
      3 C5         11.2360   15.9110   24.9700 C.ar      1 6F9         0.1185
      4 O4         11.3130   20.6090   23.4250 O.2       1 6F9        -0.3967
      5 C6         10.9510   16.1870   23.6390 C.ar      1 6F9         0.0166
      6 N1         12.0870   13.3940   27.2190 N.am      1 6F9        -0.2799
      7 C7          9.9530   17.2580   23.2730 C.3       1 6F9         0.0672
      8 C8         11.5990   15.4560   22.6530 C.ar      1 6F9        -0.0541
      9 N2         11.7080   11.2250   30.2430 N.4       1 6F9         0.2347
     10 C9         12.5220   14.4570   22.9710 C.ar      1 6F9        -0.0342
     11 C10        12.7960   14.2000   24.3210 C.ar      1 6F9        -0.0484
     12 C11        12.1540   14.9250   25.3370 C.ar      1 6F9         0.0744
     13 C12        12.4370   14.6070   26.7740 C.2       1 6F9         0.1986
     14 C13        12.0290   13.0690   28.6470 C.3       1 6F9         0.0811
     15 C14        10.9380   13.8640   29.3530 C.3       1 6F9        -0.0202
     16 C15        10.8140   13.4530   30.8190 C.3       1 6F9        -0.0103
     17 C2         10.9840   19.5130   22.9760 C.2       1 6F9         0.1799
     18 C1         11.3150   19.1450   21.5420 C.3       1 6F9         0.0347
     19 C          11.7530   20.2940   20.6890 C.3       1 6F9        -0.0482
     20 N          10.3650   18.5910   23.7390 N.am      1 6F9        -0.2610
     21 C19        13.1430   13.6490   21.8900 C.ar      1 6F9        -0.0429
     22 C24        14.4930   13.2810   21.9330 C.ar      1 6F9        -0.0395
     23 C23        15.0550   12.5640   20.8830 C.ar      1 6F9         0.0811
     24 O2         16.3770   12.2440   21.0310 O.3       1 6F9        -0.3244
     25 C25        17.0000   11.3660   20.0960 C.3       1 6F9         0.0590
     26 C22        14.2900   12.1930   19.7860 C.ar      1 6F9        -0.0066
     27 C21        12.9580   12.5530   19.7550 C.ar      1 6F9         0.0811
     28 C26        10.9180   12.2990   18.4970 C.3       1 6F9         0.0590
     29 C20        12.3800   13.2670   20.7900 C.ar      1 6F9        -0.0395
     30 O          10.5900   16.6170   25.9630 O.3       1 6F9        -0.3128
     31 C3         10.0700   18.8560   25.1540 C.3       1 6F9         0.0637
     32 O1         12.8770   15.4680   27.5260 O.2       1 6F9        -0.3908
     33 C18        11.7080   11.5950   28.8270 C.3       1 6F9        -0.0087
     34 C17        11.5380    9.7700   30.3960 C.3       1 6F9        -0.0430
     35 C16        10.6530   11.9500   30.9490 C.3       1 6F9        -0.0320
     36 H1         11.9894   18.1450   25.7795 H         1 6F9         0.0636
     37 H2         10.7917   18.3451   27.1031 H         1 6F9         0.0636
     38 H3         11.8569   12.6842   26.5533 H         1 6F9         0.1846
     39 H4          8.9836   17.0084   23.7291 H         1 6F9         0.0663
     40 H5          9.8476   17.2835   22.1784 H         1 6F9         0.0663
     41 H6         11.3837   15.6653   21.6114 H         1 6F9         0.0569
     42 H7         12.5963   11.4848   30.6423 H         1 6F9         0.2031
     43 H8         13.5133   13.4311   24.5842 H         1 6F9         0.0597
     44 H9         13.0027   13.2962   29.1056 H         1 6F9         0.0608
     45 H10         9.9780   13.6827   28.8474 H         1 6F9         0.0291
     46 H11        11.1837   14.9349   29.3005 H         1 6F9         0.0291
     47 H12         9.9359   13.9484   31.2588 H         1 6F9         0.0318
     48 H13        11.7201   13.7659   31.3585 H         1 6F9         0.0318
     49 H14        10.4177   18.7016   21.0857 H         1 6F9         0.0500
     50 H15        12.1248   18.4007   21.5570 H         1 6F9         0.0500
     51 H16        11.9702   19.9341   19.6725 H         1 6F9         0.0254
     52 H17        12.6589   20.7458   21.1193 H         1 6F9         0.0254
     53 H18        10.9519   21.0466   20.6481 H         1 6F9         0.0254
     54 H19        15.1015   13.5558   22.7870 H         1 6F9         0.0441
     55 H20        18.0553   11.2251   20.3724 H         1 6F9         0.0577
     56 H21        16.9401   11.8017   19.0877 H         1 6F9         0.0577
     57 H22        16.4853   10.3939   20.1066 H         1 6F9         0.0577
     58 H23        14.7300   11.6316   18.9697 H         1 6F9         0.0455
     59 H24        10.5794   11.8892   17.5340 H         1 6F9         0.0577
     60 H25        10.6846   13.3730   18.5408 H         1 6F9         0.0577
     61 H26        10.4038   11.7782   19.3182 H         1 6F9         0.0577
     62 H27        11.3293   13.5298   20.7440 H         1 6F9         0.0441
     63 H28        10.2566   19.9192   25.3656 H         1 6F9         0.0551
     64 H29         9.0127   18.6234   25.3489 H         1 6F9         0.0551
     65 H30        10.7146   11.3892   28.4018 H         1 6F9         0.0837
     66 H31        12.4642   10.9956   28.2990 H         1 6F9         0.0837
     67 H32        11.5404    9.5110   31.4651 H         1 6F9         0.0778
     68 H33        12.3646    9.2491   29.8907 H         1 6F9         0.0778
     69 H34        10.5820    9.4632   29.9466 H         1 6F9         0.0778
     70 H35        10.6877   11.6797   32.0147 H         1 6F9         0.0814
     71 H36         9.6791   11.6592   30.5285 H         1 6F9         0.0814
@<TRIPOS>BOND
     1   27    1 1  
     2    1   28 1  
     3   30    2 1  
     4    2   31 1  
     5    5    3 ar 
     6   12    3 ar 
     7    3   30 1  
     8   17    4 2  
     9    5    7 1  
    10    8    5 ar 
    11   13    6 am 
    12    6   14 1  
    13    7   20 1  
    14   10    8 ar 
    15   33    9 1  
    16    9   34 1  
    17    9   35 1  
    18   10   11 ar 
    19   21   10 1  
    20   11   12 ar 
    21   12   13 1  
    22   13   32 2  
    23   14   15 1  
    24   14   33 1  
    25   15   16 1  
    26   16   35 1  
    27   17   18 1  
    28   20   17 am 
    29   18   19 1  
    30   20   31 1  
    31   22   21 ar 
    32   21   29 ar 
    33   23   22 ar 
    34   23   24 1  
    35   26   23 ar 
    36   24   25 1  
    37   26   27 ar 
    38   27   29 ar 
    39    2   36 1  
    40    2   37 1  
    41    6   38 1  
    42    7   39 1  
    43    7   40 1  
    44    8   41 1  
    45    9   42 1  
    46   11   43 1  
    47   14   44 1  
    48   15   45 1  
    49   15   46 1  
    50   16   47 1  
    51   16   48 1  
    52   18   49 1  
    53   18   50 1  
    54   19   51 1  
    55   19   52 1  
    56   19   53 1  
    57   22   54 1  
    58   25   55 1  
    59   25   56 1  
    60   25   57 1  
    61   26   58 1  
    62   28   59 1  
    63   28   60 1  
    64   28   61 1  
    65   29   62 1  
    66   31   63 1  
    67   31   64 1  
    68   33   65 1  
    69   33   66 1  
    70   34   67 1  
    71   34   68 1  
    72   34   69 1  
    73   35   70 1  
    74   35   71 1  
@<TRIPOS>SUBSTRUCTURE
     1 6F9         1

