### 
### Created by X-TOOL on Mon Sep 10 21:13:30 2018
### 

@<TRIPOS>MOLECULE
5j18_ligand
   57    58     1     0     0
SMALL
GAST_HUCK


@<TRIPOS>ATOM
      1 C1          3.3440   -7.7850    7.1550 C.ar      1 6FS        -0.0224
      2 C2          4.7230   -7.5930    7.3020 C.ar      1 6FS         0.0760
      3 C3          5.6080   -7.9730    6.2890 C.ar      1 6FS         0.0050
      4 C5          3.7220   -8.7140    4.9610 C.ar      1 6FS        -0.0224
      5 C6          2.8440   -8.3530    5.9760 C.ar      1 6FS         0.0672
      6 C7          0.7280   -8.1600    6.9290 C.3       1 6FS         0.0575
      7 C8          5.3710   -9.3800    2.9750 C.3       1 6FS         0.0572
      8 C10         4.2740   -6.6170    9.3630 C.3       1 6FS         0.0572
      9 C11         7.7220   -7.4440    7.7150 C.3       1 6FS         0.0726
     10 C12         9.6380   -5.5710    6.6280 C.3       1 6FS         0.0916
     11 C13        11.6910   -5.4480    5.3870 C.ar      1 6FS        -0.0808
     12 C14        12.9900   -4.9640    5.2520 C.ar      1 6FS        -0.0508
     13 C15        13.5700   -4.2490    6.3030 C.ar      1 6FS         0.1014
     14 C16        12.8630   -4.0340    7.4730 C.ar      1 6FS         0.0630
     15 C19        15.4430   -3.9870    4.9840 C.3       1 6FS         0.0549
     16 C21        12.6640   -4.3510   10.4940 C.2       1 6FS         0.0559
     17 O7         13.4930   -5.2620   10.2740 O.co2     1 6FS        -0.5670
     18 S1          9.4330   -7.0850    7.6310 S.o2      1 6FS        -0.0219
     19 C18        10.9780   -5.2140    6.5600 C.ar      1 6FS        -0.0449
     20 O8         11.7010   -4.4150   11.2860 O.co2     1 6FS        -0.5670
     21 O4         10.0040   -6.8730    9.0440 O.2       1 6FS        -0.1724
     22 O3          5.2710   -6.9800    8.3970 O.3       1 6FS        -0.3304
     23 O6         14.8250   -3.7050    6.2440 O.3       1 6FS        -0.3314
     24 C17        11.5650   -4.5140    7.6120 C.ar      1 6FS        -0.0495
     25 C9          6.9900   -7.7850    6.4100 C.3       1 6FS        -0.0087
     26 O1          1.5010   -8.5740    5.7930 O.3       1 6FS        -0.3308
     27 C4          5.0940   -8.5210    5.1180 C.ar      1 6FS         0.0760
     28 C20        12.8480   -3.0400    9.7220 C.3       1 6FS         0.0746
     29 O5         10.1710   -8.2540    6.9560 O.2       1 6FS        -0.1724
     30 N1         13.4800   -3.3400    8.4300 N.pl3     1 6FS        -0.3150
     31 O2          6.0070   -8.8230    4.1390 O.3       1 6FS        -0.3304
     32 H1          2.6662   -7.4955    7.9499 H         1 6FS         0.0359
     33 H2          3.3389   -9.1471    4.0441 H         1 6FS         0.0359
     34 H3         -0.3376   -8.3552    6.7382 H         1 6FS         0.0575
     35 H4          0.8783   -7.0842    7.1025 H         1 6FS         0.0575
     36 H5          1.0507   -8.7232    7.8171 H         1 6FS         0.0575
     37 H6          6.1327   -9.6084    2.2150 H         1 6FS         0.0574
     38 H7          4.6522   -8.6541    2.5671 H         1 6FS         0.0574
     39 H8          4.8419  -10.3035    3.2528 H         1 6FS         0.0574
     40 H9          4.7568   -6.1294   10.2227 H         1 6FS         0.0574
     41 H10         3.7464   -7.5205    9.7026 H         1 6FS         0.0574
     42 H11         3.5545   -5.9228    8.9043 H         1 6FS         0.0574
     43 H12         7.2244   -6.5638    8.1481 H         1 6FS         0.0516
     44 H13         7.6013   -8.3032    8.3912 H         1 6FS         0.0516
     45 H14         9.0673   -4.7510    7.0884 H         1 6FS         0.0640
     46 H15         9.2599   -5.7554    5.6116 H         1 6FS         0.0640
     47 H16        11.2347   -6.0073    4.5783 H         1 6FS         0.0419
     48 H17        13.5466   -5.1406    4.3387 H         1 6FS         0.0486
     49 H18        16.4481   -3.5407    4.9606 H         1 6FS         0.0569
     50 H19        14.8337   -3.5611    4.1732 H         1 6FS         0.0569
     51 H20        15.5222   -5.0759    4.8499 H         1 6FS         0.0569
     52 H21        11.0149   -4.3450    8.5307 H         1 6FS         0.0422
     53 H22         7.2369   -6.9698    5.7139 H         1 6FS         0.0375
     54 H23         7.4453   -8.7212    6.0547 H         1 6FS         0.0375
     55 H24        13.4898   -2.3576   10.2986 H         1 6FS         0.0677
     56 H25        11.8685   -2.5683    9.5544 H         1 6FS         0.0677
     57 H26        14.4371   -3.0010    8.2567 H         1 6FS         0.1741
@<TRIPOS>BOND
     1    2    1 ar 
     2    1    5 ar 
     3    3    2 ar 
     4    2   22 1  
     5   25    3 1  
     6    3   27 ar 
     7    4    5 ar 
     8   27    4 ar 
     9    5   26 1  
    10   26    6 1  
    11   31    7 1  
    12   22    8 1  
    13   18    9 1  
    14    9   25 1  
    15   10   18 1  
    16   19   10 1  
    17   12   11 ar 
    18   19   11 ar 
    19   13   12 ar 
    20   14   13 ar 
    21   13   23 1  
    22   14   24 ar 
    23   30   14 1  
    24   23   15 1  
    25   16   17 ar 
    26   16   20 ar 
    27   28   16 1  
    28   18   21 2  
    29   18   29 2  
    30   24   19 ar 
    31   27   31 1  
    32   28   30 1  
    33    1   32 1  
    34    4   33 1  
    35    6   34 1  
    36    6   35 1  
    37    6   36 1  
    38    7   37 1  
    39    7   38 1  
    40    7   39 1  
    41    8   40 1  
    42    8   41 1  
    43    8   42 1  
    44    9   43 1  
    45    9   44 1  
    46   10   45 1  
    47   10   46 1  
    48   11   47 1  
    49   12   48 1  
    50   15   49 1  
    51   15   50 1  
    52   15   51 1  
    53   24   52 1  
    54   25   53 1  
    55   25   54 1  
    56   28   55 1  
    57   28   56 1  
    58   30   57 1  
@<TRIPOS>SUBSTRUCTURE
     1 6FS         1

