### 
### Created by X-TOOL on Mon Sep 10 21:13:32 2018
### 

@<TRIPOS>MOLECULE
5j1r_ligand
   25    26     1     0     0
SMALL
GAST_HUCK


@<TRIPOS>ATOM
      1 O1         28.4650   14.2750   16.5290 O.2       1 6FG        -0.3530
      2 C6         29.0200   14.5760   15.4590 C.2       1 6FG         0.2548
      3 N          29.7250   15.7770   15.3010 N.am      1 6FG        -0.1966
      4 C10        30.1980   16.6300   16.4040 C.2       1 6FG         0.0409
      5 C9         31.0830   17.7070   15.7920 C.2       1 6FG        -0.0900
      6 C8         30.9410   17.4300   14.3260 C.2       1 6FG        -0.0900
      7 C7         30.0530   16.2280   14.0000 C.2       1 6FG         0.0409
      8 C5         28.9310   13.5300   14.3930 C.3       1 6FG         0.0614
      9 C4         28.2610   12.3470   15.0600 C.3       1 6FG        -0.0172
     10 C3         28.2440   11.3240   14.0450 C.2       1 6FG        -0.0497
     11 C          27.8090   10.0450   14.2360 C.2       1 6FG        -0.0641
     12 C2         28.6830   11.5640   12.7470 C.2       1 6FG         0.0716
     13 O          28.4680   10.3510   12.1380 O.3       1 6FG        -0.2806
     14 C1         27.9380    9.4110   13.0170 C.2       1 6FG         0.0724
     15 H1         29.9594   16.5125   17.4600 H         1 6FG         0.0802
     16 H2         31.6678   18.4788   16.2904 H         1 6FG         0.0232
     17 H3         31.4275   18.0319   13.5598 H         1 6FG         0.0232
     18 H4         29.7547   15.8285   13.0318 H         1 6FG         0.0802
     19 H5         29.9345   13.2553   14.0361 H         1 6FG         0.0539
     20 H6         28.3269   13.8902   13.5473 H         1 6FG         0.0539
     21 H7         27.2375   12.6038   15.3706 H         1 6FG         0.0384
     22 H8         28.8380   12.0161   15.9361 H         1 6FG         0.0384
     23 H9         27.4356    9.6120   15.1628 H         1 6FG         0.0307
     24 H10        29.0924   12.4793   12.3221 H         1 6FG         0.0827
     25 H11        27.6767    8.3789   12.7880 H         1 6FG         0.0945
@<TRIPOS>BOND
     1    1    2 2  
     2    2    3 am 
     3    2    8 1  
     4    3    4 1  
     5    3    7 1  
     6    4    5 2  
     7    5    6 1  
     8    6    7 2  
     9    8    9 1  
    10    9   10 1  
    11   10   11 1  
    12   10   12 2  
    13   11   14 2  
    14   12   13 1  
    15   13   14 1  
    16    4   15 1  
    17    5   16 1  
    18    6   17 1  
    19    7   18 1  
    20    8   19 1  
    21    8   20 1  
    22    9   21 1  
    23    9   22 1  
    24   11   23 1  
    25   12   24 1  
    26   14   25 1  
@<TRIPOS>SUBSTRUCTURE
     1 6FG         1

