### 
### Created by X-TOOL on Mon Sep 10 21:13:29 2018
### 

@<TRIPOS>MOLECULE
5j1v_ligand
   25    27     1     0     0
SMALL
GAST_HUCK


@<TRIPOS>ATOM
      1 C4         -5.9800   26.3390   -8.1710 C.ar      1 6FD        -0.0488
      2 C5         -5.9360   27.7000   -7.8680 C.ar      1 6FD         0.0131
      3 C6         -5.8170   28.3240   -6.6120 C.ar      1 6FD         0.0305
      4 N1         -5.8020   29.6240   -6.4110 N.ar      1 6FD        -0.2431
      5 C7         -5.9050   30.3900   -7.4940 C.ar      1 6FD         0.1831
      6 C8         -6.0290   28.6200   -8.9390 C.ar      1 6FD         0.0695
      7 N2         -5.8350   31.7200   -7.3050 N.pl3     1 6FD        -0.3049
      8 C9         -6.1470   28.1490  -10.2820 C.ar      1 6FD         0.0837
      9 C10        -6.1360   26.7750  -10.5500 C.ar      1 6FD         0.0258
     10 N3         -6.0240   29.9550   -8.7420 N.ar      1 6FD        -0.2701
     11 N4         -6.2270   29.0090  -11.2920 N.pl3     1 6FD        -0.3255
     12 C          -6.1490   26.2440  -11.8590 C.ar      1 6FD        -0.0332
     13 C3         -6.0700   25.8610   -9.4760 C.ar      1 6FD        -0.0013
     14 C2         -6.0290   24.4870   -9.8000 C.ar      1 6FD         0.0140
     15 N          -6.0590   24.0120  -11.0430 N.ar      1 6FD        -0.3023
     16 C1         -6.1140   24.8980  -12.0370 C.ar      1 6FD         0.0032
     17 H1         -5.9426   25.6240   -7.3571 H         1 6FD         0.0522
     18 H2         -5.7310   27.6831   -5.7420 H         1 6FD         0.0998
     19 H3         -5.7422   32.1006   -6.3524 H         1 6FD         0.1822
     20 H4         -5.8742   32.3577   -8.1129 H         1 6FD         0.1822
     21 H5         -6.2358   30.0221  -11.1063 H         1 6FD         0.1802
     22 H6         -6.2802   28.6625  -12.2605 H         1 6FD         0.1802
     23 H7         -6.1867   26.9067  -12.7160 H         1 6FD         0.0721
     24 H8         -5.9694   23.7745   -8.9852 H         1 6FD         0.0848
     25 H9         -6.1320   24.5201  -13.0528 H         1 6FD         0.0727
@<TRIPOS>BOND
     1    1    2 ar 
     2    1   13 ar 
     3    2    3 ar 
     4    2    6 ar 
     5    3    4 ar 
     6    4    5 ar 
     7    5    7 1  
     8    5   10 ar 
     9    6    8 ar 
    10    6   10 ar 
    11    8    9 ar 
    12    8   11 1  
    13    9   12 ar 
    14    9   13 ar 
    15   12   16 ar 
    16   13   14 ar 
    17   14   15 ar 
    18   15   16 ar 
    19    1   17 1  
    20    3   18 1  
    21    7   19 1  
    22    7   20 1  
    23   11   21 1  
    24   11   22 1  
    25   12   23 1  
    26   14   24 1  
    27   16   25 1  
@<TRIPOS>SUBSTRUCTURE
     1 6FD         1

