### 
### Created by X-TOOL on Mon Sep 10 21:13:28 2018
### 

@<TRIPOS>MOLECULE
5j1w_ligand
   23    25     1     0     0
SMALL
GAST_HUCK


@<TRIPOS>ATOM
      1 C4         -6.3150   29.2970   -8.2830 C.ar      1 6FB        -0.0225
      2 C5         -6.2560   30.6530   -7.9980 C.ar      1 6FB         0.0315
      3 C6         -6.1230   31.2480   -6.7330 C.ar      1 6FB         0.0392
      4 N1         -6.1250   32.5450   -6.5020 N.ar      1 6FB        -0.2373
      5 C7         -6.2820   33.3360   -7.5710 C.ar      1 6FB         0.1861
      6 C8         -6.3630   31.5730   -9.0590 C.ar      1 6FB         0.0402
      7 N2         -6.2650   34.6530   -7.3540 N.pl3     1 6FB        -0.3015
      8 C9         -6.4710   31.0980  -10.3640 C.ar      1 6FB        -0.0339
      9 C10        -6.4990   29.7360  -10.6400 C.ar      1 6FB        -0.0023
     10 N3         -6.3970   32.9230   -8.8390 N.ar      1 6FB        -0.2703
     11 C          -6.5100   29.2350  -11.9600 C.ar      1 6FB        -0.0315
     12 C3         -6.4470   28.8200   -9.5780 C.ar      1 6FB         0.0177
     13 C2         -6.4750   27.4500   -9.9160 C.ar      1 6FB         0.0227
     14 N          -6.5320   26.9860  -11.1710 N.ar      1 6FB        -0.2964
     15 C1         -6.5090   27.8890  -12.1590 C.ar      1 6FB         0.0074
     16 H1         -6.2560   28.5867   -7.4663 H         1 6FB         0.0777
     17 H2         -6.0099   30.5887   -5.8800 H         1 6FB         0.1047
     18 H3         -6.1780   35.0157   -6.3939 H         1 6FB         0.1847
     19 H4         -6.3389   35.3065   -8.1467 H         1 6FB         0.1847
     20 H5         -6.5346   31.8061  -11.1823 H         1 6FB         0.0603
     21 H6         -6.5191   29.9144  -12.8046 H         1 6FB         0.0707
     22 H7         -6.4487   26.7274   -9.1084 H         1 6FB         0.0899
     23 H8         -6.4883   27.5256  -13.1801 H         1 6FB         0.0781
@<TRIPOS>BOND
     1    1    2 ar 
     2    1   12 ar 
     3    2    3 ar 
     4    2    6 ar 
     5    3    4 ar 
     6    4    5 ar 
     7    5    7 1  
     8    5   10 ar 
     9    6    8 ar 
    10    6   10 ar 
    11    8    9 ar 
    12    9   11 ar 
    13    9   12 ar 
    14   11   15 ar 
    15   12   13 ar 
    16   13   14 ar 
    17   14   15 ar 
    18    1   16 1  
    19    3   17 1  
    20    7   18 1  
    21    7   19 1  
    22    8   20 1  
    23   11   21 1  
    24   13   22 1  
    25   15   23 1  
@<TRIPOS>SUBSTRUCTURE
     1 6FB         1

