### 
### Created by X-TOOL on Wed Jan  1 15:39:34 2020
### 

@<TRIPOS>MOLECULE
5j20_ligand
   48    51     1     0     0
SMALL
GAST_HUCK


@<TRIPOS>ATOM
      1 C1          0.1720   36.9690   24.4660 C.ar      1 6FJ        -0.0354
      2 C2         -0.1970   31.8900   26.0580 C.ar      1 6FJ         0.1018
      3 C3         -1.4530   32.2350   25.5020 C.ar      1 6FJ         0.0028
      4 C7          0.9970   32.3590   25.4620 C.ar      1 6FJ         0.0687
      5 C8         -0.3440   34.3220   22.5150 C.2       1 6FJ         0.1652
      6 C14         0.0440   36.0770   21.2440 C.2       1 6FJ         0.3445
      7 C16         0.9290   36.2180   23.5480 C.ar      1 6FJ         0.1298
      8 C19         2.1700   37.5270   25.7240 C.ar      1 6FJ        -0.0767
      9 C20         2.3700   31.9790   25.9000 C.2       1 6FJ         0.1964
     10 C24         5.1210   30.3430   24.5410 C.2       1 6FJ         0.1173
     11 C30         5.7630   29.2220   24.1360 C.2       1 6FJ        -0.0686
     12 C4         -1.4950   32.9640   24.2960 C.ar      1 6FJ         0.0988
     13 C5         -0.3090   33.4510   23.7170 C.ar      1 6FJ         0.0483
     14 C6          0.9310   33.0950   24.2680 C.ar      1 6FJ        -0.0457
     15 N9         -0.9530   34.0860   21.3650 N.2       1 6FJ        -0.2019
     16 N10         0.2830   35.5600   22.4630 N.am      1 6FJ        -0.1438
     17 O11        -2.6910   33.3000   23.7230 O.3       1 6FJ        -0.3296
     18 O12        -0.0970   31.1690   27.1920 O.3       1 6FJ        -0.3298
     19 N13        -0.7040   35.1940   20.5370 N.am      1 6FJ        -0.1730
     20 O15         0.4230   37.1880   20.8770 O.2       1 6FJ        -0.3936
     21 C17         2.3170   36.1360   23.7450 C.ar      1 6FJ         0.1589
     22 C18         2.9370   36.7830   24.8230 C.ar      1 6FJ        -0.0387
     23 N21         2.9400   30.7980   25.5070 N.am      1 6FJ        -0.2646
     24 O22         3.0260   32.8140   26.5030 O.2       1 6FJ        -0.3949
     25 C23         4.3470   30.4920   25.8330 C.3       1 6FJ         0.0957
     26 C25         0.7990   37.6060   25.5400 C.ar      1 6FJ        -0.0766
     27 C26         2.1970   29.7300   24.8400 C.3       1 6FJ         0.0239
     28 O27         5.2760   31.3040   23.6010 O.3       1 6FJ        -0.2667
     29 C28         6.0210   30.8240   22.5960 C.2       1 6FJ         0.0669
     30 C29         6.3320   29.5350   22.8750 C.2       1 6FJ        -0.0808
     31 F31         3.0530   35.4300   22.8630 F         1 6FJ        -0.1910
     32 H1         -0.9013   37.0537   24.3396 H         1 6FJ         0.0517
     33 H2         -2.3713   31.9420   25.9979 H         1 6FJ         0.0476
     34 H3          2.6420   38.0360   26.5566 H         1 6FJ         0.0497
     35 H4          5.8290   28.2746   24.6689 H         1 6FJ         0.0219
     36 H5          1.8461   33.3906   23.7677 H         1 6FJ         0.0617
     37 H6         -3.3996   32.9037   24.2163 H         1 6FJ         0.2514
     38 H7         -0.9655   30.9185   27.4843 H         1 6FJ         0.2512
     39 H8         -1.0213   35.3103   19.5958 H         1 6FJ         0.2419
     40 H9          4.0099   36.7064   24.9577 H         1 6FJ         0.0568
     41 H10         4.7756   31.3109   26.4294 H         1 6FJ         0.0715
     42 H11         4.3990   29.5547   26.4063 H         1 6FJ         0.0715
     43 H12         0.2007   38.1735   26.2435 H         1 6FJ         0.0549
     44 H13         1.1674   30.0653   24.6463 H         1 6FJ         0.0487
     45 H14         2.1772   28.8391   25.4848 H         1 6FJ         0.0487
     46 H15         2.6873   29.4821   23.8870 H         1 6FJ         0.0487
     47 H16         6.3245   31.3754   21.7073 H         1 6FJ         0.0854
     48 H17         6.9128   28.8621   22.2459 H         1 6FJ         0.0296
@<TRIPOS>BOND
     1    7    1 ar 
     2    1   26 ar 
     3    2    3 ar 
     4    4    2 ar 
     5    2   18 1  
     6    3   12 ar 
     7    9    4 1  
     8    4   14 ar 
     9   13    5 1  
    10    5   15 2  
    11    5   16 1  
    12   16    6 am 
    13    6   19 am 
    14    6   20 2  
    15   16    7 1  
    16    7   21 ar 
    17   22    8 ar 
    18   26    8 ar 
    19   23    9 am 
    20    9   24 2  
    21   10   11 2  
    22   25   10 1  
    23   10   28 1  
    24   11   30 1  
    25   13   12 ar 
    26   12   17 1  
    27   14   13 ar 
    28   15   19 1  
    29   21   22 ar 
    30   21   31 1  
    31   23   25 1  
    32   23   27 1  
    33   28   29 1  
    34   29   30 2  
    35    1   32 1  
    36    3   33 1  
    37    8   34 1  
    38   11   35 1  
    39   14   36 1  
    40   17   37 1  
    41   18   38 1  
    42   19   39 1  
    43   22   40 1  
    44   25   41 1  
    45   25   42 1  
    46   26   43 1  
    47   27   44 1  
    48   27   45 1  
    49   27   46 1  
    50   29   47 1  
    51   30   48 1  
@<TRIPOS>SUBSTRUCTURE
     1 6FJ         1

