### 
### Created by X-TOOL on Wed Jan  1 15:39:34 2020
### 

@<TRIPOS>MOLECULE
5j27_ligand
   48    50     1     0     0
SMALL
GAST_HUCK


@<TRIPOS>ATOM
      1 C1         -0.0300   32.1400   25.6650 C.ar      1 6FF         0.1065
      2 C2         -1.2670   32.3590   25.0200 C.ar      1 6FF        -0.0018
      3 C3         -1.2890   33.0820   23.8290 C.ar      1 6FF         0.0934
      4 C9         -0.1250   34.5120   22.1330 C.2       1 6FF         0.1637
      5 C12         0.2430   36.2620   20.8280 C.2       1 6FF         0.3444
      6 C14         1.1710   36.4400   23.0940 C.ar      1 6FF         0.1297
      7 C15         2.5470   36.6260   22.9550 C.ar      1 6FF         0.1589
      8 C16         3.2800   37.2980   23.9500 C.ar      1 6FF        -0.0387
      9 C19         0.5100   36.9670   24.2170 C.ar      1 6FF        -0.0354
     10 C27         6.0810   29.8770   23.0000 C.3       1 6FF        -0.0638
     11 C4         -0.1040   33.6540   23.3310 C.ar      1 6FF         0.0436
     12 C5          1.1170   33.4000   23.9570 C.ar      1 6FF        -0.0400
     13 C6          1.1540   32.7320   25.1710 C.ar      1 6FF         0.1264
     14 O7         -0.0150   31.4360   26.8220 O.3       1 6FF        -0.3332
     15 O8         -2.4500   33.2770   23.1520 O.3       1 6FF        -0.3330
     16 N10        -0.7270   34.2500   20.9940 N.2       1 6FF        -0.2023
     17 N11        -0.4830   35.3420   20.1510 N.am      1 6FF        -0.1732
     18 N13         0.4650   35.7710   22.0690 N.am      1 6FF        -0.1440
     19 C17         2.6150   37.7990   25.0690 C.ar      1 6FF        -0.0767
     20 C18         1.2400   37.6290   25.2070 C.ar      1 6FF        -0.0766
     21 O20         0.6300   37.3490   20.4100 O.2       1 6FF        -0.3936
     22 S21         2.7570   32.4630   25.8940 S.o2      1 6FF         0.0640
     23 O22         3.6420   33.4630   25.3670 O.2       1 6FF        -0.1530
     24 O23         2.5060   32.3690   27.2960 O.2       1 6FF        -0.1530
     25 N24         3.1750   30.9950   25.2380 N.am      1 6FF        -0.2395
     26 C25         4.1100   30.9340   24.0970 C.3       1 6FF         0.0288
     27 C26         5.3150   29.9990   24.3180 C.3       1 6FF        -0.0387
     28 C28         2.4640   29.7790   25.6750 C.3       1 6FF         0.0179
     29 F29         3.1460   36.1130   21.8630 F         1 6FF        -0.1910
     30 H1         -2.1855   31.9706   25.4449 H         1 6FF         0.0464
     31 H2          4.3517   37.4253   23.8480 H         1 6FF         0.0568
     32 H3         -0.5643   36.8599   24.3146 H         1 6FF         0.0517
     33 H4          6.9462   29.2121   23.1390 H         1 6FF         0.0230
     34 H5          6.4298   30.8716   22.6852 H         1 6FF         0.0230
     35 H6          5.4181   29.4595   22.2279 H         1 6FF         0.0230
     36 H7          2.0402   33.7264   23.4921 H         1 6FF         0.0583
     37 H8         -0.8886   31.1104   27.0046 H         1 6FF         0.2486
     38 H9         -3.1578   32.8343   23.6053 H         1 6FF         0.2495
     39 H10        -0.7941   35.4277   19.2045 H         1 6FF         0.2418
     40 H11         3.1723   38.3242   25.8362 H         1 6FF         0.0497
     41 H12         0.7341   38.0118   26.0860 H         1 6FF         0.0549
     42 H13         4.4906   31.9486   23.9080 H         1 6FF         0.0478
     43 H14         3.5558   30.5801   23.2152 H         1 6FF         0.0478
     44 H15         5.9735   30.4188   25.0927 H         1 6FF         0.0278
     45 H16         4.9617   29.0068   24.6353 H         1 6FF         0.0278
     46 H17         2.8679   28.9063   25.1409 H         1 6FF         0.0442
     47 H18         1.3917   29.8812   25.4522 H         1 6FF         0.0442
     48 H19         2.6022   29.6425   26.7577 H         1 6FF         0.0442
@<TRIPOS>BOND
     1    1    2 ar 
     2   13    1 ar 
     3    1   14 1  
     4    2    3 ar 
     5   11    3 ar 
     6    3   15 1  
     7   11    4 1  
     8    4   16 2  
     9    4   18 1  
    10    5   17 am 
    11   18    5 am 
    12    5   21 2  
    13    6    7 ar 
    14    6    9 ar 
    15   18    6 1  
    16    7    8 ar 
    17    7   29 1  
    18    8   19 ar 
    19    9   20 ar 
    20   27   10 1  
    21   12   11 ar 
    22   13   12 ar 
    23   22   13 1  
    24   16   17 1  
    25   20   19 ar 
    26   22   23 2  
    27   22   24 2  
    28   25   22 am 
    29   26   25 1  
    30   25   28 1  
    31   26   27 1  
    32    2   30 1  
    33    8   31 1  
    34    9   32 1  
    35   10   33 1  
    36   10   34 1  
    37   10   35 1  
    38   12   36 1  
    39   14   37 1  
    40   15   38 1  
    41   17   39 1  
    42   19   40 1  
    43   20   41 1  
    44   26   42 1  
    45   26   43 1  
    46   27   44 1  
    47   27   45 1  
    48   28   46 1  
    49   28   47 1  
    50   28   48 1  
@<TRIPOS>SUBSTRUCTURE
     1 6FF         1

