### 
### Created by X-TOOL on Wed Jan  1 15:39:34 2020
### 

@<TRIPOS>MOLECULE
5j2x_ligand
   31    33     1     0     0
SMALL
GAST_HUCK


@<TRIPOS>ATOM
      1 C1          1.5760   12.2310   27.4000 C.ar      1 6DL         0.0900
      2 C2          2.8120   11.6940   27.0600 C.ar      1 6DL        -0.0011
      3 C3          2.8550   10.8410   25.9660 C.ar      1 6DL         0.0963
      4 C9          1.7670    9.6080   24.0860 C.2       1 6DL         0.1645
      5 C12         1.5400    7.7970   22.8270 C.2       1 6DL         0.3444
      6 C14         0.2210    7.7610   24.8820 C.ar      1 6DL         0.1297
      7 C15        -1.0920    7.4810   24.4630 C.ar      1 6DL         0.1589
      8 C16        -2.0010    6.8620   25.3110 C.ar      1 6DL        -0.0387
      9 C19         0.6300    7.3640   26.1560 C.ar      1 6DL        -0.0354
     10 C4          1.7000   10.5610   25.2060 C.ar      1 6DL         0.0449
     11 C5          0.4640   11.0710   25.6060 C.ar      1 6DL        -0.0568
     12 C6          0.4370   11.9340   26.6760 C.ar      1 6DL         0.0301
     13 O7          1.4300   13.0360   28.4720 O.3       1 6DL        -0.3332
     14 O8          4.0480   10.3390   25.5800 O.3       1 6DL        -0.3311
     15 N10         2.5300    9.7880   23.0460 N.2       1 6DL        -0.2022
     16 N11         2.3830    8.6590   22.2360 N.am      1 6DL        -0.1731
     17 N13         1.1440    8.3590   23.9900 N.am      1 6DL        -0.1439
     18 C17        -1.5750    6.5020   26.5840 C.ar      1 6DL        -0.0767
     19 C18        -0.2730    6.7520   27.0130 C.ar      1 6DL        -0.0766
     20 O20         1.2110    6.7000   22.4030 O.2       1 6DL        -0.3936
     21 F21        -1.5040    7.8230   23.2290 F         1 6DL        -0.1910
     22 BR         -1.1520   12.8350   27.0950 Br        1 6DL        -0.0668
     23 H1          3.7055   11.9316   27.6259 H         1 6DL         0.0470
     24 H2         -3.0169    6.6646   24.9883 H         1 6DL         0.0568
     25 H3          1.6519    7.5337   26.4754 H         1 6DL         0.0517
     26 H4         -0.4476   10.7949   25.0885 H         1 6DL         0.0592
     27 H5          2.2751   13.1670   28.8857 H         1 6DL         0.2499
     28 H6          4.7199   10.6164   26.1916 H         1 6DL         0.2506
     29 H7          2.8343    8.5156   21.3552 H         1 6DL         0.2418
     30 H8         -2.2710    6.0160   27.2581 H         1 6DL         0.0497
     31 H9          0.0334    6.4691   28.0136 H         1 6DL         0.0549
@<TRIPOS>BOND
     1    2    1 ar 
     2    1   12 ar 
     3    1   13 1  
     4    3    2 ar 
     5   10    3 ar 
     6    3   14 1  
     7    4   10 1  
     8    4   15 2  
     9   17    4 1  
    10    5   16 am 
    11   17    5 am 
    12    5   20 2  
    13    6    7 ar 
    14    6    9 ar 
    15    6   17 1  
    16    7    8 ar 
    17    7   21 1  
    18    8   18 ar 
    19    9   19 ar 
    20   10   11 ar 
    21   11   12 ar 
    22   12   22 1  
    23   15   16 1  
    24   18   19 ar 
    25    2   23 1  
    26    8   24 1  
    27    9   25 1  
    28   11   26 1  
    29   13   27 1  
    30   14   28 1  
    31   16   29 1  
    32   18   30 1  
    33   19   31 1  
@<TRIPOS>SUBSTRUCTURE
     1 6DL         1

