### 
### Created by X-TOOL on Mon Sep 10 21:13:26 2018
### 

@<TRIPOS>MOLECULE
5j32_ligand
   22    21     1     0     0
SMALL
GAST_HUCK


@<TRIPOS>ATOM
      1 C1         20.7620    6.7090   19.7850 C.2       1 IPM         0.0653
      2 C2         20.6750    8.0780   19.1960 C.3       1 IPM         0.1215
      3 C3         21.9080    8.8390   19.5760 C.3       1 IPM         0.0518
      4 C4         23.0870    8.0810   19.0540 C.2       1 IPM         0.0422
      5 C5         21.8910   10.2510   19.0520 C.3       1 IPM        -0.0284
      6 C6         23.0660   11.0130   19.5840 C.3       1 IPM        -0.0607
      7 C7         20.6570   10.9610   19.5210 C.3       1 IPM        -0.0607
      8 O1         20.5830    7.9760   17.8200 O.3       1 IPM        -0.3757
      9 O2         20.7680    6.5620   21.0340 O.co2     1 IPM        -0.5662
     10 O3         20.8400    5.7010   19.0370 O.co2     1 IPM        -0.5662
     11 O4         23.5020    8.2590   17.8740 O.co2     1 IPM        -0.5685
     12 O5         23.6710    7.2480   19.7950 O.co2     1 IPM        -0.5685
     13 H1         19.7863    8.5960   19.5858 H         1 IPM         0.0785
     14 H2         21.9706    8.8844   20.6733 H         1 IPM         0.0512
     15 H3         21.9202   10.2332   17.9525 H         1 IPM         0.0318
     16 H4         23.0427   12.0416   19.1948 H         1 IPM         0.0233
     17 H5         23.9968   10.5213   19.2650 H         1 IPM         0.0233
     18 H6         23.0213   11.0357   20.6828 H         1 IPM         0.0233
     19 H7         19.7665   10.4319   19.1508 H         1 IPM         0.0233
     20 H8         20.6579   11.9913   19.1357 H         1 IPM         0.0233
     21 H9         20.6409   10.9808   20.6207 H         1 IPM         0.0233
     22 H10        19.7982    7.4920   17.5912 H         1 IPM         0.2125
@<TRIPOS>BOND
     1    1    2 1  
     2    1    9 ar 
     3    1   10 ar 
     4    2    3 1  
     5    2    8 1  
     6    3    4 1  
     7    3    5 1  
     8    4   11 ar 
     9    4   12 ar 
    10    5    6 1  
    11    5    7 1  
    12    2   13 1  
    13    3   14 1  
    14    5   15 1  
    15    6   16 1  
    16    6   17 1  
    17    6   18 1  
    18    7   19 1  
    19    7   20 1  
    20    7   21 1  
    21    8   22 1  
@<TRIPOS>SUBSTRUCTURE
     1 IPM         1

