### 
### Created by X-TOOL on Mon Sep 10 21:13:30 2018
### 

@<TRIPOS>MOLECULE
5j3s_ligand
   39    43     1     0     0
SMALL
GAST_HUCK


@<TRIPOS>ATOM
      1 N1          9.9250   -7.8190   11.6220 N.am      1 6FQ        -0.2003
      2 N3          7.5360   -5.7880   14.3070 N.pl3     1 6FQ        -0.1700
      3 C4          9.1250   -5.7130   12.4910 C.2       1 6FQ         0.1272
      4 C5          9.0950   -4.3230   12.5000 C.2       1 6FQ        -0.0010
      5 C6          7.5090   -4.3890   14.3240 C.ar      1 6FQ         0.1310
      6 C7          8.2930   -3.6490   13.4140 C.ar      1 6FQ         0.0454
      7 C8          8.2440   -2.2280   13.4530 C.ar      1 6FQ        -0.0382
      8 C10         6.6780   -2.3280   15.2660 C.ar      1 6FQ         0.0965
      9 C13         6.7240   -6.5350   15.2550 C.ar      1 6FQ         0.1046
     10 C15         4.6730   -7.6150   15.8330 C.ar      1 6FQ        -0.0624
     11 C17         6.4990   -7.5980   17.3950 C.ar      1 6FQ         0.0347
     12 C1          9.9630   -6.4400   11.5460 C.2       1 6FQ         0.2367
     13 C2          9.1330   -8.4830   12.5390 C.2       1 6FQ         0.2356
     14 N2          8.3390   -7.7860   13.4270 N.2       1 6FQ        -0.2696
     15 C3          8.3330   -6.4640   13.4100 C.2       1 6FQ         0.1720
     16 C9          6.7010   -3.7080   15.2460 C.ar      1 6FQ         0.0157
     17 C11         7.4530   -1.5970   14.3650 C.ar      1 6FQ        -0.0284
     18 C12         5.8470   -1.6420   16.2200 C.1       1 6FQ         0.1035
     19 N4          5.1950   -1.0970   16.9840 N.1       1 6FQ        -0.3249
     20 O1          9.1620   -9.7090   12.5340 O.2       1 6FQ        -0.3951
     21 O2         10.6880   -5.8970   10.7120 O.2       1 6FQ        -0.3812
     22 C14         5.4330   -6.9000   14.9270 C.ar      1 6FQ        -0.0252
     23 C16         5.2010   -7.9650   17.0620 C.ar      1 6FQ        -0.0522
     24 C18         7.2610   -6.8820   16.4790 C.ar      1 6FQ        -0.0115
     25 C19         7.0700   -7.9660   18.6880 C.2       1 6FQ         0.1838
     26 N5          6.4720   -8.6830   19.6420 N.2       1 6FQ        -0.2072
     27 N6          8.2850   -7.6590   19.1170 N.pl3     1 6FQ        -0.1509
     28 N7          8.4040   -8.2030   20.3550 N.2       1 6FQ        -0.0637
     29 N8          7.3170   -8.8210   20.6750 N.2       1 6FQ        -0.1384
     30 H1         10.4890   -8.3539   10.9929 H         1 6FQ         0.2241
     31 H2          9.7005   -3.7614   11.7901 H         1 6FQ         0.0944
     32 H3          8.8368   -1.6465   12.7562 H         1 6FQ         0.0679
     33 H4          3.6591   -7.9025   15.5792 H         1 6FQ         0.0607
     34 H5          6.0917   -4.2679   15.9462 H         1 6FQ         0.0691
     35 H6          7.4253   -0.5137   14.3911 H         1 6FQ         0.0657
     36 H7          5.0179   -6.6269   13.9636 H         1 6FQ         0.0603
     37 H8          4.6005   -8.5274   17.7678 H         1 6FQ         0.0592
     38 H9          8.2771   -6.5960   16.7256 H         1 6FQ         0.0613
     39 H10         8.9985   -7.1150   18.6112 H         1 6FQ         0.2707
@<TRIPOS>BOND
     1   12    1 am 
     2    1   13 am 
     3    2    5 1  
     4    2    9 1  
     5   15    2 1  
     6    3    4 2  
     7    3   12 1  
     8    3   15 1  
     9    4    6 1  
    10    5    6 ar 
    11    5   16 ar 
    12    6    7 ar 
    13    7   17 ar 
    14   16    8 ar 
    15    8   17 ar 
    16    8   18 1  
    17    9   22 ar 
    18    9   24 ar 
    19   22   10 ar 
    20   10   23 ar 
    21   23   11 ar 
    22   11   24 ar 
    23   11   25 1  
    24   12   21 2  
    25   13   14 1  
    26   13   20 2  
    27   14   15 2  
    28   18   19 3  
    29   25   26 2  
    30   25   27 1  
    31   26   29 1  
    32   27   28 1  
    33   28   29 2  
    34    1   30 1  
    35    4   31 1  
    36    7   32 1  
    37   10   33 1  
    38   16   34 1  
    39   17   35 1  
    40   22   36 1  
    41   23   37 1  
    42   24   38 1  
    43   27   39 1  
@<TRIPOS>SUBSTRUCTURE
     1 6FQ         1

