### 
### Created by X-TOOL on Mon Sep 10 21:13:26 2018
### 

@<TRIPOS>MOLECULE
5j41_ligand
   66    66     1     0     0
SMALL
GAST_HUCK


@<TRIPOS>ATOM
      1 C           1.0100    4.0800   91.7630 C.2       1 3LF         0.0376
      2 O           1.6730    3.0270   91.5850 O.co2     1 3LF        -0.5688
      3 C1         -0.2260    4.0500   92.6550 C.3       1 3LF         0.0201
      4 O1         -5.3170    5.6950   94.3140 O.3       1 3LF        -0.3297
      5 C2         -0.4180    4.8700   93.6790 C.3       1 3LF         0.0410
      6 O2         -5.3440    3.8250   96.3420 O.3       1 3LF        -0.3342
      7 C3         -1.7600    4.6250   94.3830 C.ar      1 3LF        -0.0562
      8 O3         -3.0940    2.4890   97.0700 O.3       1 3LF        -0.3297
      9 C4         -2.9170    5.3060   93.9950 C.ar      1 3LF        -0.0496
     10 O4          1.3070    5.1640   91.2040 O.co2     1 3LF        -0.5688
     11 C5         -4.1200    5.0400   94.6480 C.ar      1 3LF         0.1048
     12 C6         -5.3550    6.3300   93.0680 C.3       1 3LF         0.0563
     13 C7         -4.1480    4.1010   95.6670 C.ar      1 3LF         0.1394
     14 C8         -5.4910    4.5250   97.5430 C.3       1 3LF         0.0526
     15 C9         -3.0030    3.4230   96.0390 C.ar      1 3LF         0.1048
     16 C10        -1.9340    1.7590   97.3520 C.3       1 3LF         0.0563
     17 C11        -1.8060    3.6750   95.3900 C.ar      1 3LF        -0.0496
     18 N1          4.6860   11.5960   91.4540 N.4       1 GSH         0.2328
     19 CA1         4.5880   10.7740   92.6540 C.3       1 GSH         0.0304
     20 C1          5.7180    9.7490   92.7080 C.2       1 GSH         0.0846
     21 O11         6.2480    9.3740   91.6330 O.co2     1 GSH        -0.5643
     22 O12         6.0900    9.3010   93.8160 O.co2     1 GSH        -0.5643
     23 CB1         3.2220   10.1050   92.6960 C.3       1 GSH         0.0193
     24 CG1         2.9730    9.3920   94.0120 C.3       1 GSH         0.0441
     25 CD1         1.5640    8.8620   94.1310 C.2       1 GSH         0.1785
     26 OE1         0.7500    8.8910   93.2530 O.2       1 GSH        -0.3969
     27 N2          1.2780    8.3270   95.4130 N.am      1 GSH        -0.2648
     28 CA2         0.0620    7.6890   95.7720 C.3       1 GSH         0.1399
     29 C2         -0.5470    8.2430   97.0210 C.2       1 GSH         0.2040
     30 O2          0.1250    8.5650   97.9570 O.2       1 GSH        -0.3944
     31 CB2         0.3290    6.2010   96.0500 C.3       1 GSH         0.0363
     32 SG2         1.0130    5.3180   94.6220 S.3       1 GSH        -0.1393
     33 N3         -1.9740    8.3060   97.0510 N.am      1 GSH        -0.2722
     34 CA3        -2.6050    8.7430   98.2690 C.3       1 GSH         0.0833
     35 C3         -3.1380   10.1540   98.2340 C.2       1 GSH         0.0570
     36 O31        -2.8780   10.9260   97.2760 O.co2     1 GSH        -0.5669
     37 O32        -3.8390   10.4950   99.2160 O.co2     1 GSH        -0.5669
     38 H1         -0.2676    3.0338   93.0741 H         1 3LF         0.0461
     39 H2         -1.0832    4.2050   91.9833 H         1 3LF         0.0461
     40 H3         -0.6199    5.8224   93.1670 H         1 3LF         0.0569
     41 H4         -2.8796    6.0347   93.1933 H         1 3LF         0.0365
     42 H5         -6.3385    6.8019   92.9269 H         1 3LF         0.0572
     43 H6         -5.1867    5.5884   92.2732 H         1 3LF         0.0572
     44 H7         -4.5697    7.0990   93.0242 H         1 3LF         0.0572
     45 H8         -6.4497    4.2550   98.0098 H         1 3LF         0.0565
     46 H9         -5.4729    5.6063   97.3418 H         1 3LF         0.0565
     47 H10        -4.6662    4.2646   98.2226 H         1 3LF         0.0565
     48 H11        -2.1322    1.0605   98.1784 H         1 3LF         0.0572
     49 H12        -1.1275    2.4491   97.6407 H         1 3LF         0.0572
     50 H13        -1.6304    1.1934   96.4587 H         1 3LF         0.0572
     51 H14        -0.9101    3.1319   95.6684 H         1 3LF         0.0365
     52 H15         3.9307   12.2634   91.4413 H         1 3LF         0.2010
     53 H16         4.6279   11.0074   90.6378 H         1 3LF         0.2010
     54 H17         5.5671   12.0857   91.4531 H         1 3LF         0.2010
     55 H18         4.6800   11.4285   93.5333 H         1 3LF         0.1026
     56 H19         3.1616    9.3713   91.8787 H         1 3LF         0.0363
     57 H20         2.4470   10.8731   92.5572 H         1 3LF         0.0363
     58 H21         3.1534   10.0993   94.8349 H         1 3LF         0.0505
     59 H22         3.6742    8.5483   94.0932 H         1 3LF         0.0505
     60 H23         1.9852    8.4050   96.1157 H         1 3LF         0.1883
     61 H24        -0.6509    7.7961   94.9411 H         1 3LF         0.0808
     62 H25        -0.6199    5.7229   96.3346 H         1 3LF         0.0426
     63 H26         1.0429    6.1238   96.8833 H         1 3LF         0.0426
     64 H27        -2.5179    8.0543   96.2505 H         1 3LF         0.1873
     65 H28        -1.8654    8.6766   99.0806 H         1 3LF         0.0689
     66 H29        -3.4448    8.0651   98.4817 H         1 3LF         0.0689
@<TRIPOS>BOND
     1    1    2 ar 
     2    3    1 1  
     3    1   10 ar 
     4    5    3 1  
     5   11    4 1  
     6    4   12 1  
     7    5    7 1  
     8   32    5 1  
     9   13    6 1  
    10    6   14 1  
    11    7    9 ar 
    12    7   17 ar 
    13   15    8 1  
    14    8   16 1  
    15    9   11 ar 
    16   11   13 ar 
    17   15   13 ar 
    18   17   15 ar 
    19   19   18 1  
    20   19   20 1  
    21   23   19 1  
    22   20   21 ar 
    23   20   22 ar 
    24   24   23 1  
    25   25   24 1  
    26   25   26 2  
    27   27   25 am 
    28   28   27 1  
    29   28   29 1  
    30   31   28 1  
    31   29   30 2  
    32   29   33 am 
    33   31   32 1  
    34   33   34 1  
    35   34   35 1  
    36   35   36 ar 
    37   35   37 ar 
    38    3   38 1  
    39    3   39 1  
    40    5   40 1  
    41    9   41 1  
    42   12   42 1  
    43   12   43 1  
    44   12   44 1  
    45   14   45 1  
    46   14   46 1  
    47   14   47 1  
    48   16   48 1  
    49   16   49 1  
    50   16   50 1  
    51   17   51 1  
    52   18   52 1  
    53   18   53 1  
    54   18   54 1  
    55   19   55 1  
    56   23   56 1  
    57   23   57 1  
    58   24   58 1  
    59   24   59 1  
    60   27   60 1  
    61   28   61 1  
    62   31   62 1  
    63   31   63 1  
    64   33   64 1  
    65   34   65 1  
    66   34   66 1  
@<TRIPOS>SUBSTRUCTURE
     1 3LF         1

