### 
### Created by X-TOOL on Mon Sep 10 21:13:28 2018
### 

@<TRIPOS>MOLECULE
5j47_ligand
   32    35     1     0     0
SMALL
GAST_HUCK


@<TRIPOS>ATOM
      1 C4        -41.6950    6.7980   24.3090 C.ar      1 6JJ        -0.0056
      2 C5        -42.1720    5.4950   24.3270 C.ar      1 6JJ        -0.0533
      3 C6        -39.4790    9.0280   23.7010 C.ar      1 6JJ         0.2082
      4 N1        -40.2840   13.1460   25.8850 N.2       1 6JJ        -0.2074
      5 C7        -39.0190    8.2780   22.6200 C.ar      1 6JJ         0.0219
      6 C8        -38.5110    8.9260   21.5050 C.ar      1 6JJ        -0.0309
      7 N2        -40.9600   14.2760   27.6230 N.2       1 6JJ        -0.1802
      8 C9        -38.4630   10.3010   21.4600 C.ar      1 6JJ        -0.0327
      9 C10       -38.9200   11.0540   22.5310 C.ar      1 6JJ        -0.0112
     10 C11       -39.4420   10.4380   23.6720 C.ar      1 6JJ         0.1270
     11 C12       -39.9010   11.2960   24.7760 C.2       1 6JJ         0.1975
     12 N3        -41.2180   12.9290   27.8580 N.pl3     1 6JJ        -0.1592
     13 C13       -40.4110   14.3680   26.4460 C.2       1 6JJ         0.0889
     14 C14       -40.8030   12.2840   26.7950 C.2       1 6JJ         0.2725
     15 N         -39.7750   12.5820   24.7420 N.2       1 6JJ        -0.1742
     16 S         -40.6680   10.6470   26.2090 S.3       1 6JJ         0.1018
     17 O         -39.9340    8.3730   24.8480 O.3       1 6JJ        -0.1949
     18 C3        -40.4390    7.0690   24.8380 C.ar      1 6JJ         0.1636
     19 C2        -39.6680    6.0530   25.3850 C.ar      1 6JJ        -0.0056
     20 C1        -40.1600    4.7550   25.3920 C.ar      1 6JJ        -0.0533
     21 C         -41.4060    4.4760   24.8640 C.ar      1 6JJ        -0.0567
     22 H1        -42.2956    7.5956   23.8869 H         1 6JJ         0.0663
     23 H2        -43.1512    5.2743   23.9176 H         1 6JJ         0.0638
     24 H3        -39.0583    7.1952   22.6511 H         1 6JJ         0.0694
     25 H4        -38.1493    8.3465   20.6633 H         1 6JJ         0.0825
     26 H5        -38.0657   10.7979   20.5824 H         1 6JJ         0.0766
     27 H6        -38.8717   12.1359   22.4827 H         1 6JJ         0.0742
     28 H7        -41.6491   12.5203   28.6994 H         1 6JJ         0.2650
     29 H8        -40.0978   15.3005   25.9789 H         1 6JJ         0.0903
     30 H9        -38.6916    6.2708   25.8025 H         1 6JJ         0.0663
     31 H10       -39.5628    3.9550   25.8145 H         1 6JJ         0.0638
     32 H11       -41.7829    3.4596   24.8706 H         1 6JJ         0.0658
@<TRIPOS>BOND
     1    1    2 ar 
     2   18    1 ar 
     3    2   21 ar 
     4    3    5 ar 
     5    3   10 ar 
     6   17    3 1  
     7    4   13 1  
     8   14    4 2  
     9   15    4 1  
    10    5    6 ar 
    11    6    8 ar 
    12   12    7 1  
    13   13    7 2  
    14    9    8 ar 
    15   10    9 ar 
    16   10   11 1  
    17   11   15 2  
    18   11   16 1  
    19   14   12 1  
    20   16   14 1  
    21   17   18 1  
    22   18   19 ar 
    23   19   20 ar 
    24   20   21 ar 
    25    1   22 1  
    26    2   23 1  
    27    5   24 1  
    28    6   25 1  
    29    8   26 1  
    30    9   27 1  
    31   12   28 1  
    32   13   29 1  
    33   19   30 1  
    34   20   31 1  
    35   21   32 1  
@<TRIPOS>SUBSTRUCTURE
     1 6JJ         1

