### 
### Created by X-TOOL on Mon Sep 10 21:13:29 2018
### 

@<TRIPOS>MOLECULE
5j4n_ligand
   25    24     1     0     0
SMALL
GAST_HUCK


@<TRIPOS>ATOM
      1 N          15.0370   22.4470  -34.9460 N.4       1 AG2         0.2185
      2 CA         15.9670   22.4960  -33.8470 C.3       1 AG2        -0.0353
      3 CB         15.2420   22.6620  -32.5630 C.3       1 AG2        -0.0095
      4 CG         16.1600   23.3920  -31.5600 C.3       1 AG2        -0.0150
      5 CD         15.3400   23.7670  -30.2610 C.3       1 AG2         0.0627
      6 NE         16.2890   24.2610  -29.2640 N.pl3     1 AG2        -0.2723
      7 CZ         15.8490   24.7590  -27.9930 C.cat     1 AG2         0.2882
      8 NH1        14.5890   24.8000  -27.6680 N.pl3     1 AG2        -0.2849
      9 NH2        16.8520   25.2370  -27.0440 N.pl3     1 AG2        -0.2849
     10 H1         15.5436   22.3342  -35.8101 H         1 AG2         0.1994
     11 H2         14.5074   23.3041  -34.9765 H         1 AG2         0.1994
     12 H3         14.4092   21.6684  -34.8205 H         1 AG2         0.1994
     13 H4         16.6516   23.3452  -33.9891 H         1 AG2         0.0813
     14 H5         16.5444   21.5602  -33.8188 H         1 AG2         0.0813
     15 H6         14.9696   21.6743  -32.1626 H         1 AG2         0.0318
     16 H7         14.3303   23.2550  -32.7279 H         1 AG2         0.0318
     17 H8         16.5506   24.3100  -32.0233 H         1 AG2         0.0301
     18 H9         16.9980   22.7343  -31.2860 H         1 AG2         0.0301
     19 H10        14.8209   22.8771  -29.8756 H         1 AG2         0.0689
     20 H11        14.6026   24.5486  -30.4960 H         1 AG2         0.0689
     21 H12        17.2962   24.2511  -29.4794 H         1 AG2         0.2642
     22 H13        14.3063   25.1637  -26.7467 H         1 AG2         0.2615
     23 H14        13.8748   24.4687  -28.3321 H         1 AG2         0.2615
     24 H15        17.8511   25.2083  -27.2926 H         1 AG2         0.2615
     25 H16        16.5599   25.6026  -26.1264 H         1 AG2         0.2615
@<TRIPOS>BOND
     1    1    2 1  
     2    2    3 1  
     3    3    4 1  
     4    4    5 1  
     5    5    6 1  
     6    6    7 ar 
     7    7    8 ar 
     8    7    9 ar 
     9    1   10 1  
    10    1   11 1  
    11    1   12 1  
    12    2   13 1  
    13    2   14 1  
    14    3   15 1  
    15    3   16 1  
    16    4   17 1  
    17    4   18 1  
    18    5   19 1  
    19    5   20 1  
    20    6   21 1  
    21    8   22 1  
    22    8   23 1  
    23    9   24 1  
    24    9   25 1  
@<TRIPOS>SUBSTRUCTURE
     1 AG2         1

