### 
### Created by X-TOOL on Mon Sep 10 21:13:27 2018
### 

@<TRIPOS>MOLECULE
5j4v_ligand
   33    36     1     0     0
SMALL
GAST_HUCK


@<TRIPOS>ATOM
      1 C4        -39.5130    6.1210   24.8770 C.ar      1 6JH        -0.0269
      2 C5        -39.7710    4.7570   24.9180 C.ar      1 6JH        -0.0690
      3 C6        -39.6690    8.7960   23.5420 C.ar      1 6JH         0.2127
      4 N1        -39.4250   12.4840   24.2710 N.2       1 6JH        -0.2876
      5 C7        -39.3720   10.1850   23.4340 C.ar      1 6JH         0.0918
      6 C8        -38.6860   10.5800   22.2790 C.ar      1 6JH        -0.0304
      7 N2        -40.9270   14.4080   27.6940 N.ar      1 6JH        -0.3098
      8 C9        -38.3280    9.6550   21.3130 C.ar      1 6JH        -0.0382
      9 C10       -38.6660    8.3120   21.5130 C.ar      1 6JH         0.0064
     10 C11       -39.7190   11.2080   24.4110 C.2       1 6JH         0.1246
     11 C12       -39.8990   13.2150   25.3910 C.ar      1 6JH         0.0508
     12 C13       -39.7540   14.5900   25.5630 C.ar      1 6JH        -0.0290
     13 C14       -40.2880   15.1290   26.7330 C.ar      1 6JH        -0.0010
     14 C15       -41.0570   13.0780   27.5110 C.ar      1 6JH         0.0228
     15 C16       -40.5570   12.4450   26.3720 C.ar      1 6JH         0.0814
     16 S         -40.5970   10.7990   25.9180 S.3       1 6JH         0.0112
     17 N         -39.3240    7.8660   22.5970 N.ar      1 6JH        -0.2608
     18 O         -40.3300    8.3450   24.6320 O.3       1 6JH        -0.2310
     19 C3        -40.5860    6.9840   24.6730 C.ar      1 6JH         0.1235
     20 C2        -41.8930    6.5390   24.5100 C.ar      1 6JH        -0.0269
     21 C1        -42.1230    5.1670   24.5560 C.ar      1 6JH        -0.0690
     22 C         -41.0690    4.2820   24.7590 C.ar      1 6JH        -0.0717
     23 H1        -38.5058    6.5023   25.0002 H         1 6JH         0.0558
     24 H2        -38.9568    4.0588   25.0747 H         1 6JH         0.0592
     25 H3        -38.4317   11.6244   22.1392 H         1 6JH         0.0767
     26 H4        -37.7969    9.9648   20.4203 H         1 6JH         0.0635
     27 H5        -38.3821    7.5928   20.7532 H         1 6JH         0.0836
     28 H6        -39.2528   15.2078   24.8266 H         1 6JH         0.0665
     29 H7        -40.1870   16.1971   26.8878 H         1 6JH         0.0748
     30 H8        -41.5618   12.4867   28.2664 H         1 6JH         0.0777
     31 H9        -42.7065    7.2378   24.3522 H         1 6JH         0.0558
     32 H10       -43.1302    4.7855   24.4328 H         1 6JH         0.0592
     33 H11       -41.2602    3.2156   24.7935 H         1 6JH         0.0533
@<TRIPOS>BOND
     1    1    2 ar 
     2   19    1 ar 
     3    2   22 ar 
     4    3    5 ar 
     5    3   17 ar 
     6   18    3 1  
     7   10    4 2  
     8    4   11 1  
     9    5    6 ar 
    10    5   10 1  
    11    6    8 ar 
    12    7   13 ar 
    13   14    7 ar 
    14    9    8 ar 
    15   17    9 ar 
    16   10   16 1  
    17   11   12 ar 
    18   15   11 ar 
    19   12   13 ar 
    20   15   14 ar 
    21   16   15 1  
    22   18   19 1  
    23   19   20 ar 
    24   20   21 ar 
    25   21   22 ar 
    26    1   23 1  
    27    2   24 1  
    28    6   25 1  
    29    8   26 1  
    30    9   27 1  
    31   12   28 1  
    32   13   29 1  
    33   14   30 1  
    34   20   31 1  
    35   21   32 1  
    36   22   33 1  
@<TRIPOS>SUBSTRUCTURE
     1 6JH         1

