### 
### Created by X-TOOL on Mon Sep 10 21:13:27 2018
### 

@<TRIPOS>MOLECULE
5j4y_ligand
   41    44     1     0     0
SMALL
GAST_HUCK


@<TRIPOS>ATOM
      1 C4        -40.7470    5.6870   23.0910 C.ar      1 6JG        -0.0401
      2 C5        -39.7500    6.2680   23.8660 C.ar      1 6JG         0.1048
      3 C6        -39.0440    5.5010   24.7840 C.ar      1 6JG        -0.0401
      4 N1        -38.7930   11.7980   23.6210 N.2       1 6JG        -0.2917
      5 C7        -39.3380    4.1550   24.9280 C.ar      1 6JG        -0.0475
      6 C8        -38.7100    8.1780   22.7140 C.ar      1 6JG         0.1363
      7 N2        -40.3140   13.5410   27.1180 N.ar      1 6JG        -0.3104
      8 C9        -38.1800    7.3500   21.7260 C.ar      1 6JG        -0.0201
      9 C10       -37.4850    7.9090   20.6620 C.ar      1 6JG        -0.0634
     10 C11       -37.3340    9.2790   20.5700 C.ar      1 6JG        -0.0646
     11 C12       -37.8500   10.1060   21.5560 C.ar      1 6JG        -0.0490
     12 C13       -38.5320    9.5720   22.6580 C.ar      1 6JG         0.0638
     13 C14       -38.9850   10.5110   23.6990 C.2       1 6JG         0.1165
     14 C15       -39.2950   12.4470   24.7500 C.ar      1 6JG         0.0484
     15 O         -38.6260    1.2000   24.3110 O.2       1 6JG        -0.3864
     16 C1        -39.8520    1.1120   24.3460 C.2       1 6JG         0.1980
     17 C         -40.5520   -0.2120   24.4550 C.3       1 6JG         0.0311
     18 N         -40.6750    2.1940   24.2950 N.am      1 6JG        -0.2397
     19 C2        -40.3340    3.5630   24.1530 C.ar      1 6JG         0.0568
     20 C3        -41.0340    4.3400   23.2330 C.ar      1 6JG        -0.0475
     21 O1        -39.4660    7.6320   23.7580 O.3       1 6JG        -0.2590
     22 S         -39.8080    9.9580   25.1480 S.3       1 6JG         0.0094
     23 C19       -39.8850   11.6050   25.7020 C.ar      1 6JG         0.0803
     24 C18       -40.3830   12.2250   26.8760 C.ar      1 6JG         0.0221
     25 C17       -39.7470   14.3080   26.1820 C.ar      1 6JG        -0.0016
     26 C16       -39.2370   13.8220   24.9920 C.ar      1 6JG        -0.0299
     27 H1        -41.2988    6.2874   22.3768 H         1 6JG         0.0521
     28 H2        -38.2650    5.9545   25.3861 H         1 6JG         0.0521
     29 H3        -38.7899    3.5582   25.6481 H         1 6JG         0.0481
     30 H4        -38.3097    6.2756   21.7880 H         1 6JG         0.0568
     31 H5        -37.0587    7.2671   19.8996 H         1 6JG         0.0642
     32 H6        -36.8102    9.7090   19.7239 H         1 6JG         0.0547
     33 H7        -37.7244   11.1795   21.4736 H         1 6JG         0.0653
     34 H8        -41.6401   -0.0513   24.4694 H         1 6JG         0.0471
     35 H9        -40.2433   -0.7147   25.3835 H         1 6JG         0.0471
     36 H10       -40.2855   -0.8399   23.5920 H         1 6JG         0.0471
     37 H11       -41.6528    1.9973   24.3675 H         1 6JG         0.2225
     38 H12       -41.8084    3.8872   22.6244 H         1 6JG         0.0481
     39 H13       -40.8488   11.5946   27.6248 H         1 6JG         0.0775
     40 H14       -39.6831   15.3743   26.3665 H         1 6JG         0.0746
     41 H15       -38.8011   14.4941   24.2617 H         1 6JG         0.0661
@<TRIPOS>BOND
     1    2    1 ar 
     2    1   20 ar 
     3    2    3 ar 
     4   21    2 1  
     5    3    5 ar 
     6   13    4 2  
     7   14    4 1  
     8    5   19 ar 
     9    6    8 ar 
    10   12    6 ar 
    11    6   21 1  
    12   24    7 ar 
    13    7   25 ar 
    14    8    9 ar 
    15   10    9 ar 
    16   11   10 ar 
    17   12   11 ar 
    18   13   12 1  
    19   22   13 1  
    20   23   14 ar 
    21   14   26 ar 
    22   16   15 2  
    23   16   17 1  
    24   18   16 am 
    25   19   18 1  
    26   20   19 ar 
    27   23   22 1  
    28   23   24 ar 
    29   25   26 ar 
    30    1   27 1  
    31    3   28 1  
    32    5   29 1  
    33    8   30 1  
    34    9   31 1  
    35   10   32 1  
    36   11   33 1  
    37   17   34 1  
    38   17   35 1  
    39   17   36 1  
    40   18   37 1  
    41   20   38 1  
    42   24   39 1  
    43   25   40 1  
    44   26   41 1  
@<TRIPOS>SUBSTRUCTURE
     1 6JG         1

