### 
### Created by X-TOOL on Tue Oct 16 15:18:00 2018
### 

@<TRIPOS>MOLECULE
5j58_ligand
   45    48     1     0     0
SMALL
GAST_HUCK


@<TRIPOS>ATOM
      1 CL2       128.3700  123.6780   -7.2070 Cl        1 N56        -0.0725
      2 C16       127.4900  122.1750   -7.2520 C.ar      1 N56         0.0345
      3 C17       126.1120  122.2070   -7.2000 C.ar      1 N56        -0.0409
      4 C         125.4470  120.9990   -7.2370 C.ar      1 N56         0.0345
      5 CL        123.7060  120.9920   -7.1740 Cl        1 N56        -0.0725
      6 C15       128.1920  120.9920   -7.3380 C.ar      1 N56        -0.0413
      7 C2        127.5050  119.7850   -7.3740 C.ar      1 N56         0.0022
      8 C1        126.1170  119.7970   -7.3230 C.ar      1 N56        -0.0413
      9 C3        128.2560  118.4800   -7.4680 C.3       1 N56         0.0005
     10 N         128.3270  117.9830   -8.8470 N.4       1 N56         0.2427
     11 C4        129.4460  118.5520   -9.6210 C.3       1 N56         0.0002
     12 C8        129.4420  117.8600  -10.9730 C.3       1 N56         0.0796
     13 N1        130.5520  118.3430  -11.7950 N.pl3     1 N56        -0.2546
     14 C7        131.8580  118.0770  -11.1870 C.3       1 N56         0.0373
     15 C6        131.9400  118.7060   -9.8150 C.3       1 N56        -0.0268
     16 C5        130.7720  118.2580   -8.9450 C.3       1 N56        -0.0059
     17 C9        130.3830  119.4190  -12.5970 C.2       1 N56         0.2201
     18 N4        129.1920  120.0390  -12.7950 N.2       1 N56        -0.3065
     19 C14       129.4220  121.0860  -13.6700 C.ar      1 N56         0.0362
     20 C10       130.7680  121.0420  -13.9600 C.ar      1 N56         0.1441
     21 N2        131.3480  119.9940  -13.2800 N.pl3     1 N56        -0.2159
     22 C13       128.6110  122.0600  -14.2380 C.ar      1 N56        -0.0514
     23 C12       129.2000  122.9720  -15.0950 C.ar      1 N56        -0.0367
     24 C11       130.5590  122.8430  -15.3220 C.ar      1 N56         0.0976
     25 N3        131.3520  121.9200  -14.7910 N.ar      1 N56        -0.2732
     26 CL1       131.3430  123.9670  -16.3930 Cl        1 N56        -0.0503
     27 H1        125.5726  123.1449   -7.1327 H         1 N56         0.0571
     28 H2        129.2752  121.0033   -7.3774 H         1 N56         0.0565
     29 H3        125.5631  118.8656   -7.3507 H         1 N56         0.0565
     30 H4        127.7441  117.7304   -6.8466 H         1 N56         0.0979
     31 H5        129.2787  118.6312   -7.0923 H         1 N56         0.0979
     32 H6        127.4649  118.2156   -9.3147 H         1 N56         0.2031
     33 H7        128.4349  116.9812   -8.8199 H         1 N56         0.2031
     34 H8        129.3155  119.6380   -9.7374 H         1 N56         0.0871
     35 H9        128.4921  118.0714  -11.4859 H         1 N56         0.0586
     36 H10       129.5454  116.7749  -10.8254 H         1 N56         0.0586
     37 H11       132.6477  118.4983  -11.8263 H         1 N56         0.0529
     38 H12       132.0006  116.9901  -11.0962 H         1 N56         0.0529
     39 H13       131.9142  119.8009   -9.9178 H         1 N56         0.0287
     40 H14       132.8832  118.4049   -9.3357 H         1 N56         0.0287
     41 H15       130.8519  117.1758   -8.7652 H         1 N56         0.0321
     42 H16       130.8127  118.7932   -7.9849 H         1 N56         0.0321
     43 H17       132.3396  119.7163  -13.3022 H         1 N56         0.2346
     44 H18       127.5507  122.1040  -14.0168 H         1 N56         0.0637
     45 H19       128.6207  123.7558  -15.5695 H         1 N56         0.0582
@<TRIPOS>BOND
     1    1    2 1  
     2    2    3 ar 
     3    2    6 ar 
     4    3    4 ar 
     5    4    5 1  
     6    4    8 ar 
     7    6    7 ar 
     8    7    8 ar 
     9    7    9 1  
    10    9   10 1  
    11   10   11 1  
    12   11   12 1  
    13   11   16 1  
    14   12   13 1  
    15   13   14 1  
    16   13   17 1  
    17   14   15 1  
    18   15   16 1  
    19   17   18 2  
    20   17   21 1  
    21   18   19 1  
    22   19   20 ar 
    23   19   22 ar 
    24   20   21 1  
    25   20   25 ar 
    26   22   23 ar 
    27   23   24 ar 
    28   24   25 ar 
    29   24   26 1  
    30    3   27 1  
    31    6   28 1  
    32    8   29 1  
    33    9   30 1  
    34    9   31 1  
    35   10   32 1  
    36   10   33 1  
    37   11   34 1  
    38   12   35 1  
    39   12   36 1  
    40   14   37 1  
    41   14   38 1  
    42   15   39 1  
    43   15   40 1  
    44   16   41 1  
    45   16   42 1  
    46   21   43 1  
    47   22   44 1  
    48   23   45 1  
@<TRIPOS>SUBSTRUCTURE
     1 N56         1

