### 
### Created by X-TOOL on Tue Oct 16 15:17:52 2018
### 

@<TRIPOS>MOLECULE
5j59_ligand
   41    43     1     0     0
SMALL
GAST_HUCK


@<TRIPOS>ATOM
      1 CL2       -45.0120   17.8460   16.5520 Cl        1 N93        -0.0506
      2 C14       -44.1940   16.7920   15.4540 C.ar      1 N93         0.0948
      3 C13       -42.8570   16.9440   15.2570 C.ar      1 N93        -0.0346
      4 C12       -42.2410   16.0590   14.4020 C.ar      1 N93        -0.0269
      5 N3        -44.9470   15.8690   14.8910 N.ar      1 N93        -0.2989
      6 C15       -44.3020   15.0340   14.0800 C.ar      1 N93         0.0759
      7 C11       -43.0070   15.0660   13.8000 C.ar      1 N93         0.0987
      8 N2        -42.6880   14.1580   12.8170 N.pl3     1 N93        -0.2234
      9 N4        -44.8380   14.0900   13.2620 N.2       1 N93        -0.2958
     10 C10       -43.8290   13.5930   12.5240 C.2       1 N93         0.2215
     11 N         -44.0460   12.6470   11.6560 N.pl3     1 N93        -0.2568
     12 C         -45.3720   12.0880   11.4920 C.3       1 N93         0.0263
     13 C1        -42.9710   12.0500   10.8660 C.3       1 N93         0.0769
     14 C2        -42.8280   12.5720    9.4510 C.3       1 N93        -0.0108
     15 N1        -41.6760   11.9200    8.8190 N.4       1 N93         0.2405
     16 C3        -41.4120   12.3410    7.4360 C.3       1 N93         0.0002
     17 C4        -40.6190   13.6200    7.3010 C.ar      1 N93         0.0022
     18 C9        -41.2960   14.8170    7.1690 C.ar      1 N93        -0.0413
     19 C8        -40.5910   15.9860    7.0720 C.ar      1 N93         0.0345
     20 CL1       -41.4560   17.4610    6.9370 Cl        1 N93        -0.0725
     21 C7        -39.2210   16.0260    7.0840 C.ar      1 N93        -0.0409
     22 C6        -38.5610   14.8330    7.1900 C.ar      1 N93         0.0345
     23 CL        -36.8220   14.8420    7.1160 Cl        1 N93        -0.0725
     24 C5        -39.2280   13.6330    7.3090 C.ar      1 N93        -0.0413
     25 H1        -42.2994   17.7301   15.7532 H         1 N93         0.0584
     26 H2        -41.1784   16.1343   14.2013 H         1 N93         0.0653
     27 H3        -41.7627   13.9675   12.4065 H         1 N93         0.2331
     28 H4        -45.3477   11.3078   10.7169 H         1 N93         0.0494
     29 H5        -46.0702   12.8827   11.1905 H         1 N93         0.0494
     30 H6        -45.7051   11.6489   12.4439 H         1 N93         0.0494
     31 H7        -43.1543   10.9669   10.8097 H         1 N93         0.0583
     32 H8        -42.0226   12.2346   11.3917 H         1 N93         0.0583
     33 H9        -42.6702   13.6604    9.4729 H         1 N93         0.0835
     34 H10       -43.7402   12.3451    8.8796 H         1 N93         0.0835
     35 H11       -41.8400   10.9254    8.8181 H         1 N93         0.2028
     36 H12       -40.8578   12.1252    9.3708 H         1 N93         0.2028
     37 H13       -42.3791   12.4837    6.9317 H         1 N93         0.0979
     38 H14       -40.8523   11.5374    6.9351 H         1 N93         0.0979
     39 H15       -42.3796   14.8302    7.1424 H         1 N93         0.0565
     40 H16       -38.6830   16.9644    7.0124 H         1 N93         0.0571
     41 H17       -38.6734   12.7069    7.4080 H         1 N93         0.0565
@<TRIPOS>BOND
     1    1    2 1  
     2    2    3 ar 
     3    2    5 ar 
     4    3    4 ar 
     5    4    7 ar 
     6    5    6 ar 
     7    6    7 ar 
     8    6    9 1  
     9    7    8 1  
    10    8   10 1  
    11    9   10 2  
    12   10   11 1  
    13   11   12 1  
    14   11   13 1  
    15   13   14 1  
    16   14   15 1  
    17   15   16 1  
    18   16   17 1  
    19   17   18 ar 
    20   17   24 ar 
    21   18   19 ar 
    22   19   20 1  
    23   19   21 ar 
    24   21   22 ar 
    25   22   23 1  
    26   22   24 ar 
    27    3   25 1  
    28    4   26 1  
    29    8   27 1  
    30   12   28 1  
    31   12   29 1  
    32   12   30 1  
    33   13   31 1  
    34   13   32 1  
    35   14   33 1  
    36   14   34 1  
    37   15   35 1  
    38   15   36 1  
    39   16   37 1  
    40   16   38 1  
    41   18   39 1  
    42   21   40 1  
    43   24   41 1  
@<TRIPOS>SUBSTRUCTURE
     1 N93         1

