### 
### Created by X-TOOL on Mon Sep 10 21:13:28 2018
### 

@<TRIPOS>MOLECULE
5j5d_ligand
   21    20     1     0     0
SMALL
GAST_HUCK


@<TRIPOS>ATOM
      1 OAA        88.1060   95.0960  113.0810 O.co2     1 6GT        -0.5690
      2 CAJ        88.5190   96.2520  112.8640 C.2       1 6GT         0.0348
      3 OAD        88.1570   97.2260  113.5530 O.co2     1 6GT        -0.5690
      4 CAH        89.4930   96.4860  111.7310 C.3       1 6GT         0.0002
      5 CAF        90.4960   97.5620  112.1410 C.3       1 6GT        -0.0413
      6 CAG        91.8290   97.4040  111.4140 C.3       1 6GT        -0.0501
      7 CAI        91.9150   98.1860  110.1040 C.3       1 6GT        -0.0413
      8 CAL        92.5110   97.2760  109.0620 C.3       1 6GT         0.0002
      9 CAK        91.8520   96.8940  107.9620 C.2       1 6GT         0.0348
     10 OAB        92.4250   96.1270  107.1610 O.co2     1 6GT        -0.5690
     11 OAE        90.6880   97.3050  107.7390 O.co2     1 6GT        -0.5690
     12 H1         88.9441   96.8171  110.8371 H         1 6GT         0.0430
     13 H2         90.0280   95.5512  111.5075 H         1 6GT         0.0430
     14 H3         90.6713   97.4905  113.2246 H         1 6GT         0.0283
     15 H4         90.0755   98.5499  111.9019 H         1 6GT         0.0283
     16 H5         91.9779   96.3372  111.1911 H         1 6GT         0.0267
     17 H6         92.6309   97.7548  112.0803 H         1 6GT         0.0267
     18 H7         92.5546   99.0708  110.2378 H         1 6GT         0.0283
     19 H8         90.9095   98.5043  109.7916 H         1 6GT         0.0283
     20 H9         92.7823   96.3494  109.5891 H         1 6GT         0.0430
     21 H10        93.4239   97.7777  108.7087 H         1 6GT         0.0430
@<TRIPOS>BOND
     1    1    2 ar 
     2    2    3 ar 
     3    2    4 1  
     4    4    5 1  
     5    5    6 1  
     6    6    7 1  
     7    7    8 1  
     8    8    9 1  
     9    9   10 ar 
    10    9   11 ar 
    11    4   12 1  
    12    4   13 1  
    13    5   14 1  
    14    5   15 1  
    15    6   16 1  
    16    6   17 1  
    17    7   18 1  
    18    7   19 1  
    19    8   20 1  
    20    8   21 1  
@<TRIPOS>SUBSTRUCTURE
     1 6GT         1

