### 
### Created by X-TOOL on Mon Sep 10 21:13:26 2018
### 

@<TRIPOS>MOLECULE
5j5r_ligand
   52    55     1     0     0
SMALL
GAST_HUCK


@<TRIPOS>ATOM
      1 C10       132.0840   13.4000    4.9410 C.3       1 6G1         0.0510
      2 N12       131.2910   15.6740    5.5270 N.am      1 6G1        -0.2300
      3 C13       132.7130   15.9700    5.6440 C.3       1 6G1         0.0501
      4 C20       130.4500   19.1070    4.2110 C.ar      1 6G1        -0.0294
      5 C21       130.6030   20.1910    3.3120 C.ar      1 6G1         0.0077
      6 C24       128.2080   18.7040    3.3450 C.ar      1 6G1         0.0110
      7 C26       126.7680   16.9130    4.1820 C.ar      1 6G1        -0.0534
      8 O01       132.9390   12.4860    2.4940 O.2       1 6G1        -0.3966
      9 C02       133.3830   13.5320    2.8350 C.2       1 6G1         0.1816
     10 C03       134.3770   14.3220    1.9270 C.3       1 6G1         0.0488
     11 C04       135.8130   14.0080    2.3550 C.3       1 6G1        -0.0332
     12 C05       136.8190   14.7320    1.4580 C.3       1 6G1        -0.0507
     13 C06       136.6060   14.3730    0.0170 C.3       1 6G1        -0.0528
     14 C07       135.1830   14.5810   -0.4510 C.3       1 6G1        -0.0507
     15 C08       134.1540   13.9220    0.4860 C.3       1 6G1        -0.0332
     16 N09       132.9970   14.0940    4.0850 N.am      1 6G1        -0.2699
     17 C11       131.0070   14.2660    5.5720 C.3       1 6G1         0.0501
     18 C14       133.4960   15.3510    4.5070 C.3       1 6G1         0.0510
     19 S15       130.2140   16.6940    6.3080 S.o2      1 6G1         0.0729
     20 O16       130.9590   17.7820    6.9130 O.2       1 6G1        -0.1499
     21 O17       129.5720   16.0090    7.4320 O.2       1 6G1        -0.1499
     22 C18       128.9810   17.2260    5.1330 C.ar      1 6G1         0.1236
     23 C19       129.2010   18.3350    4.2370 C.ar      1 6G1         0.0243
     24 N22       129.6100   20.5420    2.4440 N.ar      1 6G1        -0.2974
     25 C23       128.4120   19.8190    2.4280 C.ar      1 6G1         0.0199
     26 C25       126.9730   17.9780    3.3120 C.ar      1 6G1        -0.0451
     27 C27       127.7770   16.5370    5.0940 C.ar      1 6G1        -0.0287
     28 H1        132.6639   12.9334    5.7509 H         1 6G1         0.0538
     29 H2        131.5880   12.6179    4.3475 H         1 6G1         0.0538
     30 H3        133.0860   15.5676    6.5974 H         1 6G1         0.0498
     31 H4        132.8552   17.0606    5.6256 H         1 6G1         0.0498
     32 H5        131.2592   18.8459    4.8834 H         1 6G1         0.0716
     33 H6        131.5292   20.7542    3.3135 H         1 6G1         0.0775
     34 H7        125.8302   16.3698    4.1596 H         1 6G1         0.0645
     35 H8        134.1950   15.4013    2.0360 H         1 6G1         0.0538
     36 H9        135.9815   12.9234    2.2833 H         1 6G1         0.0292
     37 H10       135.9584   14.3336    3.3956 H         1 6G1         0.0292
     38 H11       137.8384   14.4437    1.7541 H         1 6G1         0.0267
     39 H12       136.6948   15.8180    1.5808 H         1 6G1         0.0267
     40 H13       136.8665   13.3132   -0.1203 H         1 6G1         0.0265
     41 H14       137.2702   14.9967   -0.5994 H         1 6G1         0.0265
     42 H15       135.0746   14.1466   -1.4558 H         1 6G1         0.0267
     43 H16       134.9799   15.6612   -0.4946 H         1 6G1         0.0267
     44 H17       133.1437   14.2327    0.1815 H         1 6G1         0.0292
     45 H18       134.2427   12.8289    0.4011 H         1 6G1         0.0292
     46 H19       130.8964   13.9686    6.6252 H         1 6G1         0.0498
     47 H20       130.0617   14.0863    5.0390 H         1 6G1         0.0498
     48 H21       134.5373   15.2178    4.8355 H         1 6G1         0.0538
     49 H22       133.4670   16.0406    3.6505 H         1 6G1         0.0538
     50 H23       127.6296   20.0900    1.7284 H         1 6G1         0.0870
     51 H24       126.1980   18.2593    2.6082 H         1 6G1         0.0659
     52 H25       127.6106   15.7048    5.7684 H         1 6G1         0.0675
@<TRIPOS>BOND
     1    1   16 1  
     2   17    1 1  
     3    2    3 1  
     4    2   17 1  
     5   19    2 am 
     6    3   18 1  
     7    4    5 ar 
     8   23    4 ar 
     9    5   24 ar 
    10   23    6 ar 
    11    6   25 ar 
    12    6   26 ar 
    13   26    7 ar 
    14    7   27 ar 
    15    9    8 2  
    16    9   10 1  
    17   16    9 am 
    18   10   11 1  
    19   10   15 1  
    20   11   12 1  
    21   12   13 1  
    22   14   13 1  
    23   15   14 1  
    24   18   16 1  
    25   19   20 2  
    26   19   21 2  
    27   22   19 1  
    28   22   23 ar 
    29   22   27 ar 
    30   24   25 ar 
    31    1   28 1  
    32    1   29 1  
    33    3   30 1  
    34    3   31 1  
    35    4   32 1  
    36    5   33 1  
    37    7   34 1  
    38   10   35 1  
    39   11   36 1  
    40   11   37 1  
    41   12   38 1  
    42   12   39 1  
    43   13   40 1  
    44   13   41 1  
    45   14   42 1  
    46   14   43 1  
    47   15   44 1  
    48   15   45 1  
    49   17   46 1  
    50   17   47 1  
    51   18   48 1  
    52   18   49 1  
    53   25   50 1  
    54   26   51 1  
    55   27   52 1  
@<TRIPOS>SUBSTRUCTURE
     1 6G1         1

