### 
### Created by X-TOOL on Mon Sep 10 21:13:27 2018
### 

@<TRIPOS>MOLECULE
5j5t_ligand
   48    51     1     0     0
SMALL
GAST_HUCK


@<TRIPOS>ATOM
      1 C1         20.1890   -9.0500   15.3710 C.ar      1 6G2         0.1396
      2 C2         17.9350   -8.7470   14.7120 C.ar      1 6G2        -0.0105
      3 C3         18.3330   -8.4620   13.4100 C.ar      1 6G2        -0.0099
      4 C11        13.7470   -6.1240   10.3840 C.3       1 6G2         0.0073
      5 C12        19.6850   -8.4880   13.0770 C.ar      1 6G2        -0.0207
      6 C13        20.6110   -8.7760   14.0760 C.ar      1 6G2         0.1383
      7 C14        22.3280   -8.5530   12.5110 C.3       1 6G2         0.1102
      8 C15        23.6970   -8.7620   12.3630 C.ar      1 6G2         0.0069
      9 C16        24.3380   -8.3960   11.1840 C.ar      1 6G2        -0.0299
     10 N2         18.8890   -9.0360   15.6950 N.ar      1 6G2        -0.2972
     11 N1         21.1400   -9.3210   16.2620 N.pl3     1 6G2        -0.3252
     12 C8         12.9950   -8.0890   11.6810 C.3       1 6G2         0.0073
     13 C4         17.4120   -8.1940   12.4870 C.2       1 6G2         0.0432
     14 N3         16.5450   -7.6400   10.4970 N.2       1 6G2        -0.3186
     15 C7         14.0130   -7.5930   10.6670 C.3       1 6G2         0.0398
     16 C6         15.4230   -7.7790   11.2110 C.2       1 6G2         0.0967
     17 C5         17.6630   -7.8680   11.2150 C.2       1 6G2        -0.0192
     18 N4         11.3470   -6.4700   10.8220 N.4       1 6G2         0.2273
     19 C9         11.6020   -7.8900   11.1070 C.3       1 6G2        -0.0307
     20 N5         26.4380   -9.1940   12.0740 N.ar      1 6G2        -0.3066
     21 C10        12.3330   -5.9800    9.8440 C.3       1 6G2        -0.0307
     22 S1         15.7920   -8.1920   12.7480 S.3       1 6G2         0.0004
     23 O1         21.9570   -8.8300   13.8670 O.3       1 6G2        -0.3015
     24 C17        25.7050   -8.6080   11.0360 C.ar      1 6G2         0.0031
     25 C18        25.7900   -9.5630   13.2580 C.ar      1 6G2         0.0031
     26 C19        24.4230   -9.3470   13.3950 C.ar      1 6G2        -0.0299
     27 H1         16.8813   -8.7453   14.9667 H         1 6G2         0.0668
     28 H2         14.4671   -5.7542    9.6392 H         1 6G2         0.0352
     29 H3         13.8494   -5.5436   11.3128 H         1 6G2         0.0352
     30 H4         20.0093   -8.2884   12.0621 H         1 6G2         0.0585
     31 H5         21.7775   -9.2228   11.8340 H         1 6G2         0.0803
     32 H6         22.0864   -7.5075   12.2689 H         1 6G2         0.0803
     33 H7         23.7708   -7.9443   10.3782 H         1 6G2         0.0652
     34 H8         20.8865   -9.5318   17.2378 H         1 6G2         0.1737
     35 H9         22.1294   -9.3200   15.9757 H         1 6G2         0.1737
     36 H10        13.0953   -7.5186   12.6162 H         1 6G2         0.0352
     37 H11        13.1633   -9.1571   11.8830 H         1 6G2         0.0352
     38 H12        13.9089   -8.1676    9.7348 H         1 6G2         0.0564
     39 H13        18.6676   -7.7942   10.8012 H         1 6G2         0.0569
     40 H14        11.4256   -5.9370   11.6740 H         1 6G2         0.2013
     41 H15        10.4184   -6.3647   10.4442 H         1 6G2         0.2013
     42 H16        10.8588   -8.2501   11.8336 H         1 6G2         0.0816
     43 H17        11.5117   -8.4659   10.1741 H         1 6G2         0.0816
     44 H18        12.2404   -6.5629    8.9157 H         1 6G2         0.0816
     45 H19        12.1342   -4.9191    9.6322 H         1 6G2         0.0816
     46 H20        26.2021   -8.3193   10.1170 H         1 6G2         0.0803
     47 H21        26.3522  -10.0161   14.0665 H         1 6G2         0.0803
     48 H22        23.9207   -9.6361   14.3110 H         1 6G2         0.0652
@<TRIPOS>BOND
     1    6    1 ar 
     2   10    1 ar 
     3    1   11 1  
     4    3    2 ar 
     5    2   10 ar 
     6    3    5 ar 
     7   13    3 1  
     8   15    4 1  
     9    4   21 1  
    10    5    6 ar 
    11    6   23 1  
    12    7    8 1  
    13   23    7 1  
    14    8    9 ar 
    15    8   26 ar 
    16    9   24 ar 
    17   15   12 1  
    18   12   19 1  
    19   17   13 2  
    20   13   22 1  
    21   16   14 2  
    22   14   17 1  
    23   15   16 1  
    24   16   22 1  
    25   19   18 1  
    26   18   21 1  
    27   24   20 ar 
    28   20   25 ar 
    29   25   26 ar 
    30    2   27 1  
    31    4   28 1  
    32    4   29 1  
    33    5   30 1  
    34    7   31 1  
    35    7   32 1  
    36    9   33 1  
    37   11   34 1  
    38   11   35 1  
    39   12   36 1  
    40   12   37 1  
    41   15   38 1  
    42   17   39 1  
    43   18   40 1  
    44   18   41 1  
    45   19   42 1  
    46   19   43 1  
    47   21   44 1  
    48   21   45 1  
    49   24   46 1  
    50   25   47 1  
    51   26   48 1  
@<TRIPOS>SUBSTRUCTURE
     1 6G2         1

