### 
### Created by X-TOOL on Wed Jan  1 15:39:34 2020
### 

@<TRIPOS>MOLECULE
5j64_ligand
   31    33     1     0     0
SMALL
GAST_HUCK


@<TRIPOS>ATOM
      1 C1         -1.5020   11.8960   22.6250 C.ar      1 6G7         0.0801
      2 C2         -2.7760   11.5690   23.1120 C.ar      1 6G7        -0.0038
      3 C3         -2.8820   10.7870   24.2410 C.ar      1 6G7         0.0933
      4 C9         -1.8020    9.4500   26.0460 C.2       1 6G7         0.1636
      5 C12        -1.5450    7.6380   27.3300 C.2       1 6G7         0.3444
      6 C14        -0.2950    7.5730   25.2080 C.ar      1 6G7         0.1297
      7 C15         1.0200    7.4080   25.5890 C.ar      1 6G7         0.1589
      8 C16         1.9510    6.8630   24.7070 C.ar      1 6G7        -0.0387
      9 C19        -0.7190    7.1920   23.9420 C.ar      1 6G7        -0.0354
     10 C4         -1.7370   10.3590   24.9110 C.ar      1 6G7         0.0418
     11 C5         -0.4680   10.6830   24.4140 C.ar      1 6G7        -0.0666
     12 C6         -0.3610   11.4700   23.2840 C.ar      1 6G7        -0.0431
     13 O7         -1.3740   12.6040   21.4730 O.3       1 6G7        -0.3352
     14 O8         -4.1130   10.4730   24.7470 O.3       1 6G7        -0.3330
     15 N10        -2.5640    9.6300   27.0970 N.2       1 6G7        -0.2023
     16 N11        -2.3710    8.5030   27.9270 N.am      1 6G7        -0.1732
     17 N13        -1.1610    8.1970   26.1510 N.am      1 6G7        -0.1440
     18 C17         1.5330    6.4620   23.4330 C.ar      1 6G7        -0.0767
     19 C18         0.2030    6.6220   23.0770 C.ar      1 6G7        -0.0766
     20 O20        -1.1910    6.5610   27.7820 O.2       1 6G7        -0.3936
     21 F21         1.3790    7.7530   26.8410 F         1 6G7        -0.1910
     22 H1         -3.6656   11.9270   22.6065 H         1 6G7         0.0463
     23 H2          2.9874    6.7509   25.0043 H         1 6G7         0.0568
     24 H3         -1.7488    7.3370   23.6362 H         1 6G7         0.0517
     25 H4          0.4231   10.3189   24.9124 H         1 6G7         0.0563
     26 H5          0.6169   11.7544   22.9127 H         1 6G7         0.0459
     27 H6         -2.2363   12.8240   21.1403 H         1 6G7         0.2485
     28 H7         -4.7873   10.8324   24.1824 H         1 6G7         0.2495
     29 H8         -2.7894    8.3721   28.8258 H         1 6G7         0.2418
     30 H9          2.2405    6.0317   22.7334 H         1 6G7         0.0497
     31 H10        -0.1248    6.2932   22.0975 H         1 6G7         0.0549
@<TRIPOS>BOND
     1    2    1 ar 
     2    1   12 ar 
     3    1   13 1  
     4    3    2 ar 
     5   10    3 ar 
     6    3   14 1  
     7    4   10 1  
     8    4   15 2  
     9   17    4 1  
    10    5   16 am 
    11   17    5 am 
    12    5   20 2  
    13    6    7 ar 
    14    6    9 ar 
    15    6   17 1  
    16    7    8 ar 
    17    7   21 1  
    18    8   18 ar 
    19    9   19 ar 
    20   10   11 ar 
    21   11   12 ar 
    22   15   16 1  
    23   18   19 ar 
    24    2   22 1  
    25    8   23 1  
    26    9   24 1  
    27   11   25 1  
    28   12   26 1  
    29   13   27 1  
    30   14   28 1  
    31   16   29 1  
    32   18   30 1  
    33   19   31 1  
@<TRIPOS>SUBSTRUCTURE
     1 6G7         1

