### 
### Created by X-TOOL on Mon Sep 10 21:13:33 2018
### 

@<TRIPOS>MOLECULE
5j6a_ligand
   65    68     1     0     0
SMALL
GAST_HUCK


@<TRIPOS>ATOM
      1 C01       -58.4970   11.1990    9.1860 C.ar      1 P46         0.0790
      2 C02       -59.0660   10.7830   10.3960 C.ar      1 P46        -0.0041
      3 C04       -61.2210   10.3880    9.2360 C.ar      1 P46         0.1252
      4 C05       -60.5800   10.8370    8.0730 C.ar      1 P46        -0.0524
      5 O09       -63.3050   10.1050    7.8710 O.2       1 P46        -0.1529
      6 C11       -65.1180   10.8430   10.4930 C.3       1 P46         0.0597
      7 C12       -65.7360   12.2230   10.7270 C.ar      1 P46        -0.0320
      8 C13       -64.8130   13.1970   10.3520 C.ar      1 P46        -0.0335
      9 C14       -63.5400   12.5440    9.8590 C.3       1 P46         0.0569
     10 C15       -65.1460   14.5520   10.4720 C.ar      1 P46        -0.0765
     11 C03       -60.4190   10.4090   10.3900 C.ar      1 P46         0.1053
     12 C06       -59.2550   11.2330    8.0230 C.ar      1 P46        -0.0426
     13 S07       -62.8390    9.9520    9.2030 S.o2      1 P46         0.0668
     14 O08       -62.9890    8.7080    9.8740 O.2       1 P46        -0.1529
     15 N10       -63.7120   11.0510   10.0660 N.am      1 P46        -0.2185
     16 C16       -66.4130   14.9260   10.9720 C.ar      1 P46        -0.0578
     17 C17       -67.3510   13.9670   11.3550 C.ar      1 P46         0.0242
     18 C18       -66.9770   12.5790   11.2130 C.ar      1 P46        -0.0480
     19 N19       -68.6400   14.2730   11.8540 N.pl3     1 P46        -0.3248
     20 C20       -69.7080   13.3230   12.1220 C.3       1 P46         0.0375
     21 C21       -71.1500   13.9300   12.1910 C.3       1 P46        -0.0103
     22 C22       -72.2350   12.9420   12.5970 C.3       1 P46         0.0361
     23 N23       -71.9390   12.2750   13.8790 N.am      1 P46        -0.2683
     24 C24       -70.6500   11.5690   13.8060 C.3       1 P46         0.0361
     25 C25       -69.5210   12.5310   13.4490 C.3       1 P46        -0.0103
     26 C26       -72.7870   12.3400   14.9920 C.2       1 P46         0.2293
     27 C27       -74.1690   13.1060   15.0340 C.3       1 P46         0.0818
     28 C28       -73.9820   14.6540   15.2480 C.3       1 P46         0.0972
     29 C29       -74.2300   15.4170   13.9640 C.2       1 P46         0.1813
     30 O30       -73.3280   15.9690   13.3380 O.2       1 P46        -0.3969
     31 N31       -75.5280   15.4780   13.4650 N.am      1 P46        -0.3006
     32 N32       -74.9760   12.5340   16.1020 N.4       1 P46         0.2396
     33 O33       -72.4280   11.7400   16.0140 O.2       1 P46        -0.3905
     34 O34       -61.0220    9.9920   11.5720 O.3       1 P46        -0.3340
     35 O35       -57.2010   11.5820    9.1470 O.3       1 P46        -0.3359
     36 H1        -58.4806   10.7508   11.3078 H         1 P46         0.0462
     37 H2        -61.1577   10.8764    7.1566 H         1 P46         0.0581
     38 H3        -65.6743   10.3106    9.7075 H         1 P46         0.0626
     39 H4        -65.1452   10.2566   11.4232 H         1 P46         0.0626
     40 H5        -62.6775   12.9103   10.4351 H         1 P46         0.0603
     41 H6        -63.3887   12.7645    8.7920 H         1 P46         0.0603
     42 H7        -64.4316   15.3136   10.1812 H         1 P46         0.0507
     43 H8        -58.8152   11.5649    7.0895 H         1 P46         0.0451
     44 H9        -66.6611   15.9776   11.0597 H         1 P46         0.0442
     45 H10       -67.6825   11.8050   11.4927 H         1 P46         0.0436
     46 H11       -68.8409   15.2648   12.0459 H         1 P46         0.1737
     47 H12       -69.6900   12.6024   11.2911 H         1 P46         0.0546
     48 H13       -71.4027   14.3277   11.1971 H         1 P46         0.0306
     49 H14       -71.1421   14.7508   12.9233 H         1 P46         0.0306
     50 H15       -72.3258   12.1756   11.8131 H         1 P46         0.0523
     51 H16       -73.1877   13.4835   12.6926 H         1 P46         0.0523
     52 H17       -70.7118   10.7852   13.0367 H         1 P46         0.0523
     53 H18       -70.4358   11.1089   14.7819 H         1 P46         0.0523
     54 H19       -69.4254   13.2595   14.2676 H         1 P46         0.0306
     55 H20       -68.5922   11.9475   13.3671 H         1 P46         0.0306
     56 H21       -74.6855   12.9522   14.0751 H         1 P46         0.1125
     57 H22       -72.9540   14.8479   15.5879 H         1 P46         0.0585
     58 H23       -74.6925   14.9990   16.0135 H         1 P46         0.0585
     59 H24       -75.7153   15.9763   12.6185 H         1 P46         0.1814
     60 H25       -76.2732   15.0235   13.9530 H         1 P46         0.1814
     61 H26       -75.0844   11.5438   15.9477 H         1 P46         0.2017
     62 H27       -75.8829   12.9740   16.1104 H         1 P46         0.2017
     63 H28       -74.5195   12.6880   16.9874 H         1 P46         0.2017
     64 H29       -60.3940   10.0462   12.2828 H         1 P46         0.2479
     65 H30       -56.8223   11.5027   10.0146 H         1 P46         0.2478
@<TRIPOS>BOND
     1    2    1 ar 
     2   12    1 ar 
     3    1   35 1  
     4   11    2 ar 
     5    3    4 ar 
     6    3   11 ar 
     7   13    3 1  
     8    4   12 ar 
     9   13    5 2  
    10    6    7 1  
    11   15    6 1  
    12    8    7 ar 
    13    7   18 ar 
    14    9    8 1  
    15    8   10 ar 
    16   15    9 1  
    17   10   16 ar 
    18   11   34 1  
    19   13   14 2  
    20   13   15 am 
    21   16   17 ar 
    22   17   18 ar 
    23   17   19 1  
    24   19   20 1  
    25   20   21 1  
    26   20   25 1  
    27   21   22 1  
    28   22   23 1  
    29   23   24 1  
    30   23   26 am 
    31   24   25 1  
    32   26   27 1  
    33   26   33 2  
    34   27   28 1  
    35   27   32 1  
    36   28   29 1  
    37   29   30 2  
    38   29   31 am 
    39    2   36 1  
    40    4   37 1  
    41    6   38 1  
    42    6   39 1  
    43    9   40 1  
    44    9   41 1  
    45   10   42 1  
    46   12   43 1  
    47   16   44 1  
    48   18   45 1  
    49   19   46 1  
    50   20   47 1  
    51   21   48 1  
    52   21   49 1  
    53   22   50 1  
    54   22   51 1  
    55   24   52 1  
    56   24   53 1  
    57   25   54 1  
    58   25   55 1  
    59   27   56 1  
    60   28   57 1  
    61   28   58 1  
    62   31   59 1  
    63   31   60 1  
    64   32   61 1  
    65   32   62 1  
    66   32   63 1  
    67   34   64 1  
    68   35   65 1  
@<TRIPOS>SUBSTRUCTURE
     1 P46         1

