### 
### Created by X-TOOL on Mon Sep 10 21:13:29 2018
### 

@<TRIPOS>MOLECULE
5j6d_ligand
   76    79     1     0     0
SMALL
GAST_HUCK


@<TRIPOS>ATOM
      1 N1        -16.8220   -3.0100   -8.8080 N.am      1 6H5        -0.2244
      2 C3        -20.3960   -5.5050   -6.1860 C.ar      1 6H5        -0.0312
      3 N2        -15.1530   -1.5430   -9.0750 N.pl3     1 6H5        -0.2542
      4 C4        -19.2450   -4.8240   -5.8190 C.ar      1 6H5        -0.0541
      5 C9        -15.0340   -2.2620  -11.8690 C.3       1 6H5         0.1175
      6 C8        -16.0150   -2.4190   -9.6100 C.cat     1 6H5         0.3291
      7 C7        -17.7490   -3.9390   -9.1620 C.2       1 6H5         0.2010
      8 C6        -18.6560   -4.4930   -8.1210 C.ar      1 6H5         0.0425
      9 C5        -18.3760   -4.3210   -6.7790 C.ar      1 6H5        -0.0485
     10 C10       -15.5650   -1.0920  -12.6550 C.ar      1 6H5         0.0530
     11 C12       -17.5510   -3.0590  -15.0110 C.ar      1 6H5         0.1051
     12 C13       -18.8870   -3.3890  -14.9100 C.ar      1 6H5        -0.0013
     13 C14       -19.5970   -3.8130  -16.0360 C.ar      1 6H5         0.0828
     14 C15       -21.4410   -5.2830  -16.5780 C.3       1 6H5         0.0591
     15 C16       -18.9540   -3.9010  -17.2620 C.ar      1 6H5        -0.0437
     16 C17       -17.6000   -3.5650  -17.3570 C.ar      1 6H5        -0.0783
     17 C20       -16.6110    0.9980  -14.1840 C.ar      1 6H5        -0.0876
     18 C22       -15.1750    0.2450  -12.3940 C.ar      1 6H5         0.0389
     19 C23       -12.8220    0.3660  -11.6730 C.3       1 6H5         0.0251
     20 C24       -11.9620    0.5710  -10.4330 C.3       1 6H5        -0.0335
     21 C28       -19.8370   -5.1520   -8.4980 C.ar      1 6H5        -0.0485
     22 C26       -13.7340    1.7690   -9.2460 C.3       1 6H5        -0.0335
     23 C25       -12.3140    1.8940   -9.8040 C.3       1 6H5        -0.0495
     24 C18       -16.8930   -3.1330  -16.2350 C.ar      1 6H5        -0.0400
     25 O4        -22.7380   -8.7500   -3.7020 O.co2     1 6H5        -0.5641
     26 C         -22.0120   -7.7340   -3.4840 C.2       1 6H5         0.0867
     27 O         -22.1420   -7.0510   -2.4410 O.co2     1 6H5        -0.5641
     28 C1        -20.9560   -7.3440   -4.4940 C.3       1 6H5         0.0384
     29 N         -20.7690   -8.3610   -5.5720 N.4       1 6H5         0.2342
     30 C2        -21.3460   -6.0110   -5.1270 C.3       1 6H5         0.0383
     31 C29       -20.6980   -5.6500   -7.5380 C.ar      1 6H5        -0.0541
     32 O3        -17.9090   -4.3100  -10.3290 O.2       1 6H5        -0.3881
     33 N3        -16.0110   -2.7170  -10.9120 N.pl3     1 6H5        -0.2340
     34 N4        -14.2460    0.6770  -11.4290 N.pl3     1 6H5        -0.3140
     35 C27       -14.7370    1.5740  -10.3760 C.3       1 6H5         0.0251
     36 C21       -15.6940    1.2650  -13.1760 C.ar      1 6H5        -0.0606
     37 C19       -17.0130   -0.3050  -14.4410 C.ar      1 6H5        -0.0477
     38 C11       -16.4870   -1.3560  -13.6680 C.ar      1 6H5         0.1105
     39 O1        -16.8630   -2.6560  -13.9020 O.3       1 6H5        -0.2678
     40 O2        -20.9110   -4.1450  -15.8940 O.3       1 6H5        -0.3239
     41 H1        -16.7646   -2.7669   -7.8397 H         1 6H5         0.1848
     42 H2        -14.4850   -1.0433   -9.6792 H         1 6H5         0.3199
     43 H3        -15.1586   -1.3695   -8.0597 H         1 6H5         0.3199
     44 H4        -19.0202   -4.6822   -4.7681 H         1 6H5         0.0570
     45 H5        -14.1219   -1.9552  -11.3361 H         1 6H5         0.0912
     46 H6        -14.7958   -3.0836  -12.5605 H         1 6H5         0.0912
     47 H7        -17.4788   -3.7939   -6.4754 H         1 6H5         0.0652
     48 H8        -19.3885   -3.3189  -13.9515 H         1 6H5         0.0470
     49 H9        -22.5100   -5.3883  -16.3408 H         1 6H5         0.0577
     50 H10       -20.9034   -6.1872  -16.2566 H         1 6H5         0.0577
     51 H11       -21.3176   -5.1491  -17.6628 H         1 6H5         0.0577
     52 H12       -19.4978   -4.2282  -18.1408 H         1 6H5         0.0455
     53 H13       -17.0944   -3.6411  -18.3129 H         1 6H5         0.0563
     54 H14       -17.0154    1.8126  -14.7739 H         1 6H5         0.0503
     55 H15       -12.7392   -0.6839  -11.9907 H         1 6H5         0.0510
     56 H16       -12.4494    1.0219  -12.4736 H         1 6H5         0.0510
     57 H17       -10.8993    0.5690  -10.7170 H         1 6H5         0.0284
     58 H18       -12.1512   -0.2405   -9.7149 H         1 6H5         0.0284
     59 H19       -20.0752   -5.2711   -9.5488 H         1 6H5         0.0652
     60 H20       -13.9869    2.6849   -8.6918 H         1 6H5         0.0284
     61 H21       -13.7813    0.9048   -8.5672 H         1 6H5         0.0284
     62 H22       -12.2755    2.6923  -10.5598 H         1 6H5         0.0266
     63 H23       -11.6091    2.1240   -8.9914 H         1 6H5         0.0266
     64 H24       -15.8472   -2.8591  -16.3152 H         1 6H5         0.0460
     65 H25       -19.9995   -7.2244   -3.9641 H         1 6H5         0.1050
     66 H26       -20.0560   -8.0459   -6.2111 H         1 6H5         0.2012
     67 H27       -21.6361   -8.4853   -6.0707 H         1 6H5         0.2012
     68 H28       -20.4886   -9.2380   -5.1617 H         1 6H5         0.2012
     69 H29       -22.3382   -6.1291   -5.5870 H         1 6H5         0.0510
     70 H30       -21.3996   -5.2567   -4.3282 H         1 6H5         0.0510
     71 H31       -21.6096   -6.1541   -7.8378 H         1 6H5         0.0570
     72 H32       -16.7684   -3.3217  -11.2608 H         1 6H5         0.3242
     73 H33       -14.9553    2.5545  -10.8243 H         1 6H5         0.0510
     74 H34       -15.6605    1.1490   -9.9558 H         1 6H5         0.0510
     75 H35       -15.3792    2.2869  -12.9979 H         1 6H5         0.0413
     76 H36       -17.7263   -0.5113  -15.2307 H         1 6H5         0.0427
@<TRIPOS>BOND
     1    6    1 ar 
     2    1    7 am 
     3    4    2 ar 
     4    2   30 1  
     5   31    2 ar 
     6    6    3 ar 
     7    9    4 ar 
     8   10    5 1  
     9    5   33 1  
    10   33    6 ar 
    11    7    8 1  
    12    7   32 2  
    13    8    9 ar 
    14    8   21 ar 
    15   10   18 ar 
    16   38   10 ar 
    17   11   12 ar 
    18   11   24 ar 
    19   39   11 1  
    20   12   13 ar 
    21   13   15 ar 
    22   13   40 1  
    23   40   14 1  
    24   16   15 ar 
    25   24   16 ar 
    26   17   36 ar 
    27   37   17 ar 
    28   18   34 1  
    29   18   36 ar 
    30   19   20 1  
    31   34   19 1  
    32   20   23 1  
    33   21   31 ar 
    34   22   23 1  
    35   35   22 1  
    36   26   25 ar 
    37   26   27 ar 
    38   28   26 1  
    39   28   29 1  
    40   30   28 1  
    41   34   35 1  
    42   38   37 ar 
    43   38   39 1  
    44    1   41 1  
    45    3   42 1  
    46    3   43 1  
    47    4   44 1  
    48    5   45 1  
    49    5   46 1  
    50    9   47 1  
    51   12   48 1  
    52   14   49 1  
    53   14   50 1  
    54   14   51 1  
    55   15   52 1  
    56   16   53 1  
    57   17   54 1  
    58   19   55 1  
    59   19   56 1  
    60   20   57 1  
    61   20   58 1  
    62   21   59 1  
    63   22   60 1  
    64   22   61 1  
    65   23   62 1  
    66   23   63 1  
    67   24   64 1  
    68   28   65 1  
    69   29   66 1  
    70   29   67 1  
    71   29   68 1  
    72   30   69 1  
    73   30   70 1  
    74   31   71 1  
    75   33   72 1  
    76   35   73 1  
    77   35   74 1  
    78   36   75 1  
    79   37   76 1  
@<TRIPOS>SUBSTRUCTURE
     1 6H5         1

