### 
### Created by X-TOOL on Wed Jan  1 15:39:34 2020
### 

@<TRIPOS>MOLECULE
5j6l_ligand
   50    52     1     0     0
SMALL
GAST_HUCK


@<TRIPOS>ATOM
      1 C1        -33.5650   -7.4340   24.6350 C.ar      1 6GC        -0.0354
      2 C2        -33.0660  -12.2080   23.1380 C.ar      1 6GC         0.1018
      3 C3        -31.7760  -11.8780   23.5970 C.ar      1 6GC         0.0028
      4 C7        -34.2090  -11.7660   23.8480 C.ar      1 6GC         0.0685
      5 C8        -32.6580   -9.8240   26.6690 C.2       1 6GC         0.1652
      6 C14       -33.0320   -8.1090   28.0150 C.2       1 6GC         0.3445
      7 C16       -34.1320   -7.9770   25.8030 C.ar      1 6GC         0.1298
      8 C19       -35.7430   -6.7690   23.8550 C.ar      1 6GC        -0.0767
      9 C20       -35.6160  -12.1450   23.5730 C.2       1 6GC         0.1944
     10 C24       -38.2210  -13.4310   25.2280 C.3       1 6GC        -0.0329
     11 C27       -39.7220  -15.0460   26.3570 C.3       1 6GC        -0.0652
     12 C4        -31.6190  -11.1360   24.7690 C.ar      1 6GC         0.0988
     13 C5        -32.7590  -10.6910   25.4740 C.ar      1 6GC         0.0483
     14 C6        -34.0320  -11.0380   25.0260 C.ar      1 6GC        -0.0457
     15 N9        -31.9660  -10.0570   27.7600 N.2       1 6GC        -0.2019
     16 N10       -33.3180   -8.6030   26.7860 N.am      1 6GC        -0.1438
     17 O11       -30.3880  -10.8200   25.2410 O.3       1 6GC        -0.3296
     18 O12       -33.2280  -12.9360   22.0190 O.3       1 6GC        -0.3298
     19 N13       -32.1960   -8.9860   28.6270 N.am      1 6GC        -0.1730
     20 O15       -33.4470   -7.0460   28.4770 O.2       1 6GC        -0.3936
     21 C17       -35.5250   -7.9130   25.9730 C.ar      1 6GC         0.1589
     22 C18       -36.3320   -7.3090   25.0040 C.ar      1 6GC        -0.0387
     23 N21       -36.0820  -13.3660   23.9900 N.am      1 6GC        -0.2787
     24 O22       -36.3960  -11.3110   23.1270 O.2       1 6GC        -0.3951
     25 C23       -37.5080  -13.7120   23.8880 C.3       1 6GC         0.0326
     26 C25       -34.3640   -6.8350   23.6640 C.ar      1 6GC        -0.0766
     27 C26       -35.1850  -14.4070   24.5200 C.3       1 6GC         0.0216
     28 C28       -39.6140  -14.0730   25.1920 C.3       1 6GC        -0.0541
     29 F29       -36.0790   -8.4300   27.0850 F         1 6GC        -0.1910
     30 H1        -32.4920   -7.4826   24.4891 H         1 6GC         0.0517
     31 H2        -30.9041  -12.2006   23.0396 H         1 6GC         0.0476
     32 H3        -36.3660   -6.2943   23.1056 H         1 6GC         0.0497
     33 H4        -38.3183  -12.3451   25.3743 H         1 6GC         0.0285
     34 H5        -37.6370  -13.8615   26.0548 H         1 6GC         0.0285
     35 H6        -40.7155  -15.5182   26.3494 H         1 6GC         0.0230
     36 H7        -39.5816  -14.5025   27.3030 H         1 6GC         0.0230
     37 H8        -38.9471  -15.8208   26.2607 H         1 6GC         0.0230
     38 H9        -34.8997  -10.7375   25.6020 H         1 6GC         0.0617
     39 H10       -29.7261  -11.1855   24.6658 H         1 6GC         0.2514
     40 H11       -32.3766  -13.1555   21.6594 H         1 6GC         0.2512
     41 H12       -31.8099   -8.8829   29.5437 H         1 6GC         0.2419
     42 H13       -37.4061   -7.2593   25.1417 H         1 6GC         0.0568
     43 H14       -37.9728  -13.1076   23.0951 H         1 6GC         0.0521
     44 H15       -37.6062  -14.7793   23.6408 H         1 6GC         0.0521
     45 H16       -33.9167   -6.4233   22.7665 H         1 6GC         0.0549
     46 H17       -34.1539  -14.0246   24.5448 H         1 6GC         0.0485
     47 H18       -35.2312  -15.2952   23.8727 H         1 6GC         0.0485
     48 H19       -35.4999  -14.6787   25.5383 H         1 6GC         0.0485
     49 H20       -39.7506  -14.6124   24.2431 H         1 6GC         0.0263
     50 H21       -40.3851  -13.2941   25.2853 H         1 6GC         0.0263
@<TRIPOS>BOND
     1    7    1 ar 
     2    1   26 ar 
     3    2    3 ar 
     4    4    2 ar 
     5    2   18 1  
     6    3   12 ar 
     7    9    4 1  
     8    4   14 ar 
     9   13    5 1  
    10    5   15 2  
    11    5   16 1  
    12   16    6 am 
    13    6   19 am 
    14    6   20 2  
    15   16    7 1  
    16    7   21 ar 
    17   22    8 ar 
    18   26    8 ar 
    19   23    9 am 
    20    9   24 2  
    21   25   10 1  
    22   10   28 1  
    23   28   11 1  
    24   13   12 ar 
    25   12   17 1  
    26   14   13 ar 
    27   15   19 1  
    28   21   22 ar 
    29   21   29 1  
    30   23   25 1  
    31   23   27 1  
    32    1   30 1  
    33    3   31 1  
    34    8   32 1  
    35   10   33 1  
    36   10   34 1  
    37   11   35 1  
    38   11   36 1  
    39   11   37 1  
    40   14   38 1  
    41   17   39 1  
    42   18   40 1  
    43   19   41 1  
    44   22   42 1  
    45   25   43 1  
    46   25   44 1  
    47   26   45 1  
    48   27   46 1  
    49   27   47 1  
    50   27   48 1  
    51   28   49 1  
    52   28   50 1  
@<TRIPOS>SUBSTRUCTURE
     1 6GC         1

