### 
### Created by X-TOOL on Wed Jan  1 15:39:34 2020
### 

@<TRIPOS>MOLECULE
5j6m_ligand
   48    51     1     0     0
SMALL
GAST_HUCK


@<TRIPOS>ATOM
      1 C1         -0.2450   37.5320   24.4310 C.ar      1 6FJ        -0.0354
      2 C2         -0.6040   32.5710   26.0520 C.ar      1 6FJ         0.1018
      3 C3         -1.8910   32.8650   25.5700 C.ar      1 6FJ         0.0028
      4 C7          0.5380   33.0390   25.3730 C.ar      1 6FJ         0.0687
      5 C8         -0.9880   34.9110   22.4970 C.2       1 6FJ         0.1652
      6 C14        -0.7570   36.6650   21.1770 C.2       1 6FJ         0.3445
      7 C16         0.3630   36.8340   23.3830 C.ar      1 6FJ         0.1298
      8 C19         1.9340   38.0720   25.3320 C.ar      1 6FJ        -0.0767
      9 C20         1.9350   32.7150   25.7370 C.2       1 6FJ         0.1964
     10 C24         4.4650   30.8890   24.2020 C.2       1 6FJ         0.1173
     11 C30         5.1130   29.7610   23.8380 C.2       1 6FJ        -0.0686
     12 C4         -2.0170   33.5910   24.3750 C.ar      1 6FJ         0.0988
     13 C5         -0.8720   34.0690   23.7060 C.ar      1 6FJ         0.0483
     14 C6          0.4040   33.7270   24.1670 C.ar      1 6FJ        -0.0457
     15 N9         -1.6350   34.6270   21.4050 N.2       1 6FJ        -0.2019
     16 N10        -0.4210   36.1750   22.3920 N.am      1 6FJ        -0.1438
     17 O11        -3.2440   33.8880   23.8630 O.3       1 6FJ        -0.3296
     18 O12        -0.4130   31.8990   27.2020 O.3       1 6FJ        -0.3298
     19 N13        -1.4900   35.7160   20.5320 N.am      1 6FJ        -0.1730
     20 O15        -0.4300   37.7690   20.7510 O.2       1 6FJ        -0.3936
     21 C17         1.7590   36.7530   23.3260 C.ar      1 6FJ         0.1589
     22 C18         2.5520   37.3580   24.3040 C.ar      1 6FJ        -0.0387
     23 N21         2.4490   31.4970   25.3730 N.am      1 6FJ        -0.2646
     24 O22         2.6340   33.6030   26.2250 O.2       1 6FJ        -0.3949
     25 C23         3.8760   31.1810   25.5660 C.3       1 6FJ         0.0957
     26 C25         0.5420   38.1440   25.4060 C.ar      1 6FJ        -0.0766
     27 C26         1.6170   30.4140   24.8290 C.3       1 6FJ         0.0239
     28 O27         4.3670   31.7010   23.1420 O.3       1 6FJ        -0.2667
     29 C28         4.9890   31.1090   22.0890 C.2       1 6FJ         0.0669
     30 C29         5.4690   29.9080   22.4670 C.2       1 6FJ        -0.0808
     31 F31         2.3160   36.0750   22.3020 F         1 6FJ        -0.1910
     32 H1         -1.3257   37.5972   24.4854 H         1 6FJ         0.0517
     33 H2         -2.7710   32.5370   26.1114 H         1 6FJ         0.0476
     34 H3          2.5393   38.5741   26.0780 H         1 6FJ         0.0497
     35 H4          5.3234   28.9016   24.4730 H         1 6FJ         0.0219
     36 H5          1.2823   33.9948   23.5910 H         1 6FJ         0.0617
     37 H6         -3.9168   33.5039   24.4129 H         1 6FJ         0.2514
     38 H7         -1.2541   31.6392   27.5591 H         1 6FJ         0.2512
     39 H8         -1.8581   35.7829   19.6046 H         1 6FJ         0.2419
     40 H9          3.6321   37.2742   24.2652 H         1 6FJ         0.0568
     41 H10         4.3922   32.0384   26.0225 H         1 6FJ         0.0715
     42 H11         3.9811   30.3006   26.2170 H         1 6FJ         0.0715
     43 H12         0.0713   38.6773   26.2240 H         1 6FJ         0.0549
     44 H13         0.5789   30.7639   24.7294 H         1 6FJ         0.0487
     45 H14         1.6491   29.5500   25.5090 H         1 6FJ         0.0487
     46 H15         2.0004   30.1178   23.8414 H         1 6FJ         0.0487
     47 H16         5.0848   31.5389   21.0930 H         1 6FJ         0.0854
     48 H17         6.0165   29.1963   21.8509 H         1 6FJ         0.0296
@<TRIPOS>BOND
     1    7    1 ar 
     2    1   26 ar 
     3    2    3 ar 
     4    4    2 ar 
     5    2   18 1  
     6    3   12 ar 
     7    9    4 1  
     8    4   14 ar 
     9   13    5 1  
    10    5   15 2  
    11    5   16 1  
    12   16    6 am 
    13    6   19 am 
    14    6   20 2  
    15   16    7 1  
    16    7   21 ar 
    17   22    8 ar 
    18   26    8 ar 
    19   23    9 am 
    20    9   24 2  
    21   10   11 2  
    22   25   10 1  
    23   10   28 1  
    24   11   30 1  
    25   13   12 ar 
    26   12   17 1  
    27   14   13 ar 
    28   15   19 1  
    29   21   22 ar 
    30   21   31 1  
    31   23   25 1  
    32   23   27 1  
    33   28   29 1  
    34   29   30 2  
    35    1   32 1  
    36    3   33 1  
    37    8   34 1  
    38   11   35 1  
    39   14   36 1  
    40   17   37 1  
    41   18   38 1  
    42   19   39 1  
    43   22   40 1  
    44   25   41 1  
    45   25   42 1  
    46   26   43 1  
    47   27   44 1  
    48   27   45 1  
    49   27   46 1  
    50   29   47 1  
    51   30   48 1  
@<TRIPOS>SUBSTRUCTURE
     1 6FJ         1

