### 
### Created by X-TOOL on Wed Jan  1 15:39:34 2020
### 

@<TRIPOS>MOLECULE
5j6n_ligand
   48    50     1     0     0
SMALL
GAST_HUCK


@<TRIPOS>ATOM
      1 C1         -0.8250   31.9980   26.5200 C.ar      1 6FF         0.1065
      2 C2         -2.0580   32.3060   25.9490 C.ar      1 6FF        -0.0018
      3 C3         -2.0970   33.0500   24.7870 C.ar      1 6FF         0.0934
      4 C9         -0.8870   34.3200   22.9760 C.2       1 6FF         0.1637
      5 C12        -0.5040   36.0520   21.6470 C.2       1 6FF         0.3444
      6 C14         0.5330   36.1810   23.8830 C.ar      1 6FF         0.1297
      7 C15         1.9290   36.1110   23.8460 C.ar      1 6FF         0.1589
      8 C16         2.6930   36.7200   24.8490 C.ar      1 6FF        -0.0387
      9 C19        -0.0930   36.8600   24.9390 C.ar      1 6FF        -0.0354
     10 C27         5.0070   29.2790   23.5890 C.3       1 6FF        -0.0638
     11 C4         -0.8910   33.4540   24.1670 C.ar      1 6FF         0.0436
     12 C5          0.3330   33.1360   24.7500 C.ar      1 6FF        -0.0400
     13 C6          0.3770   32.4560   25.9430 C.ar      1 6FF         0.1264
     14 O7         -0.8330   31.3220   27.6900 O.3       1 6FF        -0.3332
     15 O8         -3.3140   33.3500   24.2630 O.3       1 6FF        -0.3330
     16 N10        -1.5550   34.1000   21.8750 N.2       1 6FF        -0.2023
     17 N11        -1.3140   35.1670   21.0220 N.am      1 6FF        -0.1732
     18 N13        -0.2300   35.5520   22.8750 N.am      1 6FF        -0.1440
     19 C17         2.0580   37.3590   25.9160 C.ar      1 6FF        -0.0767
     20 C18         0.6680   37.4410   25.9590 C.ar      1 6FF        -0.0766
     21 O20        -0.1160   37.1190   21.1880 O.2       1 6FF        -0.3936
     22 S21         1.9820   32.0650   26.5810 S.o2      1 6FF         0.0640
     23 O22         2.8840   33.0170   25.9870 O.2       1 6FF        -0.1530
     24 O23         1.8180   32.0210   27.9970 O.2       1 6FF        -0.1530
     25 N24         2.2440   30.5870   25.8900 N.am      1 6FF        -0.2395
     26 C25         3.0750   30.4260   24.6660 C.3       1 6FF         0.0288
     27 C26         4.3640   29.6220   24.9320 C.3       1 6FF        -0.0387
     28 C28         1.5160   29.4500   26.4200 C.3       1 6FF         0.0179
     29 F29         2.5200   35.4980   22.7950 F         1 6FF        -0.1910
     30 H1         -2.9768   31.9650   26.4123 H         1 6FF         0.0464
     31 H2          3.7755   36.6955   24.7973 H         1 6FF         0.0568
     32 H3         -1.1741   36.9350   24.9648 H         1 6FF         0.0517
     33 H4          5.9293   28.7045   23.7602 H         1 6FF         0.0230
     34 H5          5.2479   30.2072   23.0501 H         1 6FF         0.0230
     35 H6          4.3068   28.6784   22.9899 H         1 6FF         0.0230
     36 H7          1.2554   33.4263   24.2602 H         1 6FF         0.0583
     37 H8         -1.7273   31.0972   27.9184 H         1 6FF         0.2486
     38 H9         -3.9947   32.9935   24.8216 H         1 6FF         0.2495
     39 H10        -1.6793   35.2658   20.0964 H         1 6FF         0.2418
     40 H11         2.6492   37.7931   26.7142 H         1 6FF         0.0497
     41 H12         0.1781   37.9529   26.7794 H         1 6FF         0.0549
     42 H13         3.3514   31.4232   24.2930 H         1 6FF         0.0478
     43 H14         2.4820   29.9004   23.9030 H         1 6FF         0.0478
     44 H15         5.0600   30.2251   25.5334 H         1 6FF         0.0278
     45 H16         4.1189   28.6963   25.4733 H         1 6FF         0.0278
     46 H17         1.7944   28.5439   25.8619 H         1 6FF         0.0442
     47 H18         0.4351   29.6263   26.3171 H         1 6FF         0.0442
     48 H19         1.7664   29.3173   27.4829 H         1 6FF         0.0442
@<TRIPOS>BOND
     1    1    2 ar 
     2   13    1 ar 
     3    1   14 1  
     4    2    3 ar 
     5   11    3 ar 
     6    3   15 1  
     7   11    4 1  
     8    4   16 2  
     9    4   18 1  
    10    5   17 am 
    11   18    5 am 
    12    5   21 2  
    13    6    7 ar 
    14    6    9 ar 
    15   18    6 1  
    16    7    8 ar 
    17    7   29 1  
    18    8   19 ar 
    19    9   20 ar 
    20   27   10 1  
    21   12   11 ar 
    22   13   12 ar 
    23   22   13 1  
    24   16   17 1  
    25   20   19 ar 
    26   22   23 2  
    27   22   24 2  
    28   25   22 am 
    29   26   25 1  
    30   25   28 1  
    31   26   27 1  
    32    2   30 1  
    33    8   31 1  
    34    9   32 1  
    35   10   33 1  
    36   10   34 1  
    37   10   35 1  
    38   12   36 1  
    39   14   37 1  
    40   15   38 1  
    41   17   39 1  
    42   19   40 1  
    43   20   41 1  
    44   26   42 1  
    45   26   43 1  
    46   27   44 1  
    47   27   45 1  
    48   28   46 1  
    49   28   47 1  
    50   28   48 1  
@<TRIPOS>SUBSTRUCTURE
     1 6FF         1

