### 
### Created by X-TOOL on Mon Sep 10 21:13:33 2018
### 

@<TRIPOS>MOLECULE
5j6s_ligand
   40    41     1     0     0
SMALL
GAST_HUCK


@<TRIPOS>ATOM
      1 O10        93.8560    4.0980   66.2730 O.2       1 6GA        -0.3931
      2 C9         92.7990    3.6320   66.6860 C.2       1 6GA         0.2022
      3 C11        91.4710    4.2280   66.2540 C.3       1 6GA         0.1477
      4 C12        91.6180    4.9220   64.9330 C.2       1 6GA         0.2232
      5 O15        91.8250    4.2750   63.9290 O.2       1 6GA        -0.3931
      6 C16        90.3580    3.1830   66.0930 C.3       1 6GA         0.0157
      7 C17        89.0110    3.6370   66.6390 C.ar      1 6GA        -0.0422
      8 C18        88.7300    4.9710   66.8790 C.ar      1 6GA        -0.0617
      9 C19        87.4830    5.3380   67.3880 C.ar      1 6GA        -0.0349
     10 C22        88.0130    2.6990   66.9020 C.ar      1 6GA        -0.0617
     11 C21        86.7610    3.0600   67.4120 C.ar      1 6GA        -0.0349
     12 C20        86.4900    4.3980   67.6580 C.ar      1 6GA         0.1248
     13 F29        85.2920    4.7810   68.1540 F         1 6GA        -0.1893
     14 N8         92.7970    2.6520   67.4900 N.am      1 6GA        -0.2733
     15 C1         93.9720    1.9410   68.0020 C.3       1 6GA         0.0646
     16 C2         93.4890    0.8130   68.8780 C.ar      1 6GA        -0.0210
     17 C3         94.3490    0.2370   69.8020 C.ar      1 6GA        -0.0584
     18 C4         93.8770   -0.7940   70.6080 C.ar      1 6GA        -0.0685
     19 C5         92.5520   -1.2300   70.4960 C.ar      1 6GA        -0.0687
     20 C6         91.6900   -0.6410   69.5740 C.ar      1 6GA        -0.0685
     21 C7         92.1660    0.3800   68.7640 C.ar      1 6GA        -0.0584
     22 N1         91.5450    6.2430   64.8820 N.am      1 6GA        -0.1619
     23 O2         91.7590    6.8770   63.6530 O.3       1 6GA        -0.2716
     24 H1         91.1610    4.9582   67.0160 H         1 6GA         0.0796
     25 H2         90.6592    2.2693   66.6264 H         1 6GA         0.0470
     26 H3         90.2419    2.9609   65.0219 H         1 6GA         0.0470
     27 H4         89.4767    5.7291   66.6721 H         1 6GA         0.0547
     28 H5         87.2809    6.3857   67.5790 H         1 6GA         0.0587
     29 H6         88.2145    1.6524   66.7042 H         1 6GA         0.0547
     30 H7         86.0116    2.3029   67.6125 H         1 6GA         0.0587
     31 H8         91.9041    2.3318   67.8067 H         1 6GA         0.1879
     32 H9         94.5975    2.6287   68.5900 H         1 6GA         0.0683
     33 H10        94.5588    1.5375   67.1637 H         1 6GA         0.0683
     34 H11        95.3716    0.5845   69.8943 H         1 6GA         0.0557
     35 H12        94.5394   -1.2623   71.3270 H         1 6GA         0.0599
     36 H13        92.1939   -2.0319   71.1314 H         1 6GA         0.0559
     37 H14        90.6623   -0.9754   69.4905 H         1 6GA         0.0599
     38 H15        91.5075    0.8442   68.0387 H         1 6GA         0.0557
     39 H16        91.3415    6.7758   65.7034 H         1 6GA         0.2218
     40 H17        91.1141    6.5736   63.0249 H         1 6GA         0.2490
@<TRIPOS>BOND
     1    1    2 2  
     2    2    3 1  
     3    2   14 am 
     4    3    4 1  
     5    3    6 1  
     6    4    5 2  
     7    4   22 am 
     8    6    7 1  
     9    7    8 ar 
    10    7   10 ar 
    11    8    9 ar 
    12    9   12 ar 
    13   10   11 ar 
    14   11   12 ar 
    15   12   13 1  
    16   14   15 1  
    17   15   16 1  
    18   16   17 ar 
    19   16   21 ar 
    20   17   18 ar 
    21   18   19 ar 
    22   19   20 ar 
    23   20   21 ar 
    24   22   23 1  
    25    3   24 1  
    26    6   25 1  
    27    6   26 1  
    28    8   27 1  
    29    9   28 1  
    30   10   29 1  
    31   11   30 1  
    32   14   31 1  
    33   15   32 1  
    34   15   33 1  
    35   17   34 1  
    36   18   35 1  
    37   19   36 1  
    38   20   37 1  
    39   21   38 1  
    40   22   39 1  
    41   23   40 1  
@<TRIPOS>SUBSTRUCTURE
     1 6GA         1

