### 
### Created by X-TOOL on Mon Sep 10 21:13:32 2018
### 

@<TRIPOS>MOLECULE
5j71_ligand
   51    54     1     0     0
SMALL
GAST_HUCK


@<TRIPOS>ATOM
      1 C26        11.7980    3.2180  -35.4270 C.ar      1 P35        -0.0524
      2 C21        17.5910    2.6120  -37.8840 C.ar      1 P35        -0.0765
      3 C10        16.3330    0.5760  -38.1420 C.ar      1 P35        -0.0320
      4 C11        17.4350   -0.0810  -38.6280 C.ar      1 P35        -0.0480
      5 C12        18.6400    0.5920  -38.7400 C.ar      1 P35         0.0242
      6 C14        19.8650   -1.5020  -39.4580 C.3       1 P35         0.0434
      7 C15        21.3050   -1.9900  -39.3270 C.3       1 P35         0.0097
      8 C19        19.2980   -1.8570  -40.8070 C.3       1 P35         0.0097
      9 C20        18.6880    1.9300  -38.3710 C.ar      1 P35        -0.0578
     10 C18        19.4260   -3.3400  -41.1400 C.3       1 P35        -0.0316
     11 O01         9.9540    6.1760  -36.4830 O.3       1 P35        -0.3359
     12 C02        10.6100    4.9820  -36.5280 C.ar      1 P35         0.0790
     13 C03        10.7760    4.3070  -37.7290 C.ar      1 P35        -0.0041
     14 C04        11.4730    3.0960  -37.7740 C.ar      1 P35         0.1053
     15 O05        11.6410    2.4190  -38.9480 O.3       1 P35        -0.3340
     16 C06        12.0320    2.4970  -36.5910 C.ar      1 P35         0.1252
     17 S07        12.8290    1.0290  -36.6220 S.o2      1 P35         0.0668
     18 N08        14.1570    1.2280  -37.5490 N.am      1 P35        -0.2185
     19 C09        14.9380    0.0820  -37.9430 C.3       1 P35         0.0597
     20 N13        19.7870   -0.0830  -39.2210 N.pl3     1 P35        -0.3246
     21 C16        21.4340   -3.4650  -39.6630 C.3       1 P35        -0.0316
     22 N17        20.8350   -3.8410  -40.9730 N.4       1 P35         0.2271
     23 C22        16.3700    1.9360  -37.7610 C.ar      1 P35        -0.0335
     24 C23        15.0480    2.3540  -37.2800 C.3       1 P35         0.0569
     25 O24        13.2270    0.7090  -35.2500 O.2       1 P35        -0.1529
     26 O25        12.0840   -0.0140  -37.2880 O.2       1 P35        -0.1529
     27 C27        11.1490    4.4050  -35.3700 C.ar      1 P35        -0.0426
     28 H1         12.1618    2.7995  -34.4956 H         1 P35         0.0581
     29 H2         17.6731    3.6552  -37.6009 H         1 P35         0.0507
     30 H3         17.3628   -1.1216  -38.9228 H         1 P35         0.0436
     31 H4         19.2613   -2.0095  -38.6912 H         1 P35         0.0549
     32 H5         21.6424   -1.8299  -38.2923 H         1 P35         0.0339
     33 H6         21.9407   -1.4117  -40.0136 H         1 P35         0.0339
     34 H7         19.8331   -1.2787  -41.5746 H         1 P35         0.0339
     35 H8         18.2320   -1.5862  -40.8207 H         1 P35         0.0339
     36 H9         19.6274    2.4618  -38.4697 H         1 P35         0.0442
     37 H10        19.1158   -3.4967  -42.1837 H         1 P35         0.0814
     38 H11        18.7654   -3.9114  -40.4714 H         1 P35         0.0814
     39 H12         9.0654    6.0599  -36.7984 H         1 P35         0.2478
     40 H13        10.3615    4.7224  -38.6404 H         1 P35         0.0462
     41 H14        12.1354    1.6242  -38.7859 H         1 P35         0.2479
     42 H15        14.9140   -0.6848  -37.1547 H         1 P35         0.0626
     43 H16        14.5466   -0.3423  -38.8794 H         1 P35         0.0626
     44 H17        20.6267    0.4808  -39.4157 H         1 P35         0.1737
     45 H18        20.9327   -4.0449  -38.8741 H         1 P35         0.0814
     46 H19        22.5031   -3.7229  -39.6845 H         1 P35         0.0814
     47 H20        21.4034   -3.4529  -41.7094 H         1 P35         0.2013
     48 H21        20.8295   -4.8463  -41.0471 H         1 P35         0.2013
     49 H22        15.0819    2.5675  -36.2015 H         1 P35         0.0603
     50 H23        14.7085    3.2498  -37.8206 H         1 P35         0.0603
     51 H24        11.0452    4.9144  -34.4188 H         1 P35         0.0451
@<TRIPOS>BOND
     1   16    1 ar 
     2    1   27 ar 
     3    2    9 ar 
     4   23    2 ar 
     5    3    4 ar 
     6   19    3 1  
     7    3   23 ar 
     8    4    5 ar 
     9    5    9 ar 
    10    5   20 1  
    11    6    7 1  
    12    6    8 1  
    13   20    6 1  
    14    7   21 1  
    15    8   10 1  
    16   10   22 1  
    17   12   11 1  
    18   13   12 ar 
    19   27   12 ar 
    20   14   13 ar 
    21   14   15 1  
    22   16   14 ar 
    23   17   16 1  
    24   18   17 am 
    25   17   25 2  
    26   17   26 2  
    27   18   19 1  
    28   18   24 1  
    29   21   22 1  
    30   23   24 1  
    31    1   28 1  
    32    2   29 1  
    33    4   30 1  
    34    6   31 1  
    35    7   32 1  
    36    7   33 1  
    37    8   34 1  
    38    8   35 1  
    39    9   36 1  
    40   10   37 1  
    41   10   38 1  
    42   11   39 1  
    43   13   40 1  
    44   15   41 1  
    45   19   42 1  
    46   19   43 1  
    47   20   44 1  
    48   21   45 1  
    49   21   46 1  
    50   22   47 1  
    51   22   48 1  
    52   24   49 1  
    53   24   50 1  
    54   27   51 1  
@<TRIPOS>SUBSTRUCTURE
     1 P35         1

