### 
### Created by X-TOOL on Mon Sep 10 21:13:29 2018
### 

@<TRIPOS>MOLECULE
5j75_ligand
   51    53     1     0     0
SMALL
GAST_HUCK


@<TRIPOS>ATOM
      1 O2          6.2300  -24.2170   95.7230 O.2       1 6GQ        -0.3951
      2 O1          2.6810  -22.3220   92.4670 O.2       1 6GQ        -0.1509
      3 N           3.1650  -24.1800   94.0550 N.am      1 6GQ        -0.2191
      4 C          -1.9540  -21.1060   96.9800 C.3       1 6GQ        -0.0311
      5 O           1.4390  -24.4600   92.3370 O.2       1 6GQ        -0.1509
      6 C8          4.2810  -23.3920   94.6090 C.3       1 6GQ         0.1184
      7 C5         -0.3520  -23.3450   94.3570 C.ar      1 6GQ        -0.0419
      8 C4          0.9160  -22.7960   94.2660 C.ar      1 6GQ         0.1015
      9 N3          9.2070  -26.1690   89.8330 N.ar      1 6GQ        -0.2853
     10 C2          0.3250  -21.1580   95.9030 C.ar      1 6GQ        -0.0588
     11 N1          6.2150  -24.4310   93.4810 N.am      1 6GQ        -0.2680
     12 C6         -1.2690  -22.7920   95.2350 C.ar      1 6GQ        -0.0588
     13 C9          5.6600  -24.0510   94.6540 C.2       1 6GQ         0.1975
     14 C7          3.0460  -25.5660   94.5180 C.3       1 6GQ         0.0207
     15 S           2.0730  -23.4420   93.1100 S.o2      1 6GQ         0.0693
     16 C3          1.2570  -21.6930   95.0280 C.ar      1 6GQ        -0.0419
     17 C1         -0.9550  -21.6820   96.0060 C.ar      1 6GQ        -0.0460
     18 C13         5.6200  -24.2820   92.1460 C.3       1 6GQ         0.0540
     19 C12         6.6660  -23.8730   91.1670 C.3       1 6GQ         0.0501
     20 N2          7.6740  -24.9300   91.0300 N.pl3     1 6GQ        -0.2903
     21 C11         7.8830  -25.7470   92.2320 C.3       1 6GQ         0.0501
     22 C10         7.5750  -25.0000   93.5010 C.3       1 6GQ         0.0540
     23 C14         8.1470  -25.3630   89.8000 C.ar      1 6GQ         0.1137
     24 C18         9.6950  -26.6060   88.6640 C.ar      1 6GQ        -0.0042
     25 C17         9.1650  -26.2800   87.4400 C.ar      1 6GQ        -0.0480
     26 C16         8.0850  -25.4390   87.4070 C.ar      1 6GQ        -0.0542
     27 C15         7.5470  -24.9570   88.5880 C.ar      1 6GQ        -0.0160
     28 H1         -1.5117  -20.2360   97.4874 H         1 6GQ         0.0391
     29 H2         -2.2206  -21.8691   97.7261 H         1 6GQ         0.0391
     30 H3         -2.8576  -20.7931   96.4364 H         1 6GQ         0.0391
     31 H4          4.0121  -23.1210   95.6406 H         1 6GQ         0.0720
     32 H5          4.3723  -22.4792   94.0020 H         1 6GQ         0.0720
     33 H6         -0.6240  -24.1989   93.7472 H         1 6GQ         0.0619
     34 H7          0.6025  -20.3114   96.5205 H         1 6GQ         0.0557
     35 H8         -2.2540  -23.2362   95.3219 H         1 6GQ         0.0557
     36 H9          3.9156  -25.8201   95.1418 H         1 6GQ         0.0444
     37 H10         3.0078  -26.2406   93.6500 H         1 6GQ         0.0444
     38 H11         2.1254  -25.6772   95.1096 H         1 6GQ         0.0444
     39 H12         2.2433  -21.2516   94.9416 H         1 6GQ         0.0619
     40 H13         4.8332  -23.5141   92.1810 H         1 6GQ         0.0542
     41 H14         5.1824  -25.2413   91.8326 H         1 6GQ         0.0542
     42 H15         7.1521  -22.9511   91.5188 H         1 6GQ         0.0539
     43 H16         6.1966  -23.6899   90.1892 H         1 6GQ         0.0539
     44 H17         8.9341  -26.0700   92.2599 H         1 6GQ         0.0539
     45 H18         7.2294  -26.6299   92.1757 H         1 6GQ         0.0539
     46 H19         7.6597  -25.6921   94.3518 H         1 6GQ         0.0542
     47 H20         8.3019  -24.1829   93.6192 H         1 6GQ         0.0542
     48 H21        10.5615  -27.2569   88.6860 H         1 6GQ         0.0781
     49 H22         9.5898  -26.6774   86.5253 H         1 6GQ         0.0597
     50 H23         7.6513  -25.1507   86.4563 H         1 6GQ         0.0699
     51 H24         6.6929  -24.2896   88.5825 H         1 6GQ         0.0610
@<TRIPOS>BOND
     1   13    1 2  
     2   15    2 2  
     3    6    3 1  
     4    3   14 1  
     5    3   15 am 
     6   17    4 1  
     7   15    5 2  
     8   13    6 1  
     9    8    7 ar 
    10    7   12 ar 
    11   15    8 1  
    12    8   16 ar 
    13   23    9 ar 
    14    9   24 ar 
    15   16   10 ar 
    16   10   17 ar 
    17   11   13 am 
    18   18   11 1  
    19   11   22 1  
    20   12   17 ar 
    21   19   18 1  
    22   20   19 1  
    23   20   21 1  
    24   20   23 1  
    25   21   22 1  
    26   23   27 ar 
    27   24   25 ar 
    28   25   26 ar 
    29   26   27 ar 
    30    4   28 1  
    31    4   29 1  
    32    4   30 1  
    33    6   31 1  
    34    6   32 1  
    35    7   33 1  
    36   10   34 1  
    37   12   35 1  
    38   14   36 1  
    39   14   37 1  
    40   14   38 1  
    41   16   39 1  
    42   18   40 1  
    43   18   41 1  
    44   19   42 1  
    45   19   43 1  
    46   21   44 1  
    47   21   45 1  
    48   22   46 1  
    49   22   47 1  
    50   24   48 1  
    51   25   49 1  
    52   26   50 1  
    53   27   51 1  
@<TRIPOS>SUBSTRUCTURE
     1 6GQ         1

