### 
### Created by X-TOOL on Mon Sep 10 21:13:26 2018
### 

@<TRIPOS>MOLECULE
5j79_ligand
   39    41     1     0     0
SMALL
GAST_HUCK


@<TRIPOS>ATOM
      1 N1         49.4290   54.4070   22.2520 N.pl3     1 6GE        -0.2662
      2 C4         49.0780   58.0640   20.2620 C.ar      1 6GE        -0.0512
      3 C5         48.9630   57.9990   21.6480 C.ar      1 6GE         0.0713
      4 C6         49.0790   56.7720   22.2980 C.ar      1 6GE        -0.0163
      5 C7         49.3120   55.5940   21.5810 C.ar      1 6GE         0.0583
      6 C8         50.5400   53.6040   22.3990 C.ar      1 6GE         0.0898
      7 C10        52.8500   53.0310   21.9330 C.ar      1 6GE        -0.0099
      8 C13        50.4650   50.1480   24.8170 C.ar      1 6GE        -0.0348
      9 C15        49.3180   52.0600   23.9330 C.ar      1 6GE        -0.0218
     10 C17        48.1790   51.0150   27.1870 C.3       1 6GE         0.0594
     11 O3         46.7250   51.2010   25.1230 O.2       1 6GE        -0.1698
     12 S          47.8580   50.4710   25.6360 S.o2      1 6GE        -0.0060
     13 O2         47.7990   49.0370   25.6650 O.2       1 6GE        -0.1698
     14 C14        49.3180   50.9390   24.7190 C.ar      1 6GE         0.0906
     15 C12        51.6260   50.4900   24.1380 C.ar      1 6GE        -0.0439
     16 C16        50.4700   52.4310   23.2310 C.ar      1 6GE         0.0363
     17 C11        51.6520   51.6270   23.3450 C.ar      1 6GE         0.0320
     18 N2         52.8110   51.9300   22.7030 N.ar      1 6GE        -0.3204
     19 C9         51.7530   53.8770   21.7670 C.ar      1 6GE        -0.0135
     20 C2         49.4340   55.6510   20.1840 C.ar      1 6GE        -0.0317
     21 C1         49.6870   54.4220   19.3310 C.3       1 6GE        -0.0383
     22 O1         48.7310   59.1380   22.3680 O.3       1 6GE        -0.3404
     23 C3         49.3100   56.8920   19.5540 C.ar      1 6GE        -0.0777
     24 H1         48.5707   54.0675   22.7092 H         1 6GE         0.2153
     25 H2         48.9881   59.0124   19.7448 H         1 6GE         0.0432
     26 H3         48.9871   56.7298   23.3773 H         1 6GE         0.0440
     27 H4         53.7734   53.2720   21.4189 H         1 6GE         0.0803
     28 H5         50.4481   49.2552   25.4315 H         1 6GE         0.0663
     29 H6         48.4208   52.6632   23.8542 H         1 6GE         0.0676
     30 H7         48.2285   52.1139   27.1872 H         1 6GE         0.0468
     31 H8         49.1410   50.6046   27.5278 H         1 6GE         0.0468
     32 H9         47.3784   50.6839   27.8648 H         1 6GE         0.0468
     33 H10        52.5104   49.8697   24.2274 H         1 6GE         0.0613
     34 H11        51.8445   54.7564   21.1398 H         1 6GE         0.0554
     35 H12        49.7440   54.7158   18.2725 H         1 6GE         0.0349
     36 H13        48.8646   53.7045   19.4685 H         1 6GE         0.0349
     37 H14        50.6358   53.9547   19.6334 H         1 6GE         0.0349
     38 H15        48.6795   59.8799   21.7769 H         1 6GE         0.2456
     39 H16        49.3980   56.9417   18.4747 H         1 6GE         0.0500
@<TRIPOS>BOND
     1    1    5 1  
     2    6    1 1  
     3    3    2 ar 
     4    2   23 ar 
     5    4    3 ar 
     6    3   22 1  
     7    5    4 ar 
     8    5   20 ar 
     9   16    6 ar 
    10    6   19 ar 
    11    7   18 ar 
    12   19    7 ar 
    13   14    8 ar 
    14    8   15 ar 
    15   14    9 ar 
    16    9   16 ar 
    17   12   10 1  
    18   12   11 2  
    19   12   13 2  
    20   12   14 1  
    21   15   17 ar 
    22   16   17 ar 
    23   17   18 ar 
    24   20   21 1  
    25   20   23 ar 
    26    1   24 1  
    27    2   25 1  
    28    4   26 1  
    29    7   27 1  
    30    8   28 1  
    31    9   29 1  
    32   10   30 1  
    33   10   31 1  
    34   10   32 1  
    35   15   33 1  
    36   19   34 1  
    37   21   35 1  
    38   21   36 1  
    39   21   37 1  
    40   22   38 1  
    41   23   39 1  
@<TRIPOS>SUBSTRUCTURE
     1 6GE         1

