### 
### Created by X-TOOL on Mon Sep 10 21:13:27 2018
### 

@<TRIPOS>MOLECULE
5j7b_ligand
   47    50     1     0     0
SMALL
GAST_HUCK


@<TRIPOS>ATOM
      1 C10       -40.7370   38.0410   -4.5260 C.ar      1 6GD        -0.0432
      2 N12       -41.1940   35.8940   -3.5870 N.ar      1 6GD        -0.3173
      3 C13       -41.1080   35.0630   -2.5540 C.ar      1 6GD        -0.0067
      4 C15       -39.9640   36.6200   -1.1660 C.ar      1 6GD         0.1128
      5 C17       -39.3620   36.4260    1.2140 C.2       1 6GD         0.2608
      6 C20       -38.9470   34.8940    2.8050 C.ar      1 6GD        -0.0503
      7 C21       -38.4740   33.7140    3.3970 C.ar      1 6GD        -0.0670
      8 C22       -37.7880   32.7960    2.6170 C.ar      1 6GD        -0.0286
      9 C26       -38.7280   35.1390    1.4640 C.ar      1 6GD         0.0757
     10 C28       -39.4760   38.8810   -2.1780 C.ar      1 6GD        -0.0213
     11 C01       -39.5270   43.8710   -2.4300 C.3       1 6GD        -0.0401
     12 C02       -40.1650   42.4750   -2.4770 C.3       1 6GD         0.0844
     13 C03       -41.3820   42.4690   -3.3810 C.3       1 6GD        -0.0401
     14 C04       -40.5120   41.9810   -1.0710 C.3       1 6GD        -0.0401
     15 S05       -38.9320   41.3550   -3.2160 S.o2      1 6GD         0.0018
     16 O06       -37.8080   41.3050   -2.3240 O.2       1 6GD        -0.1690
     17 O07       -38.7190   41.7910   -4.5710 O.2       1 6GD        -0.1690
     18 C08       -39.6140   39.7280   -3.2710 C.ar      1 6GD         0.0916
     19 C09       -40.2220   39.3000   -4.4450 C.ar      1 6GD        -0.0345
     20 C11       -40.6470   37.1440   -3.4390 C.ar      1 6GD         0.0344
     21 C14       -40.5090   35.3660   -1.3430 C.ar      1 6GD        -0.0078
     22 N16       -39.3380   36.9890    0.0520 N.pl3     1 6GD        -0.1912
     23 N18       -39.8950   36.9180    2.3530 N.pl3     1 6GD        -0.2471
     24 N19       -39.6500   35.9890    3.2840 N.2       1 6GD        -0.4240
     25 C23       -37.5890   33.0800    1.2820 C.ar      1 6GD         0.1340
     26 F24       -36.9210   32.1790    0.5290 F         1 6GD        -0.1833
     27 C25       -38.0380   34.2400    0.6600 C.ar      1 6GD        -0.0060
     28 C27       -40.0080   37.5640   -2.2400 C.ar      1 6GD         0.0405
     29 H1        -41.2241   37.7225   -5.4405 H         1 6GD         0.0616
     30 H2        -41.5386   34.0747   -2.6676 H         1 6GD         0.0809
     31 H3        -38.6426   33.5223    4.4505 H         1 6GD         0.0603
     32 H4        -37.4155   31.8736    3.0476 H         1 6GD         0.0604
     33 H5        -38.9662   39.2221   -1.2842 H         1 6GD         0.0673
     34 H6        -40.2385   44.5846   -1.9889 H         1 6GD         0.0251
     35 H7        -39.2711   44.1918   -3.4506 H         1 6GD         0.0251
     36 H8        -38.6145   43.8367   -1.8168 H         1 6GD         0.0251
     37 H9        -42.1509   43.1368   -2.9652 H         1 6GD         0.0251
     38 H10       -41.7825   41.4468   -3.4500 H         1 6GD         0.0251
     39 H11       -41.0957   42.8191   -4.3837 H         1 6GD         0.0251
     40 H12       -41.2563   42.6534   -0.6194 H         1 6GD         0.0251
     41 H13       -39.6033   41.9709   -0.4512 H         1 6GD         0.0251
     42 H14       -40.9259   40.9637   -1.1315 H         1 6GD         0.0251
     43 H15       -40.2866   39.9678   -5.2965 H         1 6GD         0.0663
     44 H16       -40.4692   34.6302   -0.5480 H         1 6GD         0.0583
     45 H17       -38.7709   37.8473    0.0014 H         1 6GD         0.2495
     46 H18       -40.3848   37.8154    2.4781 H         1 6GD         0.2587
     47 H19       -37.8599   34.4319   -0.3919 H         1 6GD         0.0620
@<TRIPOS>BOND
     1    1   19 ar 
     2   20    1 ar 
     3    3    2 ar 
     4    2   20 ar 
     5   21    3 ar 
     6    4   21 ar 
     7    4   22 1  
     8   28    4 ar 
     9    5    9 2  
    10   22    5 1  
    11    5   23 1  
    12    6    7 ar 
    13    9    6 ar 
    14    6   24 2  
    15    7    8 ar 
    16    8   25 ar 
    17    9   27 ar 
    18   18   10 ar 
    19   10   28 ar 
    20   12   11 1  
    21   12   13 1  
    22   12   14 1  
    23   15   12 1  
    24   15   16 2  
    25   15   17 2  
    26   15   18 1  
    27   18   19 ar 
    28   20   28 ar 
    29   23   24 1  
    30   25   26 1  
    31   25   27 ar 
    32    1   29 1  
    33    3   30 1  
    34    7   31 1  
    35    8   32 1  
    36   10   33 1  
    37   11   34 1  
    38   11   35 1  
    39   11   36 1  
    40   13   37 1  
    41   13   38 1  
    42   13   39 1  
    43   14   40 1  
    44   14   41 1  
    45   14   42 1  
    46   19   43 1  
    47   21   44 1  
    48   22   45 1  
    49   23   46 1  
    50   27   47 1  
@<TRIPOS>SUBSTRUCTURE
     1 6GD         1

