### 
### Created by X-TOOL on Mon Sep 10 21:13:32 2018
### 

@<TRIPOS>MOLECULE
5j7f_ligand
   79    83     1     0     0
SMALL
GAST_HUCK


@<TRIPOS>ATOM
      1 O28        52.3700   14.5220   37.6990 O.co2     1 6GG        -0.5689
      2 C25        52.7950   13.5490   38.2720 C.2       1 6GG         0.0370
      3 O26        54.0640   13.5090   38.6510 O.co2     1 6GG        -0.5689
      4 C24        51.8840   12.3710   38.5300 C.3       1 6GG         0.0171
      5 C23        50.5780   12.5490   37.7750 C.3       1 6GG         0.0487
      6 C21        50.0810   11.2360   37.2320 C.2       1 6GG         0.1776
      7 O22        50.8610   10.3630   36.8680 O.2       1 6GG        -0.3970
      8 N20        48.7650   11.1420   37.1800 N.am      1 6GG        -0.2869
      9 C19        48.1370    9.9950   36.5900 C.3       1 6GG         0.0309
     10 C17        46.7810    9.7750   37.2340 C.3       1 6GG        -0.0327
     11 C16        46.1840    8.6160   36.4690 C.3       1 6GG        -0.0512
     12 C13        44.7510    8.3950   36.8710 C.3       1 6GG        -0.0506
     13 C12        44.2600    7.3110   35.9260 C.3       1 6GG        -0.0252
     14 C3         42.9720    6.7180   36.4190 C.3       1 6GG         0.0752
     15 O1         43.2310    6.1350   37.6690 O.3       1 6GG        -0.2774
     16 C60        42.2130    5.3450   38.2970 C.2       1 6GG         0.2851
     17 O2         41.1890    5.0640   37.7120 O.2       1 6GG        -0.3581
     18 C48        42.3750    4.9880   39.6780 C.2       1 6GG         0.1572
     19 N49        41.5480    4.2650   40.4340 N.pl3     1 6GG        -0.2639
     20 C46        41.9440    4.1940   41.7110 C.ar      1 6GG         0.0711
     21 C56        41.4560    3.6020   42.8390 C.ar      1 6GG        -0.0254
     22 C57        42.0970    3.6640   44.0230 C.ar      1 6GG         0.0290
     23 CL1        41.4890    2.8290   45.4780 Cl        1 6GG        -0.0770
     24 C44        43.4450    5.5000   40.5270 C.2       1 6GG         0.0359
     25 C45        43.2030    4.9570   41.8500 C.ar      1 6GG        -0.0035
     26 C59        43.8310    5.0110   43.0580 C.ar      1 6GG        -0.0685
     27 C58        43.2910    4.3990   44.1560 C.ar      1 6GG        -0.0615
     28 C14        44.6840    6.3120   40.2790 C.2       1 6GG         0.0842
     29 N13        45.7340    5.8440   39.6420 N.pl3     1 6GG        -0.2322
     30 C5         45.8740    4.5550   38.9300 C.3       1 6GG         0.0919
     31 C6         45.7880    3.3300   39.8310 C.ar      1 6GG        -0.0124
     32 C7         45.2470    2.1400   39.3140 C.ar      1 6GG        -0.0570
     33 C8         45.1500    1.0260   40.1360 C.ar      1 6GG        -0.0545
     34 C9         45.5910    1.1010   41.4090 C.ar      1 6GG         0.0330
     35 CL2        45.5290   -0.2850   42.4770 Cl        1 6GG        -0.0771
     36 C10        46.1150    2.2610   41.9730 C.ar      1 6GG        -0.0545
     37 C11        46.2360    3.3920   41.1500 C.ar      1 6GG        -0.0570
     38 C18        46.6880    6.8040   39.7290 C.2       1 6GG         0.1008
     39 N16        46.2830    7.8640   40.4660 N.2       1 6GG        -0.3186
     40 C15        45.0090    7.6270   40.8770 C.2       1 6GG         0.0276
     41 C37        44.1980    8.6050   41.5900 C.ar      1 6GG        -0.0329
     42 C38        42.8580    8.6830   41.3370 C.ar      1 6GG        -0.0635
     43 C39        42.0940    9.6830   41.9370 C.ar      1 6GG        -0.0333
     44 C40        42.7170   10.6070   42.7770 C.ar      1 6GG         0.1271
     45 F          41.9820   11.5460   43.3970 F         1 6GG        -0.1874
     46 C41        44.0730   10.5360   43.0350 C.ar      1 6GG        -0.0333
     47 C42        44.8080    9.5710   42.3730 C.ar      1 6GG        -0.0635
     48 H1         51.6751   12.3012   39.6077 H         1 6GG         0.0455
     49 H2         52.3774   11.4480   38.1916 H         1 6GG         0.0455
     50 H3         50.7387   13.2454   36.9389 H         1 6GG         0.0520
     51 H4         49.8222   12.9641   38.4579 H         1 6GG         0.0520
     52 H5         48.2007   11.8773   37.5554 H         1 6GG         0.1851
     53 H6         48.7676    9.1082   36.7507 H         1 6GG         0.0520
     54 H7         48.0076   10.1622   35.5105 H         1 6GG         0.0520
     55 H8         46.1525   10.6722   37.1339 H         1 6GG         0.0285
     56 H9         46.8923    9.5222   38.2987 H         1 6GG         0.0285
     57 H10        46.7634    7.7057   36.6826 H         1 6GG         0.0266
     58 H11        46.2272    8.8339   35.3917 H         1 6GG         0.0266
     59 H12        44.1642    9.3169   36.7453 H         1 6GG         0.0266
     60 H13        44.6867    8.0591   37.9165 H         1 6GG         0.0266
     61 H14        45.0200    6.5185   35.8601 H         1 6GG         0.0291
     62 H15        44.0980    7.7475   34.9294 H         1 6GG         0.0291
     63 H16        42.6158    5.9528   35.7136 H         1 6GG         0.0610
     64 H17        42.2104    7.5051   36.5216 H         1 6GG         0.0610
     65 H18        40.6966    3.8103   40.0744 H         1 6GG         0.2275
     66 H19        40.5180    3.0617   42.7809 H         1 6GG         0.0558
     67 H20        44.7697    5.5453   43.1502 H         1 6GG         0.0565
     68 H21        43.7784    4.4792   45.1209 H         1 6GG         0.0530
     69 H22        46.8516    4.5441   38.4258 H         1 6GG         0.0784
     70 H23        45.0732    4.4873   38.1789 H         1 6GG         0.0784
     71 H24        44.9094    2.0930   38.2850 H         1 6GG         0.0558
     72 H25        44.7236    0.1036   39.7586 H         1 6GG         0.0606
     73 H26        46.4194    2.2900   43.0130 H         1 6GG         0.0606
     74 H27        46.6738    4.3053   41.5365 H         1 6GG         0.0558
     75 H28        47.6678    6.7302   39.2595 H         1 6GG         0.1239
     76 H29        42.3891    7.9682   40.6705 H         1 6GG         0.0563
     77 H30        41.0274    9.7422   41.7530 H         1 6GG         0.0591
     78 H31        44.5452   11.2160   43.7348 H         1 6GG         0.0591
     79 H32        45.8878    9.5701   42.4688 H         1 6GG         0.0563
@<TRIPOS>BOND
     1    1    2 ar 
     2    2    3 ar 
     3    2    4 1  
     4    4    5 1  
     5    5    6 1  
     6    6    7 2  
     7    6    8 am 
     8    8    9 1  
     9    9   10 1  
    10   10   11 1  
    11   11   12 1  
    12   12   13 1  
    13   13   14 1  
    14   14   15 1  
    15   15   16 1  
    16   16   17 2  
    17   16   18 1  
    18   18   19 1  
    19   18   24 2  
    20   19   20 1  
    21   20   21 ar 
    22   20   25 ar 
    23   21   22 ar 
    24   22   23 1  
    25   22   27 ar 
    26   24   25 1  
    27   24   28 1  
    28   25   26 ar 
    29   26   27 ar 
    30   28   29 1  
    31   28   40 2  
    32   29   30 1  
    33   29   38 1  
    34   30   31 1  
    35   31   32 ar 
    36   31   37 ar 
    37   32   33 ar 
    38   33   34 ar 
    39   34   35 1  
    40   34   36 ar 
    41   36   37 ar 
    42   38   39 2  
    43   39   40 1  
    44   40   41 1  
    45   41   42 ar 
    46   41   47 ar 
    47   42   43 ar 
    48   43   44 ar 
    49   44   45 1  
    50   44   46 ar 
    51   46   47 ar 
    52    4   48 1  
    53    4   49 1  
    54    5   50 1  
    55    5   51 1  
    56    8   52 1  
    57    9   53 1  
    58    9   54 1  
    59   10   55 1  
    60   10   56 1  
    61   11   57 1  
    62   11   58 1  
    63   12   59 1  
    64   12   60 1  
    65   13   61 1  
    66   13   62 1  
    67   14   63 1  
    68   14   64 1  
    69   19   65 1  
    70   21   66 1  
    71   26   67 1  
    72   27   68 1  
    73   30   69 1  
    74   30   70 1  
    75   32   71 1  
    76   33   72 1  
    77   36   73 1  
    78   37   74 1  
    79   38   75 1  
    80   42   76 1  
    81   43   77 1  
    82   46   78 1  
    83   47   79 1  
@<TRIPOS>SUBSTRUCTURE
     1 6GG         1

