### 
### Created by X-TOOL on Mon Sep 10 21:13:33 2018
### 

@<TRIPOS>MOLECULE
5j7g_ligand
   79    83     1     0     0
SMALL
GAST_HUCK


@<TRIPOS>ATOM
      1 O28        54.1270   18.9170   -3.7980 O.co2     1 6GG        -0.5689
      2 C25        54.2540   18.4480   -2.7020 C.2       1 6GG         0.0370
      3 O26        55.3520   17.7450   -2.4540 O.co2     1 6GG        -0.5689
      4 C24        53.1590   18.6850   -1.6830 C.3       1 6GG         0.0171
      5 C23        52.5300   17.3410   -1.4800 C.3       1 6GG         0.0487
      6 C21        51.9400   17.1080   -0.1200 C.2       1 6GG         0.1776
      7 O22        52.6420   16.7510    0.8070 O.2       1 6GG        -0.3970
      8 N20        50.6200   17.1750   -0.0140 N.am      1 6GG        -0.2869
      9 C19        49.9820   16.7290    1.1830 C.3       1 6GG         0.0309
     10 C17        48.6140   17.3710    1.3110 C.3       1 6GG        -0.0327
     11 C16        47.8170   16.5660    2.3060 C.3       1 6GG        -0.0512
     12 C13        46.4660   17.1620    2.5950 C.3       1 6GG        -0.0506
     13 C12        45.7360   16.1660    3.4890 C.3       1 6GG        -0.0252
     14 C3         45.6950   16.5330    4.9350 C.3       1 6GG         0.0752
     15 O1         45.6950   17.9610    5.1580 O.3       1 6GG        -0.2774
     16 C60        44.7240   18.4490    5.9890 C.2       1 6GG         0.2851
     17 O2         43.7830   17.8360    6.4290 O.2       1 6GG        -0.3581
     18 C48        44.8380   19.8460    6.2950 C.2       1 6GG         0.1572
     19 N49        44.0120   20.5300    7.0440 N.pl3     1 6GG        -0.2639
     20 C46        44.4030   21.7980    7.1440 C.ar      1 6GG         0.0711
     21 C56        43.8490   22.8930    7.7830 C.ar      1 6GG        -0.0254
     22 C57        44.4390   24.0880    7.6270 C.ar      1 6GG         0.0290
     23 CL1        43.7460   25.4480    8.5390 Cl        1 6GG        -0.0770
     24 C44        45.8370   20.6970    5.7320 C.2       1 6GG         0.0359
     25 C45        45.5430   22.0090    6.2670 C.ar      1 6GG        -0.0035
     26 C59        46.1470   23.2190    6.1710 C.ar      1 6GG        -0.0685
     27 C58        45.5730   24.2810    6.8480 C.ar      1 6GG        -0.0615
     28 C14        47.0010   20.4380    4.8410 C.2       1 6GG         0.0842
     29 N13        48.1020   19.8540    5.2650 N.pl3     1 6GG        -0.2322
     30 C5         48.3460   19.1870    6.5270 C.3       1 6GG         0.0919
     31 C6         48.2630   20.0610    7.7350 C.ar      1 6GG        -0.0124
     32 C7         47.6850   19.5490    8.9020 C.ar      1 6GG        -0.0570
     33 C8         47.6880   20.3590   10.0500 C.ar      1 6GG        -0.0545
     34 C9         48.2530   21.6150    9.9860 C.ar      1 6GG         0.0330
     35 CL2        48.3070   22.7340   11.3820 Cl        1 6GG        -0.0771
     36 C10        48.8300   22.1130    8.8100 C.ar      1 6GG        -0.0545
     37 C11        48.8350   21.3000    7.7010 C.ar      1 6GG        -0.0570
     38 C18        48.9770   19.8890    4.2630 C.2       1 6GG         0.1008
     39 N16        48.5020   20.5860    3.2200 N.2       1 6GG        -0.3186
     40 C15        47.2490   20.9860    3.5140 C.2       1 6GG         0.0276
     41 C37        46.4170   21.6870    2.6000 C.ar      1 6GG        -0.0329
     42 C38        45.0500   21.4570    2.6190 C.ar      1 6GG        -0.0635
     43 C39        44.2460   22.0900    1.7410 C.ar      1 6GG        -0.0333
     44 C40        44.8490   22.9640    0.8550 C.ar      1 6GG         0.1271
     45 F          44.0530   23.5560   -0.0410 F         1 6GG        -0.1874
     46 C41        46.2220   23.1780    0.8340 C.ar      1 6GG        -0.0333
     47 C42        47.0380   22.5380    1.7070 C.ar      1 6GG        -0.0635
     48 H1         52.4209   19.4045   -2.0671 H         1 6GG         0.0455
     49 H2         53.5818   19.0616   -0.7399 H         1 6GG         0.0455
     50 H3         53.3010   16.5755   -1.6516 H         1 6GG         0.0520
     51 H4         51.7271   17.2258   -2.2230 H         1 6GG         0.0520
     52 H5         50.0735   17.5365   -0.7694 H         1 6GG         0.1851
     53 H6         50.5982   17.0085    2.0503 H         1 6GG         0.0520
     54 H7         49.8696   15.6353    1.1502 H         1 6GG         0.0520
     55 H8         48.1065   17.3676    0.3351 H         1 6GG         0.0285
     56 H9         48.7187   18.4068    1.6662 H         1 6GG         0.0285
     57 H10        48.3842   16.5102    3.2468 H         1 6GG         0.0266
     58 H11        47.6743   15.5524    1.9032 H         1 6GG         0.0266
     59 H12        45.9085   17.3118    1.6587 H         1 6GG         0.0266
     60 H13        46.5787   18.1259    3.1129 H         1 6GG         0.0266
     61 H14        46.2391   15.1921    3.3977 H         1 6GG         0.0291
     62 H15        44.7002   16.0788    3.1290 H         1 6GG         0.0291
     63 H16        46.5769   16.1013    5.4308 H         1 6GG         0.0610
     64 H17        44.7814   16.1096    5.3778 H         1 6GG         0.0610
     65 H18        43.1724   20.1398    7.4954 H         1 6GG         0.2275
     66 H19        42.9602   22.7881    8.3946 H         1 6GG         0.0558
     67 H20        47.0488   23.3502    5.5840 H         1 6GG         0.0565
     68 H21        46.0110   25.2695    6.7699 H         1 6GG         0.0530
     69 H22        49.3551   18.7505    6.4916 H         1 6GG         0.0784
     70 H23        47.6026   18.3837    6.6366 H         1 6GG         0.0784
     71 H24        47.2480   18.5571    8.9198 H         1 6GG         0.0558
     72 H25        47.2512   20.0006   10.9751 H         1 6GG         0.0606
     73 H26        49.2589   23.1079    8.7757 H         1 6GG         0.0606
     74 H27        49.3002   21.6482    6.7859 H         1 6GG         0.0558
     75 H28        49.9556   19.4118    4.2868 H         1 6GG         0.1239
     76 H29        44.6270   20.7674    3.3406 H         1 6GG         0.0563
     77 H30        43.1752   21.9214    1.7301 H         1 6GG         0.0591
     78 H31        46.6457   23.8652    0.1106 H         1 6GG         0.0591
     79 H32        48.1120   22.6851    1.7043 H         1 6GG         0.0563
@<TRIPOS>BOND
     1    1    2 ar 
     2    2    3 ar 
     3    2    4 1  
     4    4    5 1  
     5    5    6 1  
     6    6    7 2  
     7    6    8 am 
     8    8    9 1  
     9    9   10 1  
    10   10   11 1  
    11   11   12 1  
    12   12   13 1  
    13   13   14 1  
    14   14   15 1  
    15   15   16 1  
    16   16   17 2  
    17   16   18 1  
    18   18   19 1  
    19   18   24 2  
    20   19   20 1  
    21   20   21 ar 
    22   20   25 ar 
    23   21   22 ar 
    24   22   23 1  
    25   22   27 ar 
    26   24   25 1  
    27   24   28 1  
    28   25   26 ar 
    29   26   27 ar 
    30   28   29 1  
    31   28   40 2  
    32   29   30 1  
    33   29   38 1  
    34   30   31 1  
    35   31   32 ar 
    36   31   37 ar 
    37   32   33 ar 
    38   33   34 ar 
    39   34   35 1  
    40   34   36 ar 
    41   36   37 ar 
    42   38   39 2  
    43   39   40 1  
    44   40   41 1  
    45   41   42 ar 
    46   41   47 ar 
    47   42   43 ar 
    48   43   44 ar 
    49   44   45 1  
    50   44   46 ar 
    51   46   47 ar 
    52    4   48 1  
    53    4   49 1  
    54    5   50 1  
    55    5   51 1  
    56    8   52 1  
    57    9   53 1  
    58    9   54 1  
    59   10   55 1  
    60   10   56 1  
    61   11   57 1  
    62   11   58 1  
    63   12   59 1  
    64   12   60 1  
    65   13   61 1  
    66   13   62 1  
    67   14   63 1  
    68   14   64 1  
    69   19   65 1  
    70   21   66 1  
    71   26   67 1  
    72   27   68 1  
    73   30   69 1  
    74   30   70 1  
    75   32   71 1  
    76   33   72 1  
    77   36   73 1  
    78   37   74 1  
    79   38   75 1  
    80   42   76 1  
    81   43   77 1  
    82   46   78 1  
    83   47   79 1  
@<TRIPOS>SUBSTRUCTURE
     1 6GG         1

