### 
### Created by X-TOOL on Mon Sep 10 21:13:27 2018
### 

@<TRIPOS>MOLECULE
5j7p_ligand
   32    34     1     0     0
SMALL
GAST_HUCK


@<TRIPOS>ATOM
      1 C2         42.0680  -22.2970   11.9220 C.ar      1 6H1        -0.0037
      2 C3         41.2060  -21.2260   11.8530 C.ar      1 6H1        -0.0271
      3 C4         41.6840  -19.9390   11.8230 C.ar      1 6H1        -0.0376
      4 C1         41.4730  -23.6580   11.9810 C.3       1 6H1         0.0206
      5 C5         43.0330  -19.7430   11.8770 C.ar      1 6H1         0.0371
      6 C6         43.9270  -20.8110   11.9370 C.ar      1 6H1        -0.0376
      7 C8         41.8780  -24.3870   13.2360 C.ar      1 6H1        -0.0154
      8 C7         43.4390  -22.1020   11.9790 C.ar      1 6H1        -0.0271
      9 C9         43.0650  -25.1410   13.3030 C.ar      1 6H1         0.0737
     10 C10        43.4440  -25.8210   14.4670 C.ar      1 6H1        -0.0176
     11 C11        42.6350  -25.7210   15.5790 C.ar      1 6H1         0.1093
     12 C12        41.4970  -24.9750   15.5410 C.ar      1 6H1         0.1068
     13 C13        41.0910  -24.2890   14.3840 C.ar      1 6H1        -0.0439
     14 O14        40.8470  -25.0190   16.7410 O.3       1 6H1        -0.2998
     15 O15        42.8090  -26.2860   16.8130 O.3       1 6H1        -0.2975
     16 C16        41.6830  -25.8760   17.5780 C.3       1 6H1         0.1834
     17 O17        43.8950  -25.2570   12.2270 O.3       1 6H1        -0.3456
     18 C18        43.5380  -18.3840   11.8270 C.3       1 6H1         0.3667
     19 F19        42.7780  -17.5480   12.5110 F         1 6H1        -0.2291
     20 F20        43.5330  -17.9190   10.6030 F         1 6H1        -0.2291
     21 F21        44.7610  -18.3160   12.3090 F         1 6H1        -0.2291
     22 H1         40.1366  -21.4007   11.8220 H         1 6H1         0.0654
     23 H2         41.0042  -19.0971   11.7578 H         1 6H1         0.0833
     24 H3         41.8131  -24.2344   11.1080 H         1 6H1         0.0620
     25 H4         40.3768  -23.5696   11.9577 H         1 6H1         0.0620
     26 H5         44.9956  -20.6296   11.9506 H         1 6H1         0.0833
     27 H6         44.1147  -22.9462   12.0550 H         1 6H1         0.0654
     28 H7         44.3522  -26.4122   14.4932 H         1 6H1         0.0423
     29 H8         40.1841  -23.6952   14.3832 H         1 6H1         0.0434
     30 H9         41.1089  -26.7584   17.8970 H         1 6H1         0.0967
     31 H10        42.0189  -25.3171   18.4639 H         1 6H1         0.0967
     32 H11        43.5409  -24.7583   11.5001 H         1 6H1         0.2424
@<TRIPOS>BOND
     1    1    2 ar 
     2    1    4 1  
     3    1    8 ar 
     4    2    3 ar 
     5    3    5 ar 
     6    4    7 1  
     7    5    6 ar 
     8    5   18 1  
     9    6    8 ar 
    10    7    9 ar 
    11    7   13 ar 
    12    9   10 ar 
    13    9   17 1  
    14   10   11 ar 
    15   11   12 ar 
    16   11   15 1  
    17   12   13 ar 
    18   12   14 1  
    19   14   16 1  
    20   15   16 1  
    21   18   19 1  
    22   18   20 1  
    23   18   21 1  
    24    2   22 1  
    25    3   23 1  
    26    4   24 1  
    27    4   25 1  
    28    6   26 1  
    29    8   27 1  
    30   10   28 1  
    31   13   29 1  
    32   16   30 1  
    33   16   31 1  
    34   17   32 1  
@<TRIPOS>SUBSTRUCTURE
     1 6H1         1

