### 
### Created by X-TOOL on Mon Sep 10 21:13:28 2018
### 

@<TRIPOS>MOLECULE
5j7q_ligand
   27    29     1     0     0
SMALL
GAST_HUCK


@<TRIPOS>ATOM
      1 C2        -18.6760   -0.9260  -26.0600 C.ar      1 6H2        -0.0449
      2 C3        -18.3390    0.1090  -26.9330 C.ar      1 6H2        -0.0376
      3 C4        -17.9910   -0.1620  -28.2490 C.ar      1 6H2         0.1148
      4 C5        -17.8940   -1.4740  -28.6980 C.ar      1 6H2         0.1154
      5 C6        -18.1700   -2.5350  -27.8230 C.ar      1 6H2        -0.0421
      6 C7        -18.5310   -2.2600  -26.4900 C.ar      1 6H2        -0.0767
      7 O8        -17.5520   -1.6920  -30.0070 O.3       1 6H2        -0.3371
      8 O9        -17.7390    0.8840  -29.0860 O.3       1 6H2        -0.3373
      9 C10       -18.9350   -0.5850  -24.6420 C.2       1 6H2         0.0033
     10 N11       -19.7290   -1.3420  -23.8240 N.2       1 6H2        -0.3403
     11 C12       -19.6290   -0.8070  -22.6020 C.2       1 6H2         0.1344
     12 N13       -18.7770    0.2890  -22.6450 N.pl3     1 6H2        -0.2061
     13 C14       -18.3420    0.3770  -23.9250 C.2       1 6H2         0.0606
     14 C15       -20.2000   -1.0960  -21.3770 C.2       1 6H2        -0.0176
     15 C16       -19.8750   -0.3200  -20.2840 C.2       1 6H2        -0.0610
     16 C17       -19.0050    0.7510  -20.3670 C.2       1 6H2        -0.0258
     17 C18       -18.4600    1.0460  -21.5660 C.2       1 6H2         0.0823
     18 H1        -18.3491    1.1339  -26.5802 H         1 6H2         0.0489
     19 H2        -18.1058   -3.5597  -28.1706 H         1 6H2         0.0510
     20 H3        -18.6974   -3.0747  -25.7945 H         1 6H2         0.0485
     21 H4        -17.4039   -0.8582  -30.4376 H         1 6H2         0.2445
     22 H5        -17.8525    1.7004  -28.6138 H         1 6H2         0.2442
     23 H6        -17.6299    1.1074  -24.3062 H         1 6H2         0.0817
     24 H7        -20.8978   -1.9260  -21.2760 H         1 6H2         0.0576
     25 H8        -20.3204   -0.5600  -19.3197 H         1 6H2         0.0638
     26 H9        -18.7649    1.3431  -19.4852 H         1 6H2         0.0551
     27 H10       -17.7721    1.8843  -21.6657 H         1 6H2         0.1203
@<TRIPOS>BOND
     1    1    2 ar 
     2    1    6 ar 
     3    1    9 1  
     4    2    3 ar 
     5    3    4 ar 
     6    3    8 1  
     7    4    5 ar 
     8    4    7 1  
     9    5    6 ar 
    10    9   10 1  
    11    9   13 2  
    12   10   11 2  
    13   11   12 1  
    14   11   14 1  
    15   12   13 1  
    16   12   17 1  
    17   14   15 2  
    18   15   16 1  
    19   16   17 2  
    20    2   18 1  
    21    5   19 1  
    22    6   20 1  
    23    7   21 1  
    24    8   22 1  
    25   13   23 1  
    26   14   24 1  
    27   15   25 1  
    28   16   26 1  
    29   17   27 1  
@<TRIPOS>SUBSTRUCTURE
     1 6H2         1

