### 
### Created by X-TOOL on Mon Sep 10 21:13:34 2018
### 

@<TRIPOS>MOLECULE
5j7s_ligand
   62    65     1     0     0
SMALL
GAST_HUCK


@<TRIPOS>ATOM
      1 C18       -11.5220  -48.0600  -15.5070 C.ar      1 6H3         0.0971
      2 C13       -16.2580  -47.8880  -17.6900 C.ar      1 6H3         0.0530
      3 C12       -15.7740  -48.9350  -18.4740 C.ar      1 6H3        -0.0489
      4 C17       -12.1240  -46.8450  -15.1790 C.ar      1 6H3         0.0142
      5 C15       -14.0060  -47.4970  -16.3620 C.ar      1 6H3         0.1918
      6 C11       -16.6390  -49.6340  -19.3250 C.ar      1 6H3        -0.0528
      7 C10       -17.5990  -47.5390  -17.7590 C.ar      1 6H3        -0.0489
      8 C22       -12.1920  -51.1590  -17.6310 C.ar      1 6H3         0.0877
      9 C20       -12.2220  -48.9880  -16.2870 C.ar      1 6H3         0.1448
     10 C01       -21.4030  -51.9600  -22.7460 C.3       1 6H3        -0.0430
     11 N02       -20.8540  -51.5910  -21.6470 N.4       1 6H3         0.2358
     12 C03       -21.0550  -50.2450  -21.4690 C.3       1 6H3        -0.0123
     13 C04       -20.3130  -49.6900  -20.2510 C.3       1 6H3         0.0649
     14 C05       -19.5280  -51.9510  -21.6570 C.3       1 6H3        -0.0123
     15 C06       -18.7800  -51.4510  -20.4240 C.3       1 6H3         0.0649
     16 N07       -18.8970  -50.0090  -20.2670 N.pl3     1 6H3        -0.3045
     17 C08       -17.9770  -49.2790  -19.3870 C.ar      1 6H3         0.0297
     18 C09       -18.4670  -48.2320  -18.6100 C.ar      1 6H3        -0.0528
     19 N14       -15.3720  -47.1130  -16.7860 N.pl3     1 6H3        -0.2515
     20 N16       -13.3600  -46.6100  -15.6240 N.ar      1 6H3        -0.2697
     21 CL19       -9.8650  -48.3960  -14.9330 Cl        1 6H3        -0.0754
     22 N21       -11.5860  -50.2710  -16.6520 N.pl3     1 6H3        -0.2605
     23 C23       -13.4940  -51.5900  -17.4540 C.ar      1 6H3        -0.0506
     24 C24       -14.0840  -52.4410  -18.3800 C.ar      1 6H3        -0.0867
     25 C25       -13.3620  -52.8620  -19.4960 C.ar      1 6H3        -0.0870
     26 C26       -12.0580  -52.4300  -19.6790 C.ar      1 6H3        -0.0497
     27 C27       -11.4650  -51.5860  -18.7580 C.ar      1 6H3         0.0922
     28 N28       -10.0700  -51.1500  -18.9980 N.am      1 6H3        -0.2367
     29 C29        -8.9700  -51.4670  -18.0560 C.2       1 6H3         0.2009
     30 C30        -7.5310  -50.9920  -18.3720 C.3       1 6H3         0.0399
     31 C31        -6.9520  -50.0560  -17.3050 C.3       1 6H3        -0.0478
     32 O32        -9.1870  -52.0780  -17.0650 O.2       1 6H3        -0.3861
     33 N33       -13.4540  -48.6770  -16.6980 N.ar      1 6H3        -0.2359
     34 H1        -14.7262  -49.2082  -18.4245 H         1 6H3         0.0507
     35 H2        -11.6009  -46.1102  -14.5777 H         1 6H3         0.0851
     36 H3        -16.2635  -50.4493  -19.9327 H         1 6H3         0.0490
     37 H4        -17.9763  -46.7252  -17.1504 H         1 6H3         0.0507
     38 H5        -22.4648  -51.6727  -22.7400 H         1 6H3         0.0778
     39 H6        -21.3193  -53.0519  -22.8492 H         1 6H3         0.0778
     40 H7        -20.8959  -51.4718  -23.5913 H         1 6H3         0.0778
     41 H8        -21.3004  -52.0746  -20.8836 H         1 6H3         0.2032
     42 H9        -22.1320  -50.0651  -21.3363 H         1 6H3         0.0834
     43 H10       -20.7026  -49.7154  -22.3664 H         1 6H3         0.0834
     44 H11       -20.7601  -50.1172  -19.3413 H         1 6H3         0.0562
     45 H12       -20.4275  -48.5961  -20.2370 H         1 6H3         0.0562
     46 H13       -19.0535  -51.5267  -22.5541 H         1 6H3         0.0834
     47 H14       -19.4601  -53.0484  -21.6904 H         1 6H3         0.0834
     48 H15       -17.7162  -51.7129  -20.5227 H         1 6H3         0.0562
     49 H16       -19.1971  -51.9410  -19.5318 H         1 6H3         0.0562
     50 H17       -19.5138  -47.9559  -18.6642 H         1 6H3         0.0490
     51 H18       -15.7420  -46.2245  -16.4190 H         1 6H3         0.2145
     52 H19       -10.6981  -50.5409  -16.2052 H         1 6H3         0.2131
     53 H20       -14.0573  -51.2620  -16.5879 H         1 6H3         0.0490
     54 H21       -15.1043  -52.7773  -18.2351 H         1 6H3         0.0460
     55 H22       -13.8201  -53.5264  -20.2197 H         1 6H3         0.0482
     56 H23       -11.4996  -52.7556  -20.5492 H         1 6H3         0.0465
     57 H24        -9.8632  -50.6242  -19.8231 H         1 6H3         0.2226
     58 H25        -7.5429  -50.4591  -19.3342 H         1 6H3         0.0504
     59 H26        -6.8811  -51.8760  -18.4504 H         1 6H3         0.0504
     60 H27        -5.9325  -49.7589  -17.5921 H         1 6H3         0.0254
     61 H28        -6.9230  -50.5771  -16.3367 H         1 6H3         0.0254
     62 H29        -7.5848  -49.1603  -17.2206 H         1 6H3         0.0254
@<TRIPOS>BOND
     1    4    1 ar 
     2    9    1 ar 
     3    1   21 1  
     4    3    2 ar 
     5    2    7 ar 
     6    2   19 1  
     7    6    3 ar 
     8   20    4 ar 
     9   19    5 1  
    10    5   20 ar 
    11    5   33 ar 
    12   17    6 ar 
    13    7   18 ar 
    14   22    8 1  
    15    8   23 ar 
    16    8   27 ar 
    17    9   22 1  
    18   33    9 ar 
    19   11   10 1  
    20   12   11 1  
    21   14   11 1  
    22   13   12 1  
    23   16   13 1  
    24   15   14 1  
    25   16   15 1  
    26   16   17 1  
    27   17   18 ar 
    28   23   24 ar 
    29   24   25 ar 
    30   25   26 ar 
    31   26   27 ar 
    32   27   28 1  
    33   28   29 am 
    34   29   30 1  
    35   29   32 2  
    36   30   31 1  
    37    3   34 1  
    38    4   35 1  
    39    6   36 1  
    40    7   37 1  
    41   10   38 1  
    42   10   39 1  
    43   10   40 1  
    44   11   41 1  
    45   12   42 1  
    46   12   43 1  
    47   13   44 1  
    48   13   45 1  
    49   14   46 1  
    50   14   47 1  
    51   15   48 1  
    52   15   49 1  
    53   18   50 1  
    54   19   51 1  
    55   22   52 1  
    56   23   53 1  
    57   24   54 1  
    58   25   55 1  
    59   26   56 1  
    60   28   57 1  
    61   30   58 1  
    62   30   59 1  
    63   31   60 1  
    64   31   61 1  
    65   31   62 1  
@<TRIPOS>SUBSTRUCTURE
     1 6H3         1

