### 
### Created by X-TOOL on Mon Sep 10 21:13:29 2018
### 

@<TRIPOS>MOLECULE
5j7w_ligand
   53    55     1     0     0
SMALL
GAST_HUCK


@<TRIPOS>ATOM
      1 N1        -14.0570   17.8810   30.3450 N.ar      1 MTX        -0.2668
      2 C2        -13.8140   16.6410   29.7770 C.ar      1 MTX         0.1670
      3 NA2       -13.6660   15.5870   30.5480 N.pl3     1 MTX        -0.3051
      4 N3        -13.7180   16.4710   28.4130 N.ar      1 MTX        -0.2298
      5 C4        -13.8560   17.5570   27.5750 C.ar      1 MTX         0.1540
      6 NA4       -13.7830   17.4580   26.2390 N.pl3     1 MTX        -0.3052
      7 C4A       -14.0970   18.7780   28.1550 C.ar      1 MTX         0.1326
      8 N5        -14.2320   19.8070   27.3040 N.ar      1 MTX        -0.2616
      9 C6        -14.4560   21.0470   27.7800 C.ar      1 MTX         0.0826
     10 C7        -14.6050   21.3390   29.1370 C.ar      1 MTX         0.0478
     11 N8        -14.4670   20.2730   30.0270 N.ar      1 MTX        -0.2649
     12 C8A       -14.2120   18.9850   29.5320 C.ar      1 MTX         0.1183
     13 C9        -14.6290   21.9650   26.6510 C.3       1 MTX         0.0825
     14 N10       -16.0370   21.6830   26.3650 N.pl3     1 MTX        -0.2945
     15 CM        -16.9100   22.7250   26.9390 C.3       1 MTX         0.0191
     16 C11       -18.4650   18.6470   24.5400 C.ar      1 MTX         0.0362
     17 C12       -17.4830   19.2970   23.7720 C.ar      1 MTX        -0.0535
     18 C13       -16.6500   20.2940   24.3240 C.ar      1 MTX        -0.0379
     19 C14       -16.7650   20.6270   25.6850 C.ar      1 MTX         0.0476
     20 C15       -17.7690   19.9790   26.4400 C.ar      1 MTX        -0.0379
     21 C16       -18.6050   19.0140   25.8720 C.ar      1 MTX        -0.0535
     22 C         -19.4300   17.6190   23.9800 C.2       1 MTX         0.1968
     23 O         -20.1150   16.7500   24.8450 O.2       1 MTX        -0.3908
     24 N         -19.7250   17.6090   22.6760 N.am      1 MTX        -0.2725
     25 CA        -20.6260   16.6460   22.0330 C.3       1 MTX         0.0951
     26 CT        -20.0750   16.2400   20.6800 C.2       1 MTX         0.0601
     27 O1        -20.6450   15.4050   19.9590 O.co2     1 MTX        -0.5666
     28 O2        -19.0140   16.7310   20.2290 O.co2     1 MTX        -0.5666
     29 CB        -22.0890   17.1300   21.9280 C.3       1 MTX        -0.0064
     30 CG        -22.3560   18.2780   20.9530 C.3       1 MTX         0.0038
     31 CD        -23.8360   18.6050   20.8970 C.2       1 MTX         0.0350
     32 OE1       -24.5770   18.1490   20.0100 O.co2     1 MTX        -0.5690
     33 OE2       -24.3850   19.3550   21.7460 O.co2     1 MTX        -0.5690
     34 H1        -13.7326   15.6840   31.5713 H         1 MTX         0.1844
     35 H2        -13.4834   14.6640   30.1290 H         1 MTX         0.1844
     36 H3        -13.8925   18.2983   25.6536 H         1 MTX         0.1886
     37 H4        -13.6175   16.5416   25.7988 H         1 MTX         0.1886
     38 H5        -14.8174   22.3443   29.4824 H         1 MTX         0.0952
     39 H6        -13.9740   21.7109   25.8046 H         1 MTX         0.0719
     40 H7        -14.4655   23.0139   26.9393 H         1 MTX         0.0719
     41 H8        -17.9601   22.4902   26.7106 H         1 MTX         0.0482
     42 H9        -16.6498   23.7015   26.5047 H         1 MTX         0.0482
     43 H10       -16.7710   22.7600   28.0296 H         1 MTX         0.0482
     44 H11       -17.3625   19.0256   22.7295 H         1 MTX         0.0636
     45 H12       -15.9234   20.8016   23.7000 H         1 MTX         0.0530
     46 H13       -17.8935   20.2370   27.4855 H         1 MTX         0.0530
     47 H14       -19.3721   18.5462   26.4785 H         1 MTX         0.0636
     48 H15       -19.3018   18.3070   22.0983 H         1 MTX         0.1864
     49 H16       -20.6371   15.7466   22.6663 H         1 MTX         0.0726
     50 H17       -22.4052   17.4600   22.9285 H         1 MTX         0.0323
     51 H18       -22.7033   16.2736   21.6132 H         1 MTX         0.0323
     52 H19       -22.0132   17.9858   19.9495 H         1 MTX         0.0432
     53 H20       -21.8024   19.1688   21.2846 H         1 MTX         0.0432
@<TRIPOS>BOND
     1    1    2 ar 
     2   12    1 ar 
     3    2    3 1  
     4    4    2 ar 
     5    5    4 ar 
     6    5    6 1  
     7    7    5 ar 
     8    8    7 ar 
     9    7   12 ar 
    10    9    8 ar 
    11    9   10 ar 
    12   13    9 1  
    13   10   11 ar 
    14   11   12 ar 
    15   14   13 1  
    16   14   15 1  
    17   19   14 1  
    18   17   16 ar 
    19   16   21 ar 
    20   16   22 1  
    21   18   17 ar 
    22   18   19 ar 
    23   19   20 ar 
    24   20   21 ar 
    25   22   23 2  
    26   22   24 am 
    27   24   25 1  
    28   25   26 1  
    29   25   29 1  
    30   26   27 ar 
    31   26   28 ar 
    32   29   30 1  
    33   30   31 1  
    34   31   32 ar 
    35   31   33 ar 
    36    3   34 1  
    37    3   35 1  
    38    6   36 1  
    39    6   37 1  
    40   10   38 1  
    41   13   39 1  
    42   13   40 1  
    43   15   41 1  
    44   15   42 1  
    45   15   43 1  
    46   17   44 1  
    47   18   45 1  
    48   20   46 1  
    49   21   47 1  
    50   24   48 1  
    51   25   49 1  
    52   29   50 1  
    53   29   51 1  
    54   30   52 1  
    55   30   53 1  
@<TRIPOS>SUBSTRUCTURE
     1 MTX         1

