### 
### Created by X-TOOL on Wed Jan  1 15:39:34 2020
### 

@<TRIPOS>MOLECULE
5j82_ligand
   48    50     1     0     0
SMALL
GAST_HUCK


@<TRIPOS>ATOM
      1 C1         -0.6910   33.0390  -23.1320 C.ar      1 6GV         0.1065
      2 C2         -1.9580   33.3120  -23.6510 C.ar      1 6GV        -0.0018
      3 C3         -2.0730   34.0580  -24.8140 C.ar      1 6GV         0.0934
      4 C9         -0.9870   35.4320  -26.6200 C.2       1 6GV         0.1637
      5 C12        -0.5690   37.1720  -27.9120 C.2       1 6GV         0.3444
      6 C14         0.4980   37.2720  -25.7160 C.ar      1 6GV         0.1297
      7 C15         1.9070   37.2190  -25.7660 C.ar      1 6GV         0.1589
      8 C16         2.6800   37.8150  -24.7650 C.ar      1 6GV        -0.0387
      9 C19        -0.1150   37.9780  -24.6780 C.ar      1 6GV        -0.0354
     10 C27         5.1470   31.7270  -24.1220 C.3       1 6GV        -0.0454
     11 C4         -0.9310   34.5490  -25.4440 C.ar      1 6GV         0.0436
     12 C5          0.3230   34.2480  -24.9330 C.ar      1 6GV        -0.0400
     13 C6          0.4640   33.5410  -23.7700 C.ar      1 6GV         0.1264
     14 O7         -0.6030   32.2730  -22.0100 O.3       1 6GV        -0.3332
     15 O8         -3.2850   34.3080  -25.3330 O.3       1 6GV        -0.3330
     16 N10        -1.6460   35.2130  -27.7230 N.2       1 6GV        -0.2023
     17 N11        -1.3940   36.3120  -28.5590 N.am      1 6GV        -0.1732
     18 N13        -0.3120   36.6480  -26.7050 N.am      1 6GV        -0.1440
     19 C17         2.0490   38.4930  -23.7210 C.ar      1 6GV        -0.0767
     20 C18         0.6610   38.5850  -23.6940 C.ar      1 6GV        -0.0766
     21 O20        -0.1180   38.2360  -28.3080 O.2       1 6GV        -0.3936
     22 S21         2.1250   33.2500  -23.2180 S.o2      1 6GV         0.0642
     23 O22         2.9210   34.3150  -23.7420 O.2       1 6GV        -0.1530
     24 O23         2.0130   33.0780  -21.8150 O.2       1 6GV        -0.1530
     25 N24         2.6010   31.8070  -23.9280 N.am      1 6GV        -0.2370
     26 C25         1.7830   30.6180  -23.6580 C.3       1 6GV         0.0182
     27 C26         3.7860   31.7090  -24.8400 C.3       1 6GV         0.0347
     28 C28         3.7840   30.5280  -25.8340 C.3       1 6GV        -0.0454
     29 F           2.5270   36.5730  -26.7740 F         1 6GV        -0.1910
     30 H1         -2.8450   32.9435  -23.1485 H         1 6GV         0.0464
     31 H2          3.7616   37.7510  -24.7995 H         1 6GV         0.0568
     32 H3         -1.1957   38.0533  -24.6386 H         1 6GV         0.0517
     33 H4          5.9546   31.6512  -24.8650 H         1 6GV         0.0248
     34 H5          5.2066   30.8759  -23.4277 H         1 6GV         0.0248
     35 H6          5.2528   32.6667  -23.5601 H         1 6GV         0.0248
     36 H7          1.2076   34.5790  -25.4649 H         1 6GV         0.0583
     37 H8         -1.4759   32.0292  -21.7251 H         1 6GV         0.2486
     38 H9         -3.9509   33.9060  -24.7875 H         1 6GV         0.2495
     39 H10        -1.7622   36.4397  -29.4799 H         1 6GV         0.2418
     40 H11         2.6390   38.9469  -22.9330 H         1 6GV         0.0497
     41 H12         0.1771   39.1367  -22.8961 H         1 6GV         0.0549
     42 H13         2.2104   29.7517  -24.1843 H         1 6GV         0.0442
     43 H14         0.7559   30.7915  -24.0114 H         1 6GV         0.0442
     44 H15         1.7700   30.4198  -22.5761 H         1 6GV         0.0442
     45 H16         3.7461   32.6219  -25.4524 H         1 6GV         0.0508
     46 H17         2.8190   30.4939  -26.3610 H         1 6GV         0.0248
     47 H18         3.9355   29.5867  -25.2854 H         1 6GV         0.0248
     48 H19         4.5959   30.6618  -26.5640 H         1 6GV         0.0248
@<TRIPOS>BOND
     1    1    2 ar 
     2   13    1 ar 
     3    1   14 1  
     4    2    3 ar 
     5   11    3 ar 
     6    3   15 1  
     7   11    4 1  
     8    4   16 2  
     9    4   18 1  
    10    5   17 am 
    11   18    5 am 
    12    5   21 2  
    13    6    7 ar 
    14    6    9 ar 
    15   18    6 1  
    16    7    8 ar 
    17    7   29 1  
    18    8   19 ar 
    19    9   20 ar 
    20   27   10 1  
    21   12   11 ar 
    22   13   12 ar 
    23   22   13 1  
    24   16   17 1  
    25   20   19 ar 
    26   22   23 2  
    27   22   24 2  
    28   25   22 am 
    29   25   26 1  
    30   25   27 1  
    31   27   28 1  
    32    2   30 1  
    33    8   31 1  
    34    9   32 1  
    35   10   33 1  
    36   10   34 1  
    37   10   35 1  
    38   12   36 1  
    39   14   37 1  
    40   15   38 1  
    41   17   39 1  
    42   19   40 1  
    43   20   41 1  
    44   26   42 1  
    45   26   43 1  
    46   26   44 1  
    47   27   45 1  
    48   28   46 1  
    49   28   47 1  
    50   28   48 1  
@<TRIPOS>SUBSTRUCTURE
     1 6GV         1

