### 
### Created by X-TOOL on Wed Jan  1 15:39:34 2020
### 

@<TRIPOS>MOLECULE
5j86_ligand
   51    54     1     0     0
SMALL
GAST_HUCK


@<TRIPOS>ATOM
      1 C1        -33.3160   -7.5230   24.7270 C.ar      1 6GW        -0.0402
      2 C2        -32.7820  -12.3650   23.0140 C.ar      1 6GW         0.1018
      3 C3        -31.5120  -12.0450   23.5220 C.ar      1 6GW         0.0028
      4 C7        -33.9430  -11.9340   23.6860 C.ar      1 6GW         0.0687
      5 C8        -32.5030  -10.0530   26.6170 C.2       1 6GW         0.1644
      6 C14       -32.8810   -8.3560   27.9790 C.2       1 6GW         0.3436
      7 C16       -33.9710   -8.1790   25.7790 C.ar      1 6GW         0.0983
      8 C19       -35.4390   -6.8920   23.7630 C.ar      1 6GW        -0.0816
      9 C20       -36.1470   -8.8510   26.9160 C.3       1 6GW        -0.0335
     10 C21       -35.3290  -12.3140   23.3230 C.2       1 6GW         0.1965
     11 C24       -37.2190  -13.9100   23.5240 C.3       1 6GW         0.0776
     12 C27       -34.9180  -14.5340   24.3340 C.3       1 6GW         0.0241
     13 C30       -39.0900  -15.1110   26.5350 C.2       1 6GW        -0.0931
     14 C31       -38.5120  -15.2110   25.2780 C.2       1 6GW        -0.0798
     15 C4        -31.4150  -11.3170   24.7110 C.ar      1 6GW         0.0988
     16 C5        -32.5720  -10.9120   25.4060 C.ar      1 6GW         0.0481
     17 C6        -33.8230  -11.2360   24.8900 C.ar      1 6GW        -0.0457
     18 N9        -31.8170  -10.2850   27.7080 N.2       1 6GW        -0.2024
     19 N10       -33.1720   -8.8380   26.7560 N.am      1 6GW        -0.1475
     20 O11       -30.2020  -11.0240   25.2310 O.3       1 6GW        -0.3296
     21 O12       -32.8970  -13.0350   21.8490 O.3       1 6GW        -0.3298
     22 N13       -32.0550   -9.2300   28.5860 N.am      1 6GW        -0.1733
     23 O15       -33.3010   -7.3140   28.4450 O.2       1 6GW        -0.3940
     24 C17       -35.3790   -8.1760   25.8120 C.ar      1 6GW        -0.0170
     25 C18       -36.1090   -7.5410   24.7990 C.ar      1 6GW        -0.0708
     26 N22       -35.8020  -13.5390   23.7020 N.am      1 6GW        -0.2654
     27 O23       -36.0620  -11.4870   22.8190 O.2       1 6GW        -0.3949
     28 C25       -37.9350  -14.0850   24.8410 C.2       1 6GW         0.0344
     29 C26       -34.0430   -6.8890   23.7220 C.ar      1 6GW        -0.0795
     30 S28       -38.1140  -12.8170   26.0430 S.3       1 6GW        -0.0423
     31 C29       -38.9970  -13.9030   27.1130 C.2       1 6GW        -0.0195
     32 H1        -32.2325   -7.5091   24.6954 H         1 6GW         0.0508
     33 H2        -30.6170  -12.3593   22.9975 H         1 6GW         0.0476
     34 H3        -36.0034   -6.3880   22.9867 H         1 6GW         0.0489
     35 H4        -37.2259   -8.7248   26.7424 H         1 6GW         0.0367
     36 H5        -35.8756   -8.3986   27.8812 H         1 6GW         0.0367
     37 H6        -35.9011   -9.9230   26.9314 H         1 6GW         0.0367
     38 H7        -37.2695  -14.8563   22.9655 H         1 6GW         0.0711
     39 H8        -37.7226  -13.1182   22.9501 H         1 6GW         0.0711
     40 H9        -33.8983  -14.1273   24.4027 H         1 6GW         0.0487
     41 H10       -34.9065  -15.4518   23.7278 H         1 6GW         0.0487
     42 H11       -35.2891  -14.7657   25.3432 H         1 6GW         0.0487
     43 H12       -39.5840  -15.9525   27.0185 H         1 6GW         0.0371
     44 H13       -38.5265  -16.1303   24.6944 H         1 6GW         0.0277
     45 H14       -34.7163  -10.9428   25.4295 H         1 6GW         0.0617
     46 H15       -29.5233  -11.3577   24.6561 H         1 6GW         0.2514
     47 H16       -32.0315  -13.2543   21.5243 H         1 6GW         0.2512
     48 H17       -31.6779   -9.1375   29.5075 H         1 6GW         0.2418
     49 H18       -37.1927   -7.5542   24.8206 H         1 6GW         0.0519
     50 H19       -33.5255   -6.3936   22.9085 H         1 6GW         0.0526
     51 H20       -39.4027  -13.6367   28.0879 H         1 6GW         0.0598
@<TRIPOS>BOND
     1    7    1 ar 
     2    1   29 ar 
     3    3    2 ar 
     4    2    4 ar 
     5    2   21 1  
     6   15    3 ar 
     7    4   10 1  
     8    4   17 ar 
     9   16    5 1  
    10    5   18 2  
    11    5   19 1  
    12   19    6 am 
    13    6   22 am 
    14    6   23 2  
    15   19    7 1  
    16    7   24 ar 
    17    8   25 ar 
    18   29    8 ar 
    19   24    9 1  
    20   10   26 am 
    21   10   27 2  
    22   26   11 1  
    23   11   28 1  
    24   26   12 1  
    25   14   13 1  
    26   13   31 2  
    27   28   14 2  
    28   15   16 ar 
    29   15   20 1  
    30   16   17 ar 
    31   18   22 1  
    32   24   25 ar 
    33   28   30 1  
    34   30   31 1  
    35    1   32 1  
    36    3   33 1  
    37    8   34 1  
    38    9   35 1  
    39    9   36 1  
    40    9   37 1  
    41   11   38 1  
    42   11   39 1  
    43   12   40 1  
    44   12   41 1  
    45   12   42 1  
    46   13   43 1  
    47   14   44 1  
    48   17   45 1  
    49   20   46 1  
    50   21   47 1  
    51   22   48 1  
    52   25   49 1  
    53   29   50 1  
    54   31   51 1  
@<TRIPOS>SUBSTRUCTURE
     1 6GW         1

