### 
### Created by X-TOOL on Mon Sep 10 21:13:34 2018
### 

@<TRIPOS>MOLECULE
5j87_ligand
   91    95     1     0     0
SMALL
GAST_HUCK


@<TRIPOS>ATOM
      1 CBA        28.3930  -33.9520   99.1190 C.3       1 N42        -0.0477
      2 CBB        27.3280  -33.9350  100.2290 C.3       1 N42         0.0408
      3 CBK        26.1040  -33.2940   99.5960 C.2       1 N42         0.2053
      4 OAH        25.1300  -33.9720   99.3040 O.2       1 N42        -0.3838
      5 NBF        26.2760  -31.9900   99.3660 N.am      1 N42        -0.2301
      6 CBS        25.4090  -31.2110   98.7180 C.ar      1 N42         0.0844
      7 CAV        25.8890  -30.4260   97.6680 C.ar      1 N42        -0.0232
      8 CBV        24.0660  -31.1870   99.0950 C.ar      1 N42         0.0663
      9 CBM        23.5810  -31.9330  100.1740 C.2       1 N42         0.1954
     10 OAJ        24.1600  -31.7820  101.2480 O.2       1 N42        -0.3948
     11 NBZ        22.4910  -32.7140  100.0820 N.am      1 N42        -0.2712
     12 CBC        22.0450  -33.4250  101.3010 C.3       1 N42         0.0563
     13 CAY        20.5810  -33.6340  101.3020 C.3       1 N42         0.0679
     14 OBI        20.2120  -34.2840  100.0980 O.3       1 N42        -0.3758
     15 CAZ        20.3090  -33.3410   99.0440 C.3       1 N42         0.0679
     16 CBD        21.7470  -32.8980   98.8300 C.3       1 N42         0.0563
     17 CAU        23.2150  -30.3410   98.4010 C.ar      1 N42        -0.0570
     18 CAO        23.7070  -29.5660   97.3560 C.ar      1 N42        -0.0577
     19 CBO        25.0380  -29.5820   96.9700 C.ar      1 N42         0.0111
     20 NBH        25.4140  -28.7960   95.9360 N.2       1 N42        -0.2981
     21 CBU        26.6490  -28.2910   95.7160 C.2       1 N42         0.1071
     22 CAW        27.8030  -28.3870   96.5150 C.2       1 N42        -0.0152
     23 CBX        26.7230  -27.5940   94.5210 C.2       1 N42         0.2383
     24 OAK        25.7350  -27.5020   93.8070 O.2       1 N42        -0.3689
     25 NCA        27.8660  -27.0310   94.1330 N.am      1 N42        -0.2540
     26 CAB        27.8970  -26.2990   92.8600 C.3       1 N42         0.0259
     27 CAX        29.0170  -27.0980   94.9050 C.3       1 N42         0.0795
     28 CBQ        29.0190  -27.7810   96.1070 C.2       1 N42         0.0043
     29 CBW        30.2080  -27.8610   96.8810 C.ar      1 N42        -0.0048
     30 CBN        31.4990  -28.0940   96.3600 C.ar      1 N42        -0.0035
     31 CAA        31.6810  -28.2420   95.0020 C.3       1 N42        -0.0295
     32 CAR        30.0840  -27.7350   98.2530 C.ar      1 N42        -0.0653
     33 CAM        31.1970  -27.8340   99.0690 C.ar      1 N42        -0.0746
     34 CAN        32.4610  -28.0510   98.5610 C.ar      1 N42        -0.0406
     35 CBR        32.6310  -28.1640   97.1980 C.ar      1 N42         0.0775
     36 NBG        33.8500  -28.4050   96.6480 N.am      1 N42        -0.2311
     37 CBL        34.6770  -27.3980   96.2440 C.2       1 N42         0.2497
     38 OAI        34.4080  -26.2100   96.3060 O.2       1 N42        -0.3622
     39 CBP        35.8740  -27.7830   95.6330 C.ar      1 N42         0.0828
     40 CAP        36.8910  -26.8620   95.4010 C.ar      1 N42        -0.0139
     41 CAS        38.0850  -27.2090   94.7840 C.ar      1 N42        -0.0356
     42 CBT        38.2770  -28.5160   94.3610 C.ar      1 N42        -0.0451
     43 CCB        39.4710  -28.8990   93.7480 C.3       1 N42        -0.0435
     44 CAD        39.1980  -29.8580   92.6010 C.3       1 N42        -0.0831
     45 CAE        40.3480  -29.5990   94.7700 C.3       1 N42        -0.0831
     46 CAC        40.2260  -27.6880   93.2160 C.3       1 N42        -0.0831
     47 CAT        37.2670  -29.4330   94.5860 C.ar      1 N42        -0.0356
     48 CAQ        36.0740  -29.0830   95.2060 C.ar      1 N42        -0.0139
     49 H1         29.3176  -34.4062   99.5049 H         1 N42         0.0254
     50 H2         28.5990  -32.9219   98.7927 H         1 N42         0.0254
     51 H3         28.0240  -34.5401   98.2658 H         1 N42         0.0254
     52 H4         27.6745  -33.3405  101.0872 H         1 N42         0.0505
     53 H5         27.0996  -34.9587  100.5603 H         1 N42         0.0505
     54 H6         27.1164  -31.5666   99.7044 H         1 N42         0.2284
     55 H7         26.9370  -30.4766   97.3956 H         1 N42         0.0486
     56 H8         22.3215  -32.8294  102.1835 H         1 N42         0.0544
     57 H9         22.5456  -34.4034  101.3474 H         1 N42         0.0544
     58 H10        20.0689  -32.6629  101.3698 H         1 N42         0.0580
     59 H11        20.2973  -34.2590  102.1615 H         1 N42         0.0580
     60 H12        19.6964  -32.4618   99.2923 H         1 N42         0.0580
     61 H13        19.9337  -33.7995   98.1173 H         1 N42         0.0580
     62 H14        22.2612  -33.6611   98.2273 H         1 N42         0.0544
     63 H15        21.7404  -31.9429   98.2843 H         1 N42         0.0544
     64 H16        22.1671  -30.2835   98.6724 H         1 N42         0.0622
     65 H17        23.0195  -28.9215   96.8202 H         1 N42         0.0491
     66 H18        27.7623  -28.9323   97.4567 H         1 N42         0.0509
     67 H19        28.9080  -25.8999   92.6911 H         1 N42         0.0489
     68 H20        27.1765  -25.4686   92.8968 H         1 N42         0.0489
     69 H21        27.6298  -26.9802   92.0387 H         1 N42         0.0489
     70 H22        29.3046  -26.0608   95.1319 H         1 N42         0.0759
     71 H23        29.7906  -27.5640   94.2770 H         1 N42         0.0759
     72 H24        30.7100  -28.1629   94.4912 H         1 N42         0.0387
     73 H25        32.1241  -29.2277   94.7967 H         1 N42         0.0387
     74 H26        32.3541  -27.4536   94.6342 H         1 N42         0.0387
     75 H27        29.1087  -27.5576   98.6916 H         1 N42         0.0532
     76 H28        31.0717  -27.7380  100.1415 H         1 N42         0.0542
     77 H29        33.3122  -28.1319   99.2273 H         1 N42         0.0533
     78 H30        34.1509  -29.3520   96.5356 H         1 N42         0.2238
     79 H31        36.7453  -25.8345   95.7140 H         1 N42         0.0741
     80 H32        38.8598  -26.4658   94.6342 H         1 N42         0.0854
     81 H33        40.1494  -30.1480   92.1312 H         1 N42         0.0139
     82 H34        38.5564  -29.3651   91.8558 H         1 N42         0.0139
     83 H35        38.6907  -30.7550   92.9858 H         1 N42         0.0139
     84 H36        40.5535  -28.9150   95.6066 H         1 N42         0.0139
     85 H37        41.2961  -29.8958   94.2977 H         1 N42         0.0139
     86 H38        39.8301  -30.4934   95.1464 H         1 N42         0.0139
     87 H39        39.6053  -27.1666   92.4724 H         1 N42         0.0139
     88 H40        41.1632  -28.0183   92.7444 H         1 N42         0.0139
     89 H41        40.4547  -27.0044   94.0469 H         1 N42         0.0139
     90 H42        37.4108  -30.4593   94.2680 H         1 N42         0.0854
     91 H43        35.3008  -29.8281   95.3549 H         1 N42         0.0741
@<TRIPOS>BOND
     1    1    2 1  
     2    2    3 1  
     3    3    4 2  
     4    3    5 am 
     5    5    6 1  
     6    6    7 ar 
     7    6    8 ar 
     8    7   19 ar 
     9    8    9 1  
    10    8   17 ar 
    11    9   10 2  
    12    9   11 am 
    13   11   12 1  
    14   11   16 1  
    15   12   13 1  
    16   13   14 1  
    17   14   15 1  
    18   15   16 1  
    19   17   18 ar 
    20   18   19 ar 
    21   19   20 1  
    22   20   21 2  
    23   21   22 1  
    24   21   23 1  
    25   22   28 2  
    26   23   24 2  
    27   23   25 am 
    28   25   26 1  
    29   25   27 1  
    30   27   28 1  
    31   28   29 1  
    32   29   30 ar 
    33   29   32 ar 
    34   30   31 1  
    35   30   35 ar 
    36   32   33 ar 
    37   33   34 ar 
    38   34   35 ar 
    39   35   36 1  
    40   36   37 am 
    41   37   38 2  
    42   37   39 1  
    43   39   40 ar 
    44   39   48 ar 
    45   40   41 ar 
    46   41   42 ar 
    47   42   43 1  
    48   42   47 ar 
    49   43   44 1  
    50   43   45 1  
    51   43   46 1  
    52   47   48 ar 
    53    1   49 1  
    54    1   50 1  
    55    1   51 1  
    56    2   52 1  
    57    2   53 1  
    58    5   54 1  
    59    7   55 1  
    60   12   56 1  
    61   12   57 1  
    62   13   58 1  
    63   13   59 1  
    64   15   60 1  
    65   15   61 1  
    66   16   62 1  
    67   16   63 1  
    68   17   64 1  
    69   18   65 1  
    70   22   66 1  
    71   26   67 1  
    72   26   68 1  
    73   26   69 1  
    74   27   70 1  
    75   27   71 1  
    76   31   72 1  
    77   31   73 1  
    78   31   74 1  
    79   32   75 1  
    80   33   76 1  
    81   34   77 1  
    82   36   78 1  
    83   40   79 1  
    84   41   80 1  
    85   44   81 1  
    86   44   82 1  
    87   44   83 1  
    88   45   84 1  
    89   45   85 1  
    90   45   86 1  
    91   46   87 1  
    92   46   88 1  
    93   46   89 1  
    94   47   90 1  
    95   48   91 1  
@<TRIPOS>SUBSTRUCTURE
     1 N42         1

