### 
### Created by X-TOOL on Mon Sep 10 21:13:34 2018
### 

@<TRIPOS>MOLECULE
5j8i_ligand
   61    64     1     0     0
SMALL
GAST_HUCK


@<TRIPOS>ATOM
      1 C10       -16.2120  -49.1900  -18.2720 C.ar      1 6H4        -0.0489
      2 C11       -18.9530  -48.6430  -18.4300 C.ar      1 6H4        -0.0528
      3 C12       -18.1110  -47.8400  -17.6450 C.ar      1 6H4        -0.0489
      4 C13       -16.7380  -48.1220  -17.5640 C.ar      1 6H4         0.0530
      5 C15       -14.5830  -47.6040  -16.2210 C.ar      1 6H4         0.1960
      6 C17       -12.7050  -46.8330  -15.1030 C.ar      1 6H4         0.0179
      7 C18       -12.1670  -48.0880  -15.2070 C.ar      1 6H4         0.1095
      8 C20       -12.9040  -49.1020  -15.8520 C.ar      1 6H4         0.2036
      9 C01       -21.5710  -53.0520  -22.2310 C.3       1 6H4        -0.0430
     10 N02       -20.8690  -52.3470  -21.4180 N.4       1 6H4         0.2358
     11 C03       -21.3340  -51.0730  -21.3910 C.3       1 6H4        -0.0123
     12 C04       -20.6750  -50.2540  -20.2550 C.3       1 6H4         0.0649
     13 C05       -19.5380  -52.3840  -21.8020 C.3       1 6H4        -0.0123
     14 C06       -18.6800  -51.3000  -21.1260 C.3       1 6H4         0.0649
     15 N07       -19.2830  -50.6110  -19.9890 N.pl3     1 6H4        -0.3045
     16 C08       -18.4120  -49.7300  -19.1360 C.ar      1 6H4         0.0297
     17 C09       -17.0610  -50.0030  -19.0640 C.ar      1 6H4        -0.0528
     18 N14       -15.8750  -47.2510  -16.7340 N.pl3     1 6H4        -0.2509
     19 N16       -13.9000  -46.6340  -15.6140 N.ar      1 6H4        -0.2664
     20 CL19      -10.5530  -48.4260  -14.5350 Cl        1 6H4        -0.0729
     21 O21       -12.3400  -50.3930  -15.9470 O.3       1 6H4        -0.2387
     22 C22       -12.7460  -51.1240  -17.0890 C.ar      1 6H4         0.1453
     23 C23       -13.9080  -51.8690  -17.0660 C.ar      1 6H4        -0.0396
     24 C24       -14.2950  -52.6160  -18.2220 C.ar      1 6H4        -0.0844
     25 C25       -13.4890  -52.6090  -19.3930 C.ar      1 6H4        -0.0854
     26 C26       -12.3110  -51.8680  -19.4140 C.ar      1 6H4        -0.0474
     27 C27       -11.9270  -51.1290  -18.2690 C.ar      1 6H4         0.1029
     28 N28       -10.6910  -50.3620  -18.3040 N.am      1 6H4        -0.2354
     29 C29        -9.4390  -51.0040  -18.6600 C.2       1 6H4         0.2011
     30 C30        -8.1910  -50.1450  -18.6670 C.3       1 6H4         0.0399
     31 C31        -8.4720  -48.8640  -17.7520 C.3       1 6H4        -0.0478
     32 O32        -9.3770  -52.1440  -18.9270 O.2       1 6H4        -0.3860
     33 N33       -14.0960  -48.8180  -16.3360 N.ar      1 6H4        -0.2233
     34 H1        -15.1506  -49.4041  -18.2204 H         1 6H4         0.0507
     35 H2        -20.0133  -48.4258  -18.4909 H         1 6H4         0.0490
     36 H3        -18.5224  -46.9987  -17.0991 H         1 6H4         0.0507
     37 H4        -12.1636  -46.0303  -14.6156 H         1 6H4         0.0861
     38 H5        -22.6271  -53.0216  -21.9249 H         1 6H4         0.0778
     39 H6        -21.2147  -54.0926  -22.2158 H         1 6H4         0.0778
     40 H7        -21.4723  -52.6454  -23.2483 H         1 6H4         0.0778
     41 H8        -20.9491  -52.7385  -20.4926 H         1 6H4         0.2032
     42 H9        -22.4224  -51.0927  -21.2327 H         1 6H4         0.0834
     43 H10       -21.1123  -50.5908  -22.3545 H         1 6H4         0.0834
     44 H11       -21.2542  -50.4139  -19.3336 H         1 6H4         0.0562
     45 H12       -20.7115  -49.1898  -20.5310 H         1 6H4         0.0562
     46 H13       -19.4847  -52.2425  -22.8916 H         1 6H4         0.0834
     47 H14       -19.1260  -53.3696  -21.5396 H         1 6H4         0.0834
     48 H15       -18.4375  -50.5427  -21.8860 H         1 6H4         0.0562
     49 H16       -17.7531  -51.7772  -20.7750 H         1 6H4         0.0562
     50 H17       -16.6484  -50.8409  -19.6143 H         1 6H4         0.0490
     51 H18       -16.2327  -46.3124  -16.5058 H         1 6H4         0.2146
     52 H19       -14.5247  -51.8876  -16.1747 H         1 6H4         0.0512
     53 H20       -15.2122  -53.1935  -18.2054 H         1 6H4         0.0464
     54 H21       -13.7903  -53.1779  -20.2651 H         1 6H4         0.0495
     55 H22       -11.6905  -51.8567  -20.3028 H         1 6H4         0.0471
     56 H23       -10.7043  -49.3871  -18.0815 H         1 6H4         0.2229
     57 H24        -7.9616  -49.8272  -19.6948 H         1 6H4         0.0504
     58 H25        -7.3423  -50.7152  -18.2614 H         1 6H4         0.0504
     59 H26        -7.5801  -48.2203  -17.7385 H         1 6H4         0.0254
     60 H27        -8.7049  -49.1892  -16.7273 H         1 6H4         0.0254
     61 H28        -9.3242  -48.3012  -18.1607 H         1 6H4         0.0254
@<TRIPOS>BOND
     1    4    1 ar 
     2    1   17 ar 
     3    2    3 ar 
     4   16    2 ar 
     5    3    4 ar 
     6    4   18 1  
     7   18    5 1  
     8    5   19 ar 
     9    5   33 ar 
    10    6    7 ar 
    11   19    6 ar 
    12    8    7 ar 
    13    7   20 1  
    14    8   21 1  
    15   33    8 ar 
    16   10    9 1  
    17   11   10 1  
    18   13   10 1  
    19   12   11 1  
    20   15   12 1  
    21   14   13 1  
    22   15   14 1  
    23   15   16 1  
    24   16   17 ar 
    25   21   22 1  
    26   22   23 ar 
    27   22   27 ar 
    28   23   24 ar 
    29   24   25 ar 
    30   25   26 ar 
    31   26   27 ar 
    32   27   28 1  
    33   28   29 am 
    34   29   30 1  
    35   29   32 2  
    36   30   31 1  
    37    1   34 1  
    38    2   35 1  
    39    3   36 1  
    40    6   37 1  
    41    9   38 1  
    42    9   39 1  
    43    9   40 1  
    44   10   41 1  
    45   11   42 1  
    46   11   43 1  
    47   12   44 1  
    48   12   45 1  
    49   13   46 1  
    50   13   47 1  
    51   14   48 1  
    52   14   49 1  
    53   17   50 1  
    54   18   51 1  
    55   23   52 1  
    56   24   53 1  
    57   25   54 1  
    58   26   55 1  
    59   28   56 1  
    60   30   57 1  
    61   30   58 1  
    62   31   59 1  
    63   31   60 1  
    64   31   61 1  
@<TRIPOS>SUBSTRUCTURE
     1 6H4         1

