### 
### Created by X-TOOL on Wed Jan  1 15:39:34 2020
### 

@<TRIPOS>MOLECULE
5j8m_ligand
   31    33     1     0     0
SMALL
GAST_HUCK


@<TRIPOS>ATOM
      1 C1        -37.9100   -0.3220    9.0270 C.ar      1 6DL         0.0900
      2 C2        -38.4830   -1.6090    9.0300 C.ar      1 6DL        -0.0011
      3 C3        -39.8620   -1.7100    8.8150 C.ar      1 6DL         0.0963
      4 C9        -42.1200   -0.6480    8.4570 C.2       1 6DL         0.1645
      5 C12       -44.2560   -0.3640    8.9110 C.2       1 6DL         0.3444
      6 C14       -42.7240    0.7500   10.4630 C.ar      1 6DL         0.1297
      7 C15       -42.7410    2.1500   10.3550 C.ar      1 6DL         0.1589
      8 C16       -42.4280    2.9520   11.4540 C.ar      1 6DL        -0.0387
      9 C19       -42.4060    0.1580   11.6870 C.ar      1 6DL        -0.0354
     10 C4        -40.6550   -0.5620    8.6030 C.ar      1 6DL         0.0449
     11 C5        -40.0760    0.7060    8.6420 C.ar      1 6DL        -0.0568
     12 C6        -38.7230    0.8010    8.8480 C.ar      1 6DL         0.0301
     13 O7        -36.6010   -0.1140    9.3080 O.3       1 6DL        -0.3332
     14 O8        -40.4530   -2.9160    8.7600 O.3       1 6DL        -0.3311
     15 N10       -42.7760   -1.3040    7.5380 N.2       1 6DL        -0.2022
     16 N11       -44.1350   -1.1300    7.8070 N.am      1 6DL        -0.1731
     17 N13       -43.0220   -0.0540    9.3360 N.am      1 6DL        -0.1439
     18 C17       -42.0940    2.3580   12.6640 C.ar      1 6DL        -0.0767
     19 C18       -42.0910    0.9700   12.7760 C.ar      1 6DL        -0.0766
     20 O20       -45.2870   -0.0030    9.4460 O.2       1 6DL        -0.3936
     21 F21       -43.1010    2.7250    9.1880 F         1 6DL        -0.1910
     22 BR        -37.9870    2.5180    8.7780 Br        1 6DL        -0.0668
     23 H1        -37.8757   -2.4919    9.1935 H         1 6DL         0.0470
     24 H2        -42.4456    4.0321   11.3634 H         1 6DL         0.0568
     25 H3        -42.4040   -0.9211   11.7895 H         1 6DL         0.0517
     26 H4        -40.6810    1.5961    8.5125 H         1 6DL         0.0592
     27 H5        -36.1623   -0.9510    9.4054 H         1 6DL         0.2499
     28 H6        -39.8054   -3.5924    8.9201 H         1 6DL         0.2506
     29 H7        -44.8903   -1.5088    7.2722 H         1 6DL         0.2418
     30 H8        -41.8364    2.9729   13.5187 H         1 6DL         0.0497
     31 H9        -41.8394    0.5128   13.7262 H         1 6DL         0.0549
@<TRIPOS>BOND
     1    2    1 ar 
     2    1   12 ar 
     3    1   13 1  
     4    3    2 ar 
     5   10    3 ar 
     6    3   14 1  
     7    4   10 1  
     8    4   15 2  
     9   17    4 1  
    10    5   16 am 
    11   17    5 am 
    12    5   20 2  
    13    6    7 ar 
    14    6    9 ar 
    15    6   17 1  
    16    7    8 ar 
    17    7   21 1  
    18    8   18 ar 
    19    9   19 ar 
    20   10   11 ar 
    21   11   12 ar 
    22   12   22 1  
    23   15   16 1  
    24   18   19 ar 
    25    2   23 1  
    26    8   24 1  
    27    9   25 1  
    28   11   26 1  
    29   13   27 1  
    30   14   28 1  
    31   16   29 1  
    32   18   30 1  
    33   19   31 1  
@<TRIPOS>SUBSTRUCTURE
     1 6DL         1

