### 
### Created by X-TOOL on Wed Jan  1 15:39:34 2020
### 

@<TRIPOS>MOLECULE
5j8u_ligand
   31    33     1     0     0
SMALL
GAST_HUCK


@<TRIPOS>ATOM
      1 C1         37.9120   -0.0570   -9.1930 C.ar      1 6DL         0.0801
      2 C2         38.5030   -1.3270   -9.0760 C.ar      1 6DL        -0.0038
      3 C3         39.8740   -1.4260   -8.8380 C.ar      1 6DL         0.0933
      4 C9         42.1160   -0.3780   -8.6330 C.2       1 6DL         0.1636
      5 C12        44.2820   -0.1090   -9.0480 C.2       1 6DL         0.3444
      6 C14        42.7610    1.0740  -10.5590 C.ar      1 6DL         0.1297
      7 C15        42.9570    2.4500  -10.4340 C.ar      1 6DL         0.1589
      8 C16        42.6390    3.2890  -11.5010 C.ar      1 6DL        -0.0387
      9 C19        42.2600    0.5410  -11.7540 C.ar      1 6DL        -0.0354
     10 C4         40.6520   -0.2520   -8.7990 C.ar      1 6DL         0.0418
     11 C5         40.0480    1.0140   -8.9350 C.ar      1 6DL        -0.0666
     12 C6         38.6900    1.1170   -9.1660 C.ar      1 6DL        -0.0431
     13 O7         36.5990    0.0560   -9.4740 O.3       1 6DL        -0.3352
     14 O8         40.4820   -2.6270   -8.6630 O.3       1 6DL        -0.3330
     15 N10        42.7470   -1.1230   -7.7580 N.2       1 6DL        -0.2023
     16 N11        44.1200   -0.9510   -8.0010 N.am      1 6DL        -0.1732
     17 N13        43.0490    0.2350   -9.4640 N.am      1 6DL        -0.1440
     18 C17        42.1270    2.7610  -12.6830 C.ar      1 6DL        -0.0767
     19 C18        41.9270    1.3880  -12.8040 C.ar      1 6DL        -0.0766
     20 O20        45.3380    0.2720   -9.5480 O.2       1 6DL        -0.3936
     21 F21        43.4780    2.9390   -9.2820 F         1 6DL        -0.1910
     22 H1         37.8985   -2.2219   -9.1699 H         1 6DL         0.0463
     23 H2         42.7912    4.3584  -11.4098 H         1 6DL         0.0568
     24 H3         42.1324   -0.5303  -11.8592 H         1 6DL         0.0517
     25 H4         40.6518    1.9110   -8.8580 H         1 6DL         0.0563
     26 H5         38.2303    2.0859   -9.3240 H         1 6DL         0.0459
     27 H6         36.1979   -0.8051   -9.4592 H         1 6DL         0.2485
     28 H7         39.8337   -3.3194   -8.7150 H         1 6DL         0.2495
     29 H8         44.8592   -1.3818   -7.4832 H         1 6DL         0.2418
     30 H9         41.8839    3.4188  -13.5096 H         1 6DL         0.0497
     31 H10        41.5112    0.9798  -13.7181 H         1 6DL         0.0549
@<TRIPOS>BOND
     1    2    1 ar 
     2    1   12 ar 
     3    1   13 1  
     4    3    2 ar 
     5   10    3 ar 
     6    3   14 1  
     7    4   10 1  
     8    4   15 2  
     9   17    4 1  
    10    5   16 am 
    11   17    5 am 
    12    5   20 2  
    13    6    7 ar 
    14    6    9 ar 
    15    6   17 1  
    16    7    8 ar 
    17    7   21 1  
    18    8   18 ar 
    19    9   19 ar 
    20   10   11 ar 
    21   11   12 ar 
    22   15   16 1  
    23   18   19 ar 
    24    2   22 1  
    25    8   23 1  
    26    9   24 1  
    27   11   25 1  
    28   12   26 1  
    29   13   27 1  
    30   14   28 1  
    31   16   29 1  
    32   18   30 1  
    33   19   31 1  
@<TRIPOS>SUBSTRUCTURE
     1 6DL         1

