### 
### Created by X-TOOL on Mon Sep 10 21:13:26 2018
### 

@<TRIPOS>MOLECULE
5j8z_ligand
   48    50     1     0     0
SMALL
GAST_HUCK


@<TRIPOS>ATOM
      1 C16        -5.3970   12.3650   10.9580 C.ar      1 FC4        -0.0417
      2 C17        -6.4180   12.3420   10.0140 C.ar      1 FC4        -0.0389
      3 C18        -6.3090   11.5070    8.9200 C.ar      1 FC4         0.0486
      4 CL         -7.5760   11.4540    7.7440 Cl        1 FC4        -0.0631
      5 C19        -5.1990   10.7030    8.7560 C.ar      1 FC4        -0.0389
      6 C20        -4.1830   10.7380    9.7050 C.ar      1 FC4        -0.0417
      7 C15        -4.2680   11.5650   10.8200 C.ar      1 FC4         0.0134
      8 C13        -3.2300   11.5070   11.8750 C.2       1 FC4         0.0632
      9 N4         -3.0610   10.2560   12.4090 N.2       1 FC4        -0.2601
     10 C12        -2.4940   12.5820   12.2670 C.2       1 FC4         0.1552
     11 C14        -2.8000   13.8380   11.6790 C.1       1 FC4         0.0563
     12 N5         -3.0480   14.8570   11.2060 N.1       1 FC4        -0.3787
     13 C11        -1.4840   12.4020   13.2800 C.2       1 FC4         0.2377
     14 O4         -0.7640   13.3060   13.7280 O.2       1 FC4        -0.4034
     15 N3         -1.3650   11.1150   13.7630 N.am      1 FC4        -0.1776
     16 C10        -2.1430   10.0880   13.3300 C.2       1 FC4         0.2333
     17 S2         -1.8490    8.5210   14.1050 S.3       1 FC4         0.0142
     18 C9         -2.4950    7.8990   11.4640 C.3       1 FC4        -0.0319
     19 C8         -2.2030    7.2620   12.8240 C.3       1 FC4         0.1245
     20 C7         -3.3760    6.4080   13.3070 C.2       1 FC4         0.2202
     21 N2         -3.0380    5.1430   13.6330 N.am      1 FC4        -0.2328
     22 C6         -5.7850    3.3060   15.3390 C.ar      1 FC4        -0.0490
     23 C5         -5.1390    4.2950   14.6240 C.ar      1 FC4        -0.0394
     24 C4         -3.7660    4.2210   14.4120 C.ar      1 FC4         0.0664
     25 O3         -4.5000    6.8510   13.3750 O.2       1 FC4        -0.3834
     26 C3         -3.0530    3.1470   14.9320 C.ar      1 FC4        -0.0394
     27 C2         -3.7070    2.1660   15.6500 C.ar      1 FC4        -0.0490
     28 C1         -5.0700    2.2420   15.8520 C.ar      1 FC4         0.0924
     29 S1         -5.9010    0.9680   16.7340 S.o2      1 FC4         0.0591
     30 O2         -5.4550    1.1040   18.0870 O.2       1 FC4        -0.1524
     31 O1         -7.3080    1.1070   16.5200 O.2       1 FC4        -0.1524
     32 N1         -5.4180   -0.4580   16.2000 N.am      1 FC4        -0.2626
     33 H1         -5.4829   13.0192   11.8180 H         1 FC4         0.0694
     34 H2         -7.2907   12.9734   10.1360 H         1 FC4         0.0643
     35 H3         -5.1199   10.0497    7.8946 H         1 FC4         0.0643
     36 H4         -3.3095   10.1097    9.5734 H         1 FC4         0.0694
     37 H5         -0.6754   10.9295   14.4630 H         1 FC4         0.2625
     38 H6         -2.7016    7.1097   10.7262 H         1 FC4         0.0268
     39 H7         -1.6230    8.4855   11.1390 H         1 FC4         0.0268
     40 H8         -3.3703    8.5597   11.5489 H         1 FC4         0.0268
     41 H9         -1.3195    6.6162   12.7130 H         1 FC4         0.0697
     42 H10        -2.1613    4.8191   13.2774 H         1 FC4         0.2257
     43 H11        -6.8557    3.3650   15.4979 H         1 FC4         0.0596
     44 H12        -5.7031    5.1312   14.2269 H         1 FC4         0.0503
     45 H13        -1.9827    3.0798   14.7736 H         1 FC4         0.0503
     46 H14        -3.1471    1.3318   16.0572 H         1 FC4         0.0596
     47 H15        -5.7949   -1.2946   16.5975 H         1 FC4         0.1633
     48 H16        -4.7387   -0.5140   15.4682 H         1 FC4         0.1633
@<TRIPOS>BOND
     1    1    2 ar 
     2    7    1 ar 
     3    2    3 ar 
     4    3    4 1  
     5    5    3 ar 
     6    6    5 ar 
     7    7    6 ar 
     8    8    7 1  
     9    9    8 1  
    10    8   10 2  
    11   16    9 2  
    12   10   11 1  
    13   13   10 1  
    14   11   12 3  
    15   13   14 2  
    16   15   13 am 
    17   16   15 1  
    18   17   16 1  
    19   19   17 1  
    20   19   18 1  
    21   20   19 1  
    22   21   20 am 
    23   20   25 2  
    24   24   21 1  
    25   23   22 ar 
    26   22   28 ar 
    27   23   24 ar 
    28   24   26 ar 
    29   26   27 ar 
    30   27   28 ar 
    31   28   29 1  
    32   29   30 2  
    33   29   31 2  
    34   29   32 am 
    35    1   33 1  
    36    2   34 1  
    37    5   35 1  
    38    6   36 1  
    39   15   37 1  
    40   18   38 1  
    41   18   39 1  
    42   18   40 1  
    43   19   41 1  
    44   21   42 1  
    45   22   43 1  
    46   23   44 1  
    47   26   45 1  
    48   27   46 1  
    49   32   47 1  
    50   32   48 1  
@<TRIPOS>SUBSTRUCTURE
     1 FC4         1

