### 
### Created by X-TOOL on Mon Sep 10 21:13:27 2018
### 

@<TRIPOS>MOLECULE
5j9f_ligand
   53    55     1     0     0
SMALL
GAST_HUCK


@<TRIPOS>ATOM
      1 C1         25.4910  -13.2500  -23.2390 C.2       1 83A         0.1590
      2 N1         23.9990  -12.2770  -24.7830 N.am      1 83A        -0.2566
      3 O1         23.7610  -14.4480  -24.2530 O.2       1 83A        -0.3846
      4 C2         24.3960  -13.3720  -24.1020 C.2       1 83A         0.2163
      5 N2         25.6660  -10.9470  -23.8550 N.pl3     1 83A        -0.2068
      6 O2         24.3750   -9.7740  -15.0250 O.2       1 83A        -0.3908
      7 C3         24.6030  -11.0900  -24.6530 C.cat     1 83A         0.1958
      8 N3         24.1410   -9.9820  -25.4030 N.pl3     1 83A        -0.3348
      9 O3         26.2820   -5.4810  -15.9540 O.co2     1 83A        -0.5666
     10 C4         26.1150  -11.9780  -23.1480 C.2       1 83A         0.2721
     11 N4         27.1360  -12.0620  -22.2890 N.pl3     1 83A        -0.1623
     12 O4         27.3350   -6.8570  -17.3350 O.co2     1 83A        -0.5666
     13 C5         27.2870  -13.2920  -21.7550 C.2       1 83A         0.1386
     14 N5         26.5100  -14.2540  -19.2180 N.pl3     1 83A        -0.3156
     15 O5         28.0650   -6.8780  -11.2810 O.co2     1 83A        -0.5690
     16 C6         26.2520  -14.0210  -22.3570 C.2       1 83A         0.0391
     17 N6         26.4370   -8.9590  -15.8520 N.am      1 83A        -0.2725
     18 O6         29.7330   -8.2070  -11.7830 O.co2     1 83A        -0.5690
     19 C7         28.3660  -13.6630  -20.7650 C.3       1 83A         0.0643
     20 C8         27.8610  -14.6140  -19.6830 C.3       1 83A         0.0496
     21 C9         26.1690  -13.1830  -18.3460 C.ar      1 83A         0.0435
     22 C10        24.8340  -12.9270  -18.0090 C.ar      1 83A        -0.0382
     23 C11        24.5370  -11.8640  -17.1620 C.ar      1 83A        -0.0535
     24 C12        25.5890  -11.1040  -16.6570 C.ar      1 83A         0.0362
     25 C13        26.9110  -11.3760  -16.9960 C.ar      1 83A        -0.0535
     26 C14        27.2100  -12.4290  -17.8410 C.ar      1 83A        -0.0382
     27 C15        25.3660   -9.9010  -15.7340 C.2       1 83A         0.1968
     28 C16        26.6290   -7.7210  -15.1860 C.3       1 83A         0.0951
     29 C17        26.7540   -6.6260  -16.2220 C.2       1 83A         0.0601
     30 C18        27.9260   -7.7820  -14.3950 C.3       1 83A        -0.0064
     31 C19        27.7050   -8.4800  -13.0650 C.3       1 83A         0.0038
     32 C20        28.5460   -7.8180  -11.9830 C.2       1 83A         0.0350
     33 H1         23.2233  -12.3555  -25.4092 H         1 83A         0.1812
     34 H2         26.1385  -10.0342  -23.7882 H         1 83A         0.2419
     35 H3         23.3227  -10.0831  -26.0203 H         1 83A         0.1762
     36 H4         24.6231   -9.0746  -25.3314 H         1 83A         0.1762
     37 H5         27.7473  -11.2660  -22.0575 H         1 83A         0.2626
     38 H6         25.7329  -14.8376  -19.5593 H         1 83A         0.1778
     39 H7         26.0617  -15.0747  -22.1585 H         1 83A         0.0724
     40 H8         27.1563   -9.2105  -16.4996 H         1 83A         0.1864
     41 H9         28.7351  -12.7451  -20.2842 H         1 83A         0.0676
     42 H10        29.1902  -14.1501  -21.3067 H         1 83A         0.0676
     43 H11        27.8356  -15.6350  -20.0914 H         1 83A         0.0565
     44 H12        28.5521  -14.5781  -18.8280 H         1 83A         0.0565
     45 H13        24.0402  -13.5507  -18.4040 H         1 83A         0.0530
     46 H14        23.5106  -11.6327  -16.9012 H         1 83A         0.0636
     47 H15        27.7089  -10.7605  -16.5964 H         1 83A         0.0636
     48 H16        28.2373  -12.6572  -18.1009 H         1 83A         0.0530
     49 H17        25.7824   -7.5161  -14.5142 H         1 83A         0.0726
     50 H18        28.2866   -6.7591  -14.2115 H         1 83A         0.0323
     51 H19        28.6779   -8.3374  -14.9748 H         1 83A         0.0323
     52 H20        27.9951   -9.5371  -13.1559 H         1 83A         0.0432
     53 H21        26.6417   -8.4138  -12.7912 H         1 83A         0.0432
@<TRIPOS>BOND
     1    1    4 1  
     2    1   10 2  
     3   16    1 1  
     4    4    2 am 
     5    2    7 ar 
     6    4    3 2  
     7    5    7 ar 
     8   10    5 1  
     9   27    6 2  
    10    7    8 ar 
    11   29    9 ar 
    12   11   10 1  
    13   13   11 1  
    14   29   12 ar 
    15   13   16 2  
    16   19   13 1  
    17   14   20 1  
    18   21   14 1  
    19   32   15 ar 
    20   17   27 am 
    21   28   17 1  
    22   32   18 ar 
    23   20   19 1  
    24   22   21 ar 
    25   26   21 ar 
    26   23   22 ar 
    27   24   23 ar 
    28   24   25 ar 
    29   27   24 1  
    30   25   26 ar 
    31   28   29 1  
    32   30   28 1  
    33   31   30 1  
    34   31   32 1  
    35    2   33 1  
    36    5   34 1  
    37    8   35 1  
    38    8   36 1  
    39   11   37 1  
    40   14   38 1  
    41   16   39 1  
    42   17   40 1  
    43   19   41 1  
    44   19   42 1  
    45   20   43 1  
    46   20   44 1  
    47   22   45 1  
    48   23   46 1  
    49   25   47 1  
    50   26   48 1  
    51   28   49 1  
    52   30   50 1  
    53   30   51 1  
    54   31   52 1  
    55   31   53 1  
@<TRIPOS>SUBSTRUCTURE
     1 83A         1

