### 
### Created by X-TOOL on Mon Sep 10 21:13:33 2018
### 

@<TRIPOS>MOLECULE
5j9l_ligand
   63    67     1     0     0
SMALL
GAST_HUCK


@<TRIPOS>ATOM
      1 C01       -22.0300  -50.8920  -22.2300 C.3       1 6HF        -0.0430
      2 N02       -21.8750  -51.3680  -21.0270 N.4       1 6HF         0.2358
      3 C03       -22.2680  -50.4780  -20.0610 C.3       1 6HF        -0.0123
      4 C04       -21.2560  -49.3460  -19.8260 C.3       1 6HF         0.0649
      5 C05       -20.6000  -51.8800  -20.8130 C.3       1 6HF        -0.0123
      6 C06       -19.5440  -50.7870  -20.5850 C.3       1 6HF         0.0649
      7 N07       -19.9120  -49.8570  -19.5380 N.pl3     1 6HF        -0.3046
      8 C08       -18.9050  -49.0240  -18.8450 C.ar      1 6HF         0.0295
      9 C09       -19.3230  -48.0820  -17.8690 C.ar      1 6HF        -0.0530
     10 C10       -18.3790  -47.2910  -17.2030 C.ar      1 6HF        -0.0492
     11 C11       -17.5560  -49.1560  -19.1400 C.ar      1 6HF        -0.0530
     12 C12       -16.6100  -48.3630  -18.4770 C.ar      1 6HF        -0.0492
     13 C13       -17.0270  -47.4260  -17.5010 C.ar      1 6HF         0.0515
     14 N14       -16.0520  -46.6010  -16.8090 N.pl3     1 6HF        -0.2573
     15 C15       -14.8480  -47.1980  -16.2240 C.ar      1 6HF         0.1743
     16 N16       -14.0150  -46.4190  -15.5330 N.ar      1 6HF        -0.2631
     17 C17       -12.8690  -46.9170  -14.9660 C.ar      1 6HF         0.1235
     18 C18       -12.5880  -48.2480  -15.1250 C.ar      1 6HF         0.0469
     19 C19       -11.3870  -48.4690  -14.4550 C.2       1 6HF        -0.0599
     20 C20       -10.9750  -47.2610  -13.9110 C.2       1 6HF         0.0198
     21 N21       -11.8790  -46.3410  -14.2280 N.pl3     1 6HF        -0.2716
     22 C22       -13.5030  -49.0610  -15.8860 C.ar      1 6HF         0.1842
     23 O23       -13.2450  -50.4430  -16.0530 O.3       1 6HF        -0.2433
     24 C24       -13.3370  -50.8950  -17.3910 C.ar      1 6HF         0.1097
     25 C25       -14.4780  -51.5310  -17.8280 C.ar      1 6HF        -0.0391
     26 C26       -14.5660  -51.9970  -19.1490 C.ar      1 6HF        -0.0470
     27 C27       -13.5040  -51.8190  -20.0200 C.ar      1 6HF         0.0569
     28 N28       -13.5710  -52.3090  -21.4090 N.am      1 6HF        -0.2397
     29 C29       -14.8400  -52.2830  -22.1970 C.2       1 6HF         0.2202
     30 C30       -14.8320  -52.8220  -23.6480 C.2       1 6HF         0.0137
     31 C31       -15.9780  -53.0550  -24.2910 C.2       1 6HF        -0.0783
     32 O32       -15.8530  -51.8550  -21.7170 O.2       1 6HF        -0.3775
     33 C33       -12.3580  -51.1940  -19.5780 C.ar      1 6HF        -0.0470
     34 C34       -12.2710  -50.7290  -18.2580 C.ar      1 6HF        -0.0391
     35 N35       -14.6020  -48.5010  -16.3970 N.ar      1 6HF        -0.2402
     36 H1        -23.0527  -50.5025  -22.3412 H         1 6HF         0.0778
     37 H2        -21.8603  -51.6920  -22.9656 H         1 6HF         0.0778
     38 H3        -21.3079  -50.0795  -22.3987 H         1 6HF         0.0778
     39 H4        -22.5036  -52.1526  -20.9540 H         1 6HF         0.2032
     40 H5        -22.4039  -51.0257  -19.1168 H         1 6HF         0.0834
     41 H6        -23.2256  -50.0315  -20.3670 H         1 6HF         0.0834
     42 H7        -21.5947  -48.7391  -18.9734 H         1 6HF         0.0562
     43 H8        -21.2107  -48.7181  -20.7280 H         1 6HF         0.0562
     44 H9        -20.3076  -52.4716  -21.6931 H         1 6HF         0.0834
     45 H10       -20.6279  -52.5307  -19.9265 H         1 6HF         0.0834
     46 H11       -19.4116  -50.2261  -21.5219 H         1 6HF         0.0562
     47 H12       -18.5945  -51.2686  -20.3086 H         1 6HF         0.0562
     48 H13       -20.3767  -47.9746  -17.6384 H         1 6HF         0.0489
     49 H14       -18.7013  -46.5744  -16.4562 H         1 6HF         0.0506
     50 H15       -17.2330  -49.8741  -19.8850 H         1 6HF         0.0489
     51 H16       -15.5569  -48.4671  -18.7118 H         1 6HF         0.0506
     52 H17       -16.2084  -45.5861  -16.7286 H         1 6HF         0.2126
     53 H18       -10.8643  -49.4208  -14.3728 H         1 6HF         0.0295
     54 H19       -10.0705  -47.0963  -13.3274 H         1 6HF         0.0879
     55 H20       -11.8381  -45.3478  -13.9582 H         1 6HF         0.2298
     56 H21       -15.3112  -51.6721  -17.1490 H         1 6HF         0.0525
     57 H22       -15.4662  -52.4968  -19.4879 H         1 6HF         0.0483
     58 H23       -12.7420  -52.6696  -21.8365 H         1 6HF         0.2220
     59 H24       -13.8836  -53.0126  -24.1482 H         1 6HF         0.0697
     60 H25       -15.9623  -53.4342  -25.3117 H         1 6HF         0.0685
     61 H26       -16.9289  -52.8659  -23.7950 H         1 6HF         0.0685
     62 H27       -11.5206  -51.0614  -20.2534 H         1 6HF         0.0483
     63 H28       -11.3669  -50.2385  -17.9159 H         1 6HF         0.0525
@<TRIPOS>BOND
     1    1    2 1  
     2    2    3 1  
     3    2    5 1  
     4    3    4 1  
     5    4    7 1  
     6    5    6 1  
     7    6    7 1  
     8    7    8 1  
     9    8    9 ar 
    10    8   11 ar 
    11    9   10 ar 
    12   10   13 ar 
    13   11   12 ar 
    14   12   13 ar 
    15   13   14 1  
    16   14   15 1  
    17   15   16 ar 
    18   15   35 ar 
    19   16   17 ar 
    20   17   18 ar 
    21   17   21 1  
    22   18   19 1  
    23   18   22 ar 
    24   19   20 2  
    25   20   21 1  
    26   22   23 1  
    27   22   35 ar 
    28   23   24 1  
    29   24   25 ar 
    30   24   34 ar 
    31   25   26 ar 
    32   26   27 ar 
    33   27   28 1  
    34   27   33 ar 
    35   28   29 am 
    36   29   30 1  
    37   29   32 2  
    38   30   31 2  
    39   33   34 ar 
    40    1   36 1  
    41    1   37 1  
    42    1   38 1  
    43    2   39 1  
    44    3   40 1  
    45    3   41 1  
    46    4   42 1  
    47    4   43 1  
    48    5   44 1  
    49    5   45 1  
    50    6   46 1  
    51    6   47 1  
    52    9   48 1  
    53   10   49 1  
    54   11   50 1  
    55   12   51 1  
    56   14   52 1  
    57   19   53 1  
    58   20   54 1  
    59   21   55 1  
    60   25   56 1  
    61   26   57 1  
    62   28   58 1  
    63   30   59 1  
    64   31   60 1  
    65   31   61 1  
    66   33   62 1  
    67   34   63 1  
@<TRIPOS>SUBSTRUCTURE
     1 6HF         1

