### 
### Created by X-TOOL on Wed Jan  1 15:39:34 2020
### 

@<TRIPOS>MOLECULE
5j9x_ligand
   51    53     1     0     0
SMALL
GAST_HUCK


@<TRIPOS>ATOM
      1 C1          0.0920   38.0230  -24.6890 C.ar      1 6GC        -0.0099
      2 C2         -0.3750   33.1730  -23.1650 C.ar      1 6GC         0.1386
      3 C3         -1.6520   33.4700  -23.6440 C.ar      1 6GC         0.0363
      4 C7          0.8110   33.6700  -23.8650 C.ar      1 6GC         0.1059
      5 C8         -0.6750   35.6050  -26.6490 C.2       1 6GC         0.2264
      6 C14        -0.4010   37.3680  -27.9300 C.2       1 6GC         0.3091
      7 C16         0.6420   37.4450  -25.8300 C.ar      1 6GC         0.1289
      8 C19         2.2100   38.6950  -23.7750 C.ar      1 6GC        -0.0373
      9 C20         2.2490   33.3670  -23.5020 C.2       1 6GC         0.2093
     10 C24         4.8600   32.0010  -25.1690 C.3       1 6GC        -0.0329
     11 C27         6.9100   31.5660  -26.5190 C.3       1 6GC        -0.0652
     12 C4         -1.7920   34.2600  -24.7860 C.ar      1 6GC         0.1458
     13 C5         -0.5900   34.7380  -25.4770 C.ar      1 6GC         0.1256
     14 C6          0.6470   34.4260  -24.9860 C.ar      1 6GC        -0.0003
     15 N9         -1.4020   35.3850  -27.7800 N.pl3     1 6GC        -0.1595
     16 N10        -0.1200   36.8410  -26.7620 N.2       1 6GC        -0.1852
     17 O11        -3.0020   34.5790  -25.3110 O.3       1 6GC        -0.3071
     18 O12        -0.2020   32.4230  -22.0540 O.3       1 6GC        -0.3068
     19 N13        -1.1860   36.5170  -28.5790 N.am      1 6GC        -0.1561
     20 O15         0.0000   38.5170  -28.3110 O.2       1 6GC        -0.3558
     21 C17         2.1030   37.5390  -25.9060 C.ar      1 6GC         0.1935
     22 C18         2.8460   38.1470  -24.8930 C.ar      1 6GC         0.0031
     23 N21         2.7550   32.1640  -23.8240 N.am      1 6GC        -0.2766
     24 O22         2.9340   34.2370  -23.0180 O.2       1 6GC        -0.3884
     25 C23         4.2020   31.7900  -23.7930 C.3       1 6GC         0.0328
     26 C25         0.8290   38.6250  -23.6700 C.ar      1 6GC        -0.0372
     27 C26         1.8890   31.0690  -24.2290 C.3       1 6GC         0.0218
     28 C28         6.0860   31.1070  -25.3450 C.3       1 6GC        -0.0541
     29 F29         2.6690   37.0180  -27.0030 F         1 6GC        -0.1555
     30 H1         -0.9869   38.0036  -24.5854 H         1 6GC         0.0774
     31 H2         -2.5289   33.0897  -23.1326 H         1 6GC         0.0557
     32 H3          2.7928   39.1716  -22.9951 H         1 6GC         0.0825
     33 H4          5.1684   33.0529  -25.2605 H         1 6GC         0.0285
     34 H5          4.1285   31.7636  -25.9554 H         1 6GC         0.0285
     35 H6          7.7870   30.9113  -26.6297 H         1 6GC         0.0230
     36 H7          7.2437   32.6005  -26.3507 H         1 6GC         0.0230
     37 H8          6.3013   31.5214  -27.4341 H         1 6GC         0.0230
     38 H9          1.5253   34.7919  -25.5053 H         1 6GC         0.0821
     39 H10        -1.9844   34.5646  -28.0005 H         1 6GC         0.2391
     40 H11        -3.6887   34.2092  -24.7686 H         1 6GC         0.2640
     41 H12        -1.0502   32.1720  -21.7075 H         1 6GC         0.2653
     42 H13        -1.5639   36.6605  -29.4937 H         1 6GC         0.2205
     43 H14         3.9259   38.1948  -24.9738 H         1 6GC         0.0678
     44 H15         4.7182   32.4141  -23.0487 H         1 6GC         0.0521
     45 H16         4.2931   30.7309  -23.5101 H         1 6GC         0.0521
     46 H17         0.3261   39.0354  -22.8018 H         1 6GC         0.0681
     47 H18         0.8432   31.4100  -24.2307 H         1 6GC         0.0485
     48 H19         2.0008   30.2327  -23.5232 H         1 6GC         0.0485
     49 H20         2.1676   30.7357  -25.2396 H         1 6GC         0.0485
     50 H21         5.7572   30.0714  -25.5165 H         1 6GC         0.0263
     51 H22         6.6996   31.1506  -24.4331 H         1 6GC         0.0263
@<TRIPOS>BOND
     1    7    1 ar 
     2    1   26 ar 
     3    2    3 ar 
     4    4    2 ar 
     5    2   18 1  
     6    3   12 ar 
     7    9    4 1  
     8    4   14 ar 
     9   13    5 1  
    10    5   15 1  
    11    5   16 2  
    12   16    6 1  
    13    6   19 am 
    14    6   20 2  
    15   16    7 1  
    16    7   21 ar 
    17   22    8 ar 
    18   26    8 ar 
    19   23    9 am 
    20    9   24 2  
    21   25   10 1  
    22   10   28 1  
    23   28   11 1  
    24   13   12 ar 
    25   12   17 1  
    26   14   13 ar 
    27   15   19 1  
    28   21   22 ar 
    29   21   29 1  
    30   23   25 1  
    31   23   27 1  
    32    1   30 1  
    33    3   31 1  
    34    8   32 1  
    35   10   33 1  
    36   10   34 1  
    37   11   35 1  
    38   11   36 1  
    39   11   37 1  
    40   14   38 1  
    41   15   39 1  
    42   17   40 1  
    43   18   41 1  
    44   19   42 1  
    45   22   43 1  
    46   25   44 1  
    47   25   45 1  
    48   26   46 1  
    49   27   47 1  
    50   27   48 1  
    51   27   49 1  
    52   28   50 1  
    53   28   51 1  
@<TRIPOS>SUBSTRUCTURE
     1 6GC         1

