### 
### Created by X-TOOL on Mon Sep 10 21:13:28 2018
### 

@<TRIPOS>MOLECULE
5j9y_ligand
   54    58     1     0     0
SMALL
GAST_HUCK


@<TRIPOS>ATOM
      1 C4          0.3200   51.3760  -21.1830 C.ar      1 6HL         0.1644
      2 C5          0.6700   52.0520  -22.2970 C.ar      1 6HL         0.0878
      3 C6          1.6200   53.0430  -22.1750 C.ar      1 6HL         0.1276
      4 N1          2.1870   53.3420  -20.9860 N.ar      1 6HL        -0.2655
      5 N3          0.8540   51.6460  -19.9690 N.ar      1 6HL        -0.2672
      6 CBC        -6.0340   50.1080  -18.1340 C.3       1 6HL        -0.0482
      7 CBB        -5.2880   50.1840  -19.4090 C.3       1 6HL         0.0346
      8 CAZ        -4.7060   48.7910  -19.4990 C.2       1 6HL         0.1783
      9 OBA        -5.2930   47.8770  -18.9260 O.2       1 6HL        -0.3969
     10 NAW        -3.5740   48.5880  -20.1660 N.am      1 6HL        -0.2702
     11 CAX        -2.8130   49.5860  -20.9590 C.3       1 6HL         0.0653
     12 CAV        -3.0390   47.2530  -20.1740 C.3       1 6HL         0.0341
     13 CAU        -1.6630   47.3460  -19.5840 C.3       1 6HL        -0.0296
     14 CAT        -0.7710   48.0540  -20.5840 C.3       1 6HL        -0.0176
     15 CAY        -1.2880   49.5220  -20.6260 C.3       1 6HL         0.1018
     16 NAM        -0.5790   50.4610  -21.5360 N.pl3     1 6HL        -0.1771
     17 NAN        -0.8150   50.5230  -22.7140 N.2       1 6HL        -0.1912
     18 C2          1.8230   52.6580  -19.8390 C.ar      1 6HL         0.0567
     19 NBD         2.0240   53.7870  -23.2310 N.pl3     1 6HL        -0.3126
     20 CAO        -0.0850   51.4670  -23.2800 C.2       1 6HL         0.0744
     21 CAC        -0.1650   51.7280  -24.6200 C.ar      1 6HL         0.0002
     22 CAD         0.9480   51.6310  -25.4840 C.ar      1 6HL        -0.0100
     23 CAG         2.1970   51.2270  -25.0260 C.ar      1 6HL        -0.0537
     24 CAH         3.3270   51.1320  -25.8500 C.ar      1 6HL        -0.0613
     25 CAI         3.2220   51.4170  -27.2010 C.ar      1 6HL        -0.0614
     26 CAJ         1.9720   51.8230  -27.6930 C.ar      1 6HL        -0.0543
     27 CAE         0.8550   51.9290  -26.8500 C.ar      1 6HL        -0.0180
     28 CAF        -0.3610   52.3140  -27.3920 C.ar      1 6HL        -0.0548
     29 CAA        -1.4820   52.4070  -26.5710 C.ar      1 6HL        -0.0615
     30 CAB        -1.3870   52.1130  -25.2070 C.ar      1 6HL        -0.0537
     31 H1         -6.5204   51.0745  -17.9356 H         1 6HL         0.0254
     32 H2         -5.3379   49.8730  -17.3153 H         1 6HL         0.0254
     33 H3         -6.7985   49.3201  -18.2029 H         1 6HL         0.0254
     34 H4         -4.4978   50.9481  -19.3677 H         1 6HL         0.0500
     35 H5         -5.9583   50.3952  -20.2552 H         1 6HL         0.0500
     36 H6         -3.1898   50.5929  -20.7265 H         1 6HL         0.0553
     37 H7         -2.9561   49.3791  -22.0298 H         1 6HL         0.0553
     38 H8         -2.9865   46.8701  -21.2039 H         1 6HL         0.0522
     39 H9         -3.6693   46.5867  -19.5667 H         1 6HL         0.0522
     40 H10        -1.2731   46.3368  -19.3852 H         1 6HL         0.0286
     41 H11        -1.6975   47.9174  -18.6447 H         1 6HL         0.0286
     42 H12        -0.8569   47.5865  -21.5760 H         1 6HL         0.0297
     43 H13         0.2779   48.0240  -20.2540 H         1 6HL         0.0297
     44 H14        -1.1545   49.9151  -19.6073 H         1 6HL         0.0683
     45 H15         2.2670   52.8927  -18.8783 H         1 6HL         0.1030
     46 H16         2.7366   54.5195  -23.1024 H         1 6HL         0.1841
     47 H17         1.6189   53.6207  -24.1633 H         1 6HL         0.1841
     48 H18         2.3024   50.9723  -23.9776 H         1 6HL         0.0624
     49 H19         4.2816   50.8359  -25.4303 H         1 6HL         0.0616
     50 H20         4.0793   51.3292  -27.8586 H         1 6HL         0.0617
     51 H21         1.8671   52.0596  -28.7457 H         1 6HL         0.0622
     52 H22        -0.4391   52.5415  -28.4490 H         1 6HL         0.0616
     53 H23        -2.4342   52.7092  -26.9918 H         1 6HL         0.0616
     54 H24        -2.2735   52.1829  -24.5871 H         1 6HL         0.0616
@<TRIPOS>BOND
     1    1    2 ar 
     2    1    5 ar 
     3   16    1 1  
     4    2    3 ar 
     5    2   20 1  
     6    3    4 ar 
     7    3   19 1  
     8   18    4 ar 
     9    5   18 ar 
    10    7    6 1  
    11    8    7 1  
    12    8    9 2  
    13   10    8 am 
    14   11   10 1  
    15   10   12 1  
    16   15   11 1  
    17   13   12 1  
    18   14   13 1  
    19   15   14 1  
    20   15   16 1  
    21   16   17 1  
    22   17   20 2  
    23   20   21 1  
    24   21   22 ar 
    25   21   30 ar 
    26   22   23 ar 
    27   22   27 ar 
    28   23   24 ar 
    29   24   25 ar 
    30   25   26 ar 
    31   26   27 ar 
    32   27   28 ar 
    33   28   29 ar 
    34   29   30 ar 
    35    6   31 1  
    36    6   32 1  
    37    6   33 1  
    38    7   34 1  
    39    7   35 1  
    40   11   36 1  
    41   11   37 1  
    42   12   38 1  
    43   12   39 1  
    44   13   40 1  
    45   13   41 1  
    46   14   42 1  
    47   14   43 1  
    48   15   44 1  
    49   18   45 1  
    50   19   46 1  
    51   19   47 1  
    52   23   48 1  
    53   24   49 1  
    54   25   50 1  
    55   26   51 1  
    56   28   52 1  
    57   29   53 1  
    58   30   54 1  
@<TRIPOS>SUBSTRUCTURE
     1 6HL         1

