### 
### Created by X-TOOL on Mon Sep 10 21:13:28 2018
### 

@<TRIPOS>MOLECULE
5j9z_ligand
   55    59     1     0     0
SMALL
GAST_HUCK


@<TRIPOS>ATOM
      1 C4          0.3610   52.4060  -21.8680 C.ar      1 6HJ         0.1593
      2 C5          0.8130   53.0520  -22.9830 C.ar      1 6HJ         0.0805
      3 C6          1.7890   53.9950  -22.7610 C.ar      1 6HJ         0.1262
      4 N1          2.2750   54.2680  -21.5300 N.ar      1 6HJ        -0.2662
      5 N3          0.8130   52.6280  -20.6170 N.ar      1 6HJ        -0.2685
      6 CBD        -6.3730   51.3340  -19.6610 C.3       1 6HJ        -0.0482
      7 CBB        -5.4800   51.0000  -20.8480 C.3       1 6HJ         0.0346
      8 CBA        -4.6360   49.7990  -20.3740 C.2       1 6HJ         0.1783
      9 OBC        -5.1250   49.0330  -19.5470 O.2       1 6HJ        -0.3969
     10 NAW        -3.4220   49.5560  -20.9180 N.am      1 6HJ        -0.2703
     11 CAX        -2.7200   50.3480  -21.9340 C.3       1 6HJ         0.0647
     12 CAV        -2.7330   48.3530  -20.4860 C.3       1 6HJ         0.0341
     13 CAU        -1.4850   48.7870  -19.8190 C.3       1 6HJ        -0.0297
     14 CAT        -0.5960   49.4320  -20.8710 C.3       1 6HJ        -0.0182
     15 CAS        -1.3220   50.6760  -21.3270 C.3       1 6HJ         0.0985
     16 NAG        -0.5500   51.5280  -22.2330 N.pl3     1 6HJ        -0.1877
     17 NAH        -0.7240   51.6060  -23.5950 N.2       1 6HJ        -0.2143
     18 C2          1.7790   53.5660  -20.4270 C.ar      1 6HJ         0.0560
     19 NAY         2.2770   54.7330  -23.7600 N.pl3     1 6HJ        -0.3127
     20 CAI         0.1350   52.4920  -24.0610 C.2       1 6HJ         0.0473
     21 CAJ         0.1490   52.7000  -25.4140 C.2       1 6HJ        -0.0028
     22 CAK         1.1960   52.5550  -26.2550 C.ar      1 6HJ        -0.0147
     23 CAO         2.4890   52.2310  -26.0570 C.ar      1 6HJ        -0.0731
     24 CAP         3.3990   52.2030  -27.1590 C.ar      1 6HJ        -0.0781
     25 CAQ         2.9250   52.5120  -28.4650 C.ar      1 6HJ        -0.0755
     26 CAR         1.5670   52.8280  -28.6070 C.ar      1 6HJ        -0.0418
     27 CAL         0.7580   52.8330  -27.5020 C.ar      1 6HJ         0.0695
     28 NAM        -0.5550   53.0780  -27.4030 N.pl3     1 6HJ        -0.2634
     29 CAZ        -1.4230   53.4410  -28.5070 C.3       1 6HJ         0.0424
     30 CAN        -0.9360   52.9770  -26.1410 C.2       1 6HJ         0.0401
     31 H1         -7.0159   52.1896  -19.9152 H         1 6HJ         0.0254
     32 H2         -5.7482   51.5901  -18.7927 H         1 6HJ         0.0254
     33 H3         -7.0001   50.4637  -19.4176 H         1 6HJ         0.0254
     34 H4         -4.8335   51.8536  -21.1000 H         1 6HJ         0.0500
     35 H5         -6.0855   50.7271  -21.7249 H         1 6HJ         0.0500
     36 H6         -3.2725   51.2753  -22.1458 H         1 6HJ         0.0553
     37 H7         -2.6080   49.7678  -22.8618 H         1 6HJ         0.0553
     38 H8         -2.4972   47.7199  -21.3541 H         1 6HJ         0.0522
     39 H9         -3.3620   47.7894  -19.7812 H         1 6HJ         0.0522
     40 H10        -0.9740   47.9179  -19.3791 H         1 6HJ         0.0286
     41 H11        -1.7172   49.5151  -19.0278 H         1 6HJ         0.0286
     42 H12        -0.4462   48.7455  -21.7173 H         1 6HJ         0.0296
     43 H13         0.3793   49.6968  -20.4365 H         1 6HJ         0.0296
     44 H14        -1.5018   51.2726  -20.4206 H         1 6HJ         0.0675
     45 H15         2.1600   53.7672  -19.4323 H         1 6HJ         0.1029
     46 H16         3.0079   55.4342  -23.5729 H         1 6HJ         0.1842
     47 H17         1.9228   54.6014  -24.7182 H         1 6HJ         0.1842
     48 H18         2.8398   51.9911  -25.0598 H         1 6HJ         0.0543
     49 H19         4.4409   51.9487  -27.0014 H         1 6HJ         0.0517
     50 H20         3.5912   52.5032  -29.3201 H         1 6HJ         0.0535
     51 H21         1.1604   53.0664  -29.5832 H         1 6HJ         0.0548
     52 H22        -2.4489   53.5819  -28.1358 H         1 6HJ         0.0569
     53 H23        -1.4126   52.6397  -29.2605 H         1 6HJ         0.0569
     54 H24        -1.0659   54.3767  -28.9619 H         1 6HJ         0.0569
     55 H25        -1.9502   53.0978  -25.7633 H         1 6HJ         0.0995
@<TRIPOS>BOND
     1    1    2 ar 
     2    1    5 ar 
     3   16    1 1  
     4    2    3 ar 
     5    2   20 1  
     6    3    4 ar 
     7    3   19 1  
     8   18    4 ar 
     9    5   18 ar 
    10    7    6 1  
    11    8    7 1  
    12    8    9 2  
    13   10    8 am 
    14   11   10 1  
    15   10   12 1  
    16   15   11 1  
    17   13   12 1  
    18   14   13 1  
    19   15   14 1  
    20   15   16 1  
    21   16   17 1  
    22   17   20 2  
    23   20   21 1  
    24   21   22 1  
    25   21   30 2  
    26   22   23 ar 
    27   22   27 ar 
    28   23   24 ar 
    29   24   25 ar 
    30   25   26 ar 
    31   26   27 ar 
    32   27   28 1  
    33   28   29 1  
    34   28   30 1  
    35    6   31 1  
    36    6   32 1  
    37    6   33 1  
    38    7   34 1  
    39    7   35 1  
    40   11   36 1  
    41   11   37 1  
    42   12   38 1  
    43   12   39 1  
    44   13   40 1  
    45   13   41 1  
    46   14   42 1  
    47   14   43 1  
    48   15   44 1  
    49   18   45 1  
    50   19   46 1  
    51   19   47 1  
    52   23   48 1  
    53   24   49 1  
    54   25   50 1  
    55   26   51 1  
    56   29   52 1  
    57   29   53 1  
    58   29   54 1  
    59   30   55 1  
@<TRIPOS>SUBSTRUCTURE
     1 6HJ         1

