### 
### Created by X-TOOL on Mon Sep 10 21:13:27 2018
### 

@<TRIPOS>MOLECULE
5jah_ligand
   20    20     1     0     0
SMALL
GAST_HUCK


@<TRIPOS>ATOM
      1 C1         29.1050    1.4580   -2.0820 C.3       1 6HQ         0.0227
      2 C3         28.0860    3.6950   -1.8650 C.2       1 6HQ         0.2896
      3 C6         25.8430    3.2340   -1.8460 C.2       1 6HQ         0.2522
      4 C8         26.5740    1.8980   -2.0410 C.3       1 6HQ         0.1355
      5 C10        26.2790    0.9620   -0.8830 C.3       1 6HQ        -0.0319
      6 N2         27.9630    2.3550   -2.0230 N.am      1 6HQ        -0.2466
      7 O4         29.1140    4.3440   -1.8470 O.2       1 6HQ        -0.3910
      8 N5         26.7980    4.1970   -1.7290 N.am      1 6HQ        -0.1826
      9 O7         24.6460    3.4040   -1.8020 O.2       1 6HQ        -0.3313
     10 C9         26.1890    1.2770   -3.3850 C.3       1 6HQ        -0.0319
     11 H1         30.0345    2.0455   -2.0536 H         1 6HQ         0.0482
     12 H2         29.0670    0.8768   -3.0151 H         1 6HQ         0.0482
     13 H3         29.0779    0.7728   -1.2219 H         1 6HQ         0.0482
     14 H4         25.2281    0.6404   -0.9301 H         1 6HQ         0.0241
     15 H5         26.4599    1.4859    0.0672 H         1 6HQ         0.0241
     16 H6         26.9351    0.0814   -0.9469 H         1 6HQ         0.0241
     17 H7         26.5942    5.1619   -1.5630 H         1 6HQ         0.2259
     18 H8         26.4181    1.9850   -4.1951 H         1 6HQ         0.0241
     19 H9         25.1126    1.0506   -3.3894 H         1 6HQ         0.0241
     20 H10        26.7596    0.3489   -3.5370 H         1 6HQ         0.0241
@<TRIPOS>BOND
     1    6    1 1  
     2    2    6 am 
     3    2    7 2  
     4    8    2 am 
     5    3    4 1  
     6    3    8 am 
     7    3    9 2  
     8    4    5 1  
     9    4    6 1  
    10    4   10 1  
    11    1   11 1  
    12    1   12 1  
    13    1   13 1  
    14    5   14 1  
    15    5   15 1  
    16    5   16 1  
    17    8   17 1  
    18   10   18 1  
    19   10   19 1  
    20   10   20 1  
@<TRIPOS>SUBSTRUCTURE
     1 6HQ         1

