### 
### Created by X-TOOL on Mon Sep 10 21:13:26 2018
### 

@<TRIPOS>MOLECULE
5jal_ligand
   24    25     1     0     0
SMALL
GAST_HUCK


@<TRIPOS>ATOM
      1 C2         16.2520    5.2770   -5.1130 C.ar      1 6HO         0.1378
      2 C3         15.8010    6.4910   -5.5480 C.ar      1 6HO        -0.0239
      3 C5         17.9050    7.4400   -4.8910 C.ar      1 6HO        -0.0460
      4 C6         18.3490    6.1910   -4.4580 C.ar      1 6HO         0.0485
      5 C7         17.4940    5.0980   -4.5700 C.ar      1 6HO        -0.0084
      6 C8         19.7020    5.9570   -3.8540 C.2       1 6HO         0.2097
      7 O9         19.7930    5.1660   -2.9160 O.2       1 6HO        -0.3842
      8 C11        22.0880    6.3710   -3.6930 C.3       1 6HO         0.0523
      9 C12        23.0210    7.0730   -4.6250 C.2       1 6HO        -0.0746
     10 C13        22.3910    7.6200   -5.6180 C.2       1 6HO        -0.0746
     11 C14        20.9550    7.2320   -5.6530 C.3       1 6HO         0.0523
     12 F1         15.4290    4.1990   -5.2220 F         1 6HO        -0.1823
     13 C4         16.6380    7.5860   -5.4420 C.ar      1 6HO        -0.0580
     14 N10        20.7860    6.6000   -4.3380 N.am      1 6HO        -0.2567
     15 H1         14.8069    6.5935   -5.9678 H         1 6HO         0.0639
     16 H2         18.5534    8.3036   -4.7970 H         1 6HO         0.0634
     17 H3         17.8089    4.1177   -4.2311 H         1 6HO         0.0655
     18 H4         22.1193    6.8139   -2.6866 H         1 6HO         0.0648
     19 H5         22.3193    5.2975   -3.6286 H         1 6HO         0.0648
     20 H6         24.1002    7.1198   -4.4872 H         1 6HO         0.0470
     21 H7         22.8586    8.2858   -6.3419 H         1 6HO         0.0470
     22 H8         20.7510    6.5223   -6.4683 H         1 6HO         0.0648
     23 H9         20.3042    8.1121   -5.7616 H         1 6HO         0.0648
     24 H10        16.3060    8.5580   -5.7886 H         1 6HO         0.0619
@<TRIPOS>BOND
     1    1    2 ar 
     2    5    1 ar 
     3    1   12 1  
     4   13    2 ar 
     5    4    3 ar 
     6    3   13 ar 
     7    4    5 ar 
     8    6    4 1  
     9    6    7 2  
    10   14    6 am 
    11    8    9 1  
    12    8   14 1  
    13    9   10 2  
    14   10   11 1  
    15   11   14 1  
    16    2   15 1  
    17    3   16 1  
    18    5   17 1  
    19    8   18 1  
    20    8   19 1  
    21    9   20 1  
    22   10   21 1  
    23   11   22 1  
    24   11   23 1  
    25   13   24 1  
@<TRIPOS>SUBSTRUCTURE
     1 6HO         1

