### 
### Created by X-TOOL on Mon Sep 10 21:13:29 2018
### 

@<TRIPOS>MOLECULE
5jan_ligand
   31    31     1     0     0
SMALL
GAST_HUCK


@<TRIPOS>ATOM
      1 C1         31.8480   -5.2990   -5.2620 C.3       1 6HP        -0.0601
      2 C2         30.7980   -4.3260   -5.8040 C.3       1 6HP        -0.0174
      3 C3         30.0160   -4.9480   -6.9640 C.3       1 6HP        -0.0601
      4 C6         29.0640   -1.7760   -3.8860 C.2       1 6HP         0.2117
      5 C7         29.3840   -0.5120   -4.2570 C.2       1 6HP         0.0221
      6 C8         29.1750    0.6060   -3.3920 C.2       1 6HP         0.1659
      7 O9         29.4460    1.7660   -3.6790 O.2       1 6HP        -0.4264
      8 C11        28.3900    1.4260   -1.2210 C.3       1 6HP         0.0470
      9 C12        28.2750   -0.9810   -1.7150 C.2       1 6HP         0.3327
     10 C15        28.1480   -3.3740   -2.1700 C.3       1 6HP         0.0577
     11 C4         29.8610   -3.8680   -4.6900 C.3       1 6HP         0.0836
     12 O5         29.4110   -2.5420   -4.9710 O.3       1 6HP        -0.2729
     13 N10        28.6220    0.3040   -2.1440 N.am      1 6HP        -0.1806
     14 O13        27.7960   -1.1780   -0.6120 O.2       1 6HP        -0.3820
     15 N14        28.5060   -2.0140   -2.6060 N.am      1 6HP        -0.1587
     16 H1         32.5114   -5.6157   -6.0803 H         1 6HP         0.0233
     17 H2         31.3460   -6.1798   -4.8352 H         1 6HP         0.0233
     18 H3         32.4412   -4.8007   -4.4811 H         1 6HP         0.0233
     19 H4         31.3241   -3.4401   -6.1891 H         1 6HP         0.0322
     20 H5         29.2707   -4.2274   -7.3319 H         1 6HP         0.0233
     21 H6         29.5054   -5.8580   -6.6158 H         1 6HP         0.0233
     22 H7         30.7099   -5.2054   -7.7778 H         1 6HP         0.0233
     23 H8         29.8131   -0.3436   -5.2436 H         1 6HP         0.0051
     24 H9         28.7105    2.3645   -1.6969 H         1 6HP         0.0539
     25 H10        28.9673    1.2671   -0.2982 H         1 6HP         0.0539
     26 H11        27.3189    1.4853   -0.9778 H         1 6HP         0.0539
     27 H12        28.3837   -4.0898   -2.9713 H         1 6HP         0.0574
     28 H13        27.0719   -3.4159   -1.9458 H         1 6HP         0.0574
     29 H14        28.7209   -3.6324   -1.2673 H         1 6HP         0.0574
     30 H15        30.3978   -3.8787   -3.7300 H         1 6HP         0.0633
     31 H16        28.9965   -4.5459   -4.6343 H         1 6HP         0.0633
@<TRIPOS>BOND
     1    2    1 1  
     2    2    3 1  
     3   11    2 1  
     4    4    5 2  
     5   12    4 1  
     6    4   15 1  
     7    5    6 1  
     8    6    7 2  
     9    6   13 am 
    10   13    8 1  
    11    9   13 am 
    12    9   14 2  
    13   15    9 am 
    14   15   10 1  
    15   11   12 1  
    16    1   16 1  
    17    1   17 1  
    18    1   18 1  
    19    2   19 1  
    20    3   20 1  
    21    3   21 1  
    22    3   22 1  
    23    5   23 1  
    24    8   24 1  
    25    8   25 1  
    26    8   26 1  
    27   10   27 1  
    28   10   28 1  
    29   10   29 1  
    30   11   30 1  
    31   11   31 1  
@<TRIPOS>SUBSTRUCTURE
     1 6HP         1

