### 
### Created by X-TOOL on Mon Sep 10 21:13:26 2018
### 

@<TRIPOS>MOLECULE
5jao_ligand
   27    28     1     0     0
SMALL
GAST_HUCK


@<TRIPOS>ATOM
      1 C1         13.9620    7.6970   -6.5170 C.3       1 6HX        -0.0356
      2 C2         15.2870    7.3510   -5.8860 C.ar      1 6HX        -0.0493
      3 C3         15.4910    6.0540   -5.4210 C.ar      1 6HX        -0.0701
      4 C5         17.7340    6.6040   -4.7250 C.ar      1 6HX         0.0290
      5 C7         17.5330    7.8940   -5.1990 C.ar      1 6HX        -0.0432
      6 C8         16.3260    8.2890   -5.7740 C.ar      1 6HX        -0.0266
      7 C10        16.8390   10.0990   -7.4240 C.ar      1 6HX        -0.0556
      8 C11        16.7430   11.4040   -7.8720 C.ar      1 6HX        -0.0622
      9 C12        16.0230   12.3360   -7.1550 C.ar      1 6HX        -0.0622
     10 C13        15.3960   11.9710   -5.9800 C.ar      1 6HX        -0.0484
     11 C14        15.4910   10.6670   -5.5330 C.ar      1 6HX         0.0461
     12 C4         16.6950    5.6820   -4.8470 C.ar      1 6HX        -0.0503
     13 N6         18.9250    6.2500   -4.1490 N.pl3     1 6HX        -0.3406
     14 C9         16.2080    9.7070   -6.2440 C.ar      1 6HX        -0.0108
     15 CL         14.6910   10.2360   -4.0610 Cl        1 6HX        -0.0705
     16 H1         13.3048    6.8152   -6.4965 H         1 6HX         0.0373
     17 H2         14.1228    8.0103   -7.5591 H         1 6HX         0.0373
     18 H3         13.4918    8.5178   -5.9557 H         1 6HX         0.0373
     19 H4         14.6945    5.3241   -5.5099 H         1 6HX         0.0526
     20 H5         18.3385    8.6150   -5.1195 H         1 6HX         0.0499
     21 H6         17.4094    9.3752   -7.9948 H         1 6HX         0.0614
     22 H7         17.2366   11.6957   -8.7920 H         1 6HX         0.0616
     23 H8         15.9491   13.3562   -7.5140 H         1 6HX         0.0609
     24 H9         14.8329   12.7027   -5.4120 H         1 6HX         0.0621
     25 H10        16.8307    4.6674   -4.4902 H         1 6HX         0.0505
     26 H11        19.6830    6.9425   -4.0662 H         1 6HX         0.1697
     27 H12        19.0628    5.2913   -3.7986 H         1 6HX         0.1697
@<TRIPOS>BOND
     1    2    1 1  
     2    2    3 ar 
     3    6    2 ar 
     4    3   12 ar 
     5    5    4 ar 
     6    4   12 ar 
     7    4   13 1  
     8    6    5 ar 
     9   14    6 1  
    10    7    8 ar 
    11    7   14 ar 
    12    8    9 ar 
    13    9   10 ar 
    14   10   11 ar 
    15   11   14 ar 
    16   11   15 1  
    17    1   16 1  
    18    1   17 1  
    19    1   18 1  
    20    3   19 1  
    21    5   20 1  
    22    7   21 1  
    23    8   22 1  
    24    9   23 1  
    25   10   24 1  
    26   12   25 1  
    27   13   26 1  
    28   13   27 1  
@<TRIPOS>SUBSTRUCTURE
     1 6HX         1

