### 
### Created by X-TOOL on Mon Sep 10 21:13:27 2018
### 

@<TRIPOS>MOLECULE
5jap_ligand
   40    42     1     0     0
SMALL
GAST_HUCK


@<TRIPOS>ATOM
      1 C1         14.8530   10.1020   -4.1450 C.3       1 6HZ        -0.0303
      2 C2         15.5800   10.4370   -5.4210 C.ar      1 6HZ        -0.0385
      3 C3         15.4460   11.7210   -5.9420 C.ar      1 6HZ        -0.0604
      4 C5         16.8730   11.1740   -7.7680 C.ar      1 6HZ        -0.0690
      5 C6         17.0300    9.8960   -7.2730 C.ar      1 6HZ        -0.0618
      6 C7         16.3850    9.5020   -6.1010 C.ar      1 6HZ        -0.0179
      7 C8         16.6260    8.1050   -5.6300 C.ar      1 6HZ        -0.0131
      8 C10        18.1460    6.5870   -4.5060 C.ar      1 6HZ         0.0430
      9 C11        17.2500    5.5480   -4.7130 C.ar      1 6HZ        -0.0492
     10 C12        16.0640    5.7700   -5.3870 C.ar      1 6HZ        -0.0546
     11 C13        15.7370    7.0380   -5.8610 C.ar      1 6HZ        -0.0339
     12 C14        14.4300    7.2360   -6.5850 C.3       1 6HZ        -0.0281
     13 C15        19.4270    6.3390   -3.7680 C.2       1 6HZ         0.2056
     14 C19        22.3030    7.3510   -5.7080 C.2       1 6HZ        -0.0746
     15 C21        21.8350    6.6740   -3.5460 C.3       1 6HZ         0.0522
     16 C4         16.0860   12.0810   -7.1070 C.ar      1 6HZ        -0.0692
     17 C9         17.8170    7.8570   -4.9590 C.ar      1 6HZ        -0.0417
     18 O16        19.3820    5.8280   -2.6520 O.2       1 6HZ        -0.3872
     19 N17        20.5960    6.6770   -4.3330 N.am      1 6HZ        -0.2576
     20 C18        20.8200    7.2230   -5.6780 C.3       1 6HZ         0.0522
     21 C20        22.8500    7.0270   -4.5770 C.2       1 6HZ        -0.0746
     22 H1         14.2922   10.9833   -3.8003 H         1 6HZ         0.0395
     23 H2         15.5808    9.8064   -3.3750 H         1 6HZ         0.0395
     24 H3         14.1550    9.2717   -4.3278 H         1 6HZ         0.0395
     25 H4         14.8298   12.4469   -5.4239 H         1 6HZ         0.0554
     26 H5         17.3747   11.4625   -8.6846 H         1 6HZ         0.0558
     27 H6         17.6615    9.1904   -7.8007 H         1 6HZ         0.0595
     28 H7         17.4817    4.5556   -4.3436 H         1 6HZ         0.0645
     29 H8         15.3788    4.9457   -5.5489 H         1 6HZ         0.0567
     30 H9         14.3344    8.2892   -6.8876 H         1 6HZ         0.0404
     31 H10        13.5971    6.9692   -5.9178 H         1 6HZ         0.0404
     32 H11        14.4046    6.5942   -7.4780 H         1 6HZ         0.0404
     33 H12        22.8652    7.6795   -6.5809 H         1 6HZ         0.0470
     34 H13        22.0321    5.6824   -3.1127 H         1 6HZ         0.0648
     35 H14        21.8015    7.4250   -2.7430 H         1 6HZ         0.0648
     36 H15        15.9672   13.0835   -7.5020 H         1 6HZ         0.0593
     37 H16        18.5062    8.6754   -4.7850 H         1 6HZ         0.0649
     38 H17        20.4612    6.5329   -6.4558 H         1 6HZ         0.0648
     39 H18        20.3305    8.2004   -5.8007 H         1 6HZ         0.0648
     40 H19        23.9248    7.0146   -4.4022 H         1 6HZ         0.0470
@<TRIPOS>BOND
     1    2    1 1  
     2    2    3 ar 
     3    6    2 ar 
     4    3   16 ar 
     5    5    4 ar 
     6    4   16 ar 
     7    6    5 ar 
     8    7    6 1  
     9    7   11 ar 
    10   17    7 ar 
    11    8    9 ar 
    12   13    8 1  
    13    8   17 ar 
    14    9   10 ar 
    15   10   11 ar 
    16   11   12 1  
    17   13   18 2  
    18   19   13 am 
    19   14   20 1  
    20   21   14 2  
    21   15   19 1  
    22   15   21 1  
    23   19   20 1  
    24    1   22 1  
    25    1   23 1  
    26    1   24 1  
    27    3   25 1  
    28    4   26 1  
    29    5   27 1  
    30    9   28 1  
    31   10   29 1  
    32   12   30 1  
    33   12   31 1  
    34   12   32 1  
    35   14   33 1  
    36   15   34 1  
    37   15   35 1  
    38   16   36 1  
    39   17   37 1  
    40   20   38 1  
    41   20   39 1  
    42   21   40 1  
@<TRIPOS>SUBSTRUCTURE
     1 6HZ         1

