### 
### Created by X-TOOL on Mon Sep 10 21:13:26 2018
### 

@<TRIPOS>MOLECULE
5jar_ligand
   36    38     1     0     0
SMALL
GAST_HUCK


@<TRIPOS>ATOM
      1 C1         15.0730   10.0020   -4.3160 C.3       1 6HV        -0.0303
      2 C2         15.6920   10.3440   -5.6470 C.ar      1 6HV        -0.0385
      3 C3         15.5580   11.6330   -6.1590 C.ar      1 6HV        -0.0604
      4 C5         16.8150   11.0330   -8.0960 C.ar      1 6HV        -0.0690
      5 C6         16.9790    9.7530   -7.6040 C.ar      1 6HV        -0.0618
      6 C7         16.4150    9.3870   -6.3820 C.ar      1 6HV        -0.0178
      7 C8         16.5990    7.9980   -5.8610 C.ar      1 6HV        -0.0130
      8 C10        18.0610    6.4350   -4.7200 C.ar      1 6HV         0.0326
      9 C11        17.0580    5.4710   -4.7820 C.ar      1 6HV        -0.0503
     10 C12        15.8390    5.7590   -5.3710 C.ar      1 6HV        -0.0544
     11 C13        15.5910    7.0160   -5.9200 C.ar      1 6HV        -0.0337
     12 C14        14.2490    7.2760   -6.5570 C.3       1 6HV        -0.0280
     13 C15        19.3610    6.0880   -4.0660 C.2       1 6HV         0.1953
     14 N18        20.8370    7.2090   -5.7130 N.2       1 6HV        -0.2925
     15 C19        22.1700    7.5470   -5.8590 C.2       1 6HV        -0.0036
     16 C4         16.1110   11.9670   -7.3770 C.ar      1 6HV        -0.0692
     17 C9         17.8150    7.6940   -5.2500 C.ar      1 6HV        -0.0428
     18 O16        19.3520    5.3450   -3.0910 O.2       1 6HV        -0.3595
     19 C17        20.6600    6.6030   -4.5630 C.2       1 6HV         0.1697
     20 C20        22.9600    7.1860   -4.8400 C.2       1 6HV         0.0194
     21 S21        22.0830    6.4020   -3.6230 S.3       1 6HV         0.0100
     22 H1         14.5572   10.8863   -3.9135 H         1 6HV         0.0395
     23 H2         15.8604    9.6864   -3.6157 H         1 6HV         0.0395
     24 H3         14.3496    9.1838   -4.4474 H         1 6HV         0.0395
     25 H4         15.0134   12.3808   -5.5939 H         1 6HV         0.0554
     26 H5         17.2442   11.3015   -9.0545 H         1 6HV         0.0559
     27 H6         17.5503    9.0275   -8.1717 H         1 6HV         0.0595
     28 H7         17.2335    4.4859   -4.3651 H         1 6HV         0.0646
     29 H8         15.0679    4.9979   -5.4058 H         1 6HV         0.0567
     30 H9         14.2176    8.3075   -6.9377 H         1 6HV         0.0405
     31 H10        13.4548    7.1370   -5.8087 H         1 6HV         0.0405
     32 H11        14.0958    6.5732   -7.3892 H         1 6HV         0.0405
     33 H12        22.5489    8.0679   -6.7371 H         1 6HV         0.0605
     34 H13        15.9895   12.9706   -7.7683 H         1 6HV         0.0593
     35 H14        18.5834    8.4561   -5.1877 H         1 6HV         0.0649
     36 H15        24.0320    7.3733   -4.7993 H         1 6HV         0.0812
@<TRIPOS>BOND
     1    2    1 1  
     2    2    3 ar 
     3    6    2 ar 
     4    3   16 ar 
     5    5    4 ar 
     6    4   16 ar 
     7    6    5 ar 
     8    7    6 1  
     9    7   11 ar 
    10   17    7 ar 
    11    8    9 ar 
    12   13    8 1  
    13    8   17 ar 
    14    9   10 ar 
    15   10   11 ar 
    16   11   12 1  
    17   13   18 2  
    18   19   13 1  
    19   14   15 1  
    20   14   19 2  
    21   15   20 2  
    22   19   21 1  
    23   20   21 1  
    24    1   22 1  
    25    1   23 1  
    26    1   24 1  
    27    3   25 1  
    28    4   26 1  
    29    5   27 1  
    30    9   28 1  
    31   10   29 1  
    32   12   30 1  
    33   12   31 1  
    34   12   32 1  
    35   15   33 1  
    36   16   34 1  
    37   17   35 1  
    38   20   36 1  
@<TRIPOS>SUBSTRUCTURE
     1 6HV         1

