### 
### Created by X-TOOL on Mon Sep 10 21:13:26 2018
### 

@<TRIPOS>MOLECULE
5jas_ligand
   36    38     1     0     0
SMALL
GAST_HUCK


@<TRIPOS>ATOM
      1 C1         14.5730   10.1230   -4.1580 C.3       1 6HW        -0.0302
      2 C2         15.2680   10.4400   -5.4520 C.ar      1 6HW        -0.0387
      3 C3         15.2520   11.7500   -5.9240 C.ar      1 6HW        -0.0604
      4 C5         16.5290   11.1150   -7.8330 C.ar      1 6HW        -0.0690
      5 C6         16.5830    9.8180   -7.3750 C.ar      1 6HW        -0.0620
      6 C7         15.9410    9.4530   -6.1930 C.ar      1 6HW        -0.0216
      7 C8         16.0580    8.0330   -5.7350 C.ar      1 6HW        -0.0282
      8 C10        17.5030    6.4090   -4.6700 C.ar      1 6HW         0.0605
      9 C12        19.9890    6.5310   -4.3550 C.2       1 6HW         0.1972
     10 C14        22.1650    6.8630   -4.0720 C.2       1 6HW        -0.0407
     11 C15        22.0310    7.2990   -5.3320 C.2       1 6HW        -0.0038
     12 C19        15.0680    7.0460   -5.8940 C.ar      1 6HW        -0.0492
     13 C4         15.8750   12.0770   -7.1080 C.ar      1 6HW        -0.0692
     14 C9         17.2510    7.6950   -5.1260 C.ar      1 6HW        -0.0380
     15 N11        18.7280    6.1540   -4.0250 N.pl3     1 6HW        -0.2413
     16 N13        20.9820    6.4210   -3.5100 N.2       1 6HW        -0.3172
     17 S16        20.4220    7.1880   -5.9030 S.3       1 6HW         0.0137
     18 C17        16.5160    5.4420   -4.8090 C.ar      1 6HW        -0.0445
     19 C18        15.3140    5.7580   -5.4230 C.ar      1 6HW        -0.0690
     20 C20        13.7580    7.3480   -6.5710 C.3       1 6HW        -0.0353
     21 H1         14.1167   11.0383   -3.7531 H         1 6HW         0.0395
     22 H2         15.3033    9.7274   -3.4368 H         1 6HW         0.0395
     23 H3         13.7901    9.3713   -4.3368 H         1 6HW         0.0395
     24 H4         14.7443   12.5198   -5.3541 H         1 6HW         0.0554
     25 H5         17.0056   11.3766   -8.7708 H         1 6HW         0.0559
     26 H6         17.1308    9.0724   -7.9398 H         1 6HW         0.0596
     27 H7         23.1158    6.8574   -3.5411 H         1 6HW         0.0509
     28 H8         22.8574    7.6827   -5.9284 H         1 6HW         0.0603
     29 H9         15.8480   13.0992   -7.4679 H         1 6HW         0.0593
     30 H10        18.0123    8.4565   -5.0008 H         1 6HW         0.0512
     31 H11        18.6555    5.5914   -3.1653 H         1 6HW         0.2193
     32 H12        16.6858    4.4382   -4.4367 H         1 6HW         0.0518
     33 H13        14.5551    4.9926   -5.5383 H         1 6HW         0.0528
     34 H14        13.7377    8.4049   -6.8754 H         1 6HW         0.0374
     35 H15        12.9307    7.1515   -5.8732 H         1 6HW         0.0374
     36 H16        13.6483    6.7085   -7.4592 H         1 6HW         0.0374
@<TRIPOS>BOND
     1    2    1 1  
     2    2    3 ar 
     3    6    2 ar 
     4    3   13 ar 
     5    5    4 ar 
     6    4   13 ar 
     7    6    5 ar 
     8    7    6 1  
     9    7   12 ar 
    10   14    7 ar 
    11    8   14 ar 
    12   15    8 1  
    13    8   18 ar 
    14    9   15 1  
    15   16    9 2  
    16    9   17 1  
    17   10   11 2  
    18   10   16 1  
    19   11   17 1  
    20   12   19 ar 
    21   12   20 1  
    22   18   19 ar 
    23    1   21 1  
    24    1   22 1  
    25    1   23 1  
    26    3   24 1  
    27    4   25 1  
    28    5   26 1  
    29   10   27 1  
    30   11   28 1  
    31   13   29 1  
    32   14   30 1  
    33   15   31 1  
    34   18   32 1  
    35   19   33 1  
    36   20   34 1  
    37   20   35 1  
    38   20   36 1  
@<TRIPOS>SUBSTRUCTURE
     1 6HW         1

