### 
### Created by X-TOOL on Mon Sep 10 21:13:26 2018
### 

@<TRIPOS>MOLECULE
5jat_ligand
   46    48     1     0     0
SMALL
GAST_HUCK


@<TRIPOS>ATOM
      1 C1         14.4640   10.5170   -4.4650 C.3       1 6HR        -0.0302
      2 C2         15.2020   10.8350   -5.7380 C.ar      1 6HR        -0.0387
      3 C3         15.1910   12.1380   -6.2270 C.ar      1 6HR        -0.0604
      4 C5         16.5480   11.4900   -8.0830 C.ar      1 6HR        -0.0690
      5 C6         16.5820   10.1930   -7.6130 C.ar      1 6HR        -0.0620
      6 C7         15.9040    9.8460   -6.4480 C.ar      1 6HR        -0.0216
      7 C8         16.0030    8.4270   -5.9900 C.ar      1 6HR        -0.0281
      8 C10        17.4190    6.7530   -4.9610 C.ar      1 6HR         0.0606
      9 C12        19.9110    6.7620   -4.7680 C.2       1 6HR         0.1942
     10 C14        22.1290    7.0090   -4.6050 C.2       1 6HR        -0.0246
     11 C15        23.4160    6.9150   -3.8540 C.3       1 6HR        -0.0222
     12 C16        23.4760    7.9750   -2.7690 C.3       1 6HR        -0.0220
     13 C19        21.9160    7.4880   -5.8510 C.2       1 6HR        -0.0115
     14 C21        16.3930    5.8220   -5.0870 C.ar      1 6HR        -0.0445
     15 C22        15.1860    6.1800   -5.6630 C.ar      1 6HR        -0.0690
     16 C23        14.9710    7.4770   -6.1250 C.ar      1 6HR        -0.0492
     17 C24        13.6430    7.8250   -6.7510 C.3       1 6HR        -0.0353
     18 C4         15.8560   12.4580   -7.3920 C.ar      1 6HR        -0.0692
     19 C9         17.2070    8.0490   -5.4070 C.ar      1 6HR        -0.0380
     20 N11        18.6540    6.4300   -4.3650 N.pl3     1 6HR        -0.2413
     21 N13        20.9540    6.6010   -3.9960 N.2       1 6HR        -0.3108
     22 C17        24.6560    7.8510   -1.8390 C.3       1 6HR         0.0457
     23 O18        24.6340    6.6150   -1.1460 O.3       1 6HR        -0.3949
     24 S20        20.2650    7.4400   -6.3210 S.3       1 6HR        -0.0003
     25 H1         13.9886   11.4307   -4.0788 H         1 6HR         0.0395
     26 H2         15.1718   10.1282   -3.7181 H         1 6HR         0.0395
     27 H3         13.6923    9.7598   -4.6679 H         1 6HR         0.0395
     28 H4         14.6542   12.9093   -5.6866 H         1 6HR         0.0554
     29 H5         17.0678   11.7469   -8.9989 H         1 6HR         0.0559
     30 H6         17.1409    9.4388   -8.1551 H         1 6HR         0.0596
     31 H7         24.2538    7.0627   -4.5513 H         1 6HR         0.0398
     32 H8         23.4941    5.9196   -3.3925 H         1 6HR         0.0398
     33 H9         22.5568    7.9050   -2.1689 H         1 6HR         0.0306
     34 H10        23.5230    8.9611   -3.2542 H         1 6HR         0.0306
     35 H11        22.7111    7.8661   -6.4920 H         1 6HR         0.0442
     36 H12        16.5397    4.8085   -4.7315 H         1 6HR         0.0518
     37 H13        14.3978    5.4416   -5.7558 H         1 6HR         0.0528
     38 H14        13.6473    8.8817   -7.0565 H         1 6HR         0.0374
     39 H15        12.8381    7.6579   -6.0201 H         1 6HR         0.0374
     40 H16        13.4754    7.1892   -7.6328 H         1 6HR         0.0374
     41 H17        15.8335   13.4757   -7.7647 H         1 6HR         0.0593
     42 H18        17.9972    8.7831   -5.2986 H         1 6HR         0.0512
     43 H19        18.5980    5.8647   -3.5058 H         1 6HR         0.2195
     44 H20        24.6251    8.6727   -1.1083 H         1 6HR         0.0558
     45 H21        25.5840    7.9169   -2.4259 H         1 6HR         0.0558
     46 H22        24.6646    5.9014   -1.7724 H         1 6HR         0.2094
@<TRIPOS>BOND
     1    2    1 1  
     2    2    3 ar 
     3    6    2 ar 
     4    3   18 ar 
     5    5    4 ar 
     6    4   18 ar 
     7    6    5 ar 
     8    7    6 1  
     9    7   16 ar 
    10   19    7 ar 
    11    8   14 ar 
    12    8   19 ar 
    13   20    8 1  
    14    9   20 1  
    15   21    9 2  
    16    9   24 1  
    17   10   11 1  
    18   10   13 2  
    19   10   21 1  
    20   11   12 1  
    21   12   22 1  
    22   13   24 1  
    23   14   15 ar 
    24   15   16 ar 
    25   16   17 1  
    26   22   23 1  
    27    1   25 1  
    28    1   26 1  
    29    1   27 1  
    30    3   28 1  
    31    4   29 1  
    32    5   30 1  
    33   11   31 1  
    34   11   32 1  
    35   12   33 1  
    36   12   34 1  
    37   13   35 1  
    38   14   36 1  
    39   15   37 1  
    40   17   38 1  
    41   17   39 1  
    42   17   40 1  
    43   18   41 1  
    44   19   42 1  
    45   20   43 1  
    46   22   44 1  
    47   22   45 1  
    48   23   46 1  
@<TRIPOS>SUBSTRUCTURE
     1 6HR         1

