### 
### Created by X-TOOL on Mon Sep 10 21:13:29 2018
### 

@<TRIPOS>MOLECULE
5jau_ligand
   61    63     1     0     0
SMALL
GAST_HUCK


@<TRIPOS>ATOM
      1 C1         23.4390    9.8720   -2.4060 C.3       1 6HU         0.0370
      2 C3         23.7100    7.5220   -2.8110 C.3       1 6HU         0.1097
      3 C6         23.4910    6.5980   -4.0130 C.3       1 6HU         0.0936
      4 C8         21.7960    7.1980   -5.7740 C.2       1 6HU         0.0433
      5 C10        20.0410    6.4750   -4.7020 C.2       1 6HU         0.0999
      6 C12        17.5250    6.5350   -4.9010 C.ar      1 6HU         0.0802
      7 C13        17.3190    7.8140   -5.3940 C.ar      1 6HU        -0.0477
      8 C14        16.1090    8.1930   -5.9760 C.ar      1 6HU        -0.0396
      9 C15        15.0450    7.2740   -6.0350 C.ar      1 6HU        -0.0578
     10 C16        13.7130    7.6220   -6.6500 C.3       1 6HU        -0.0378
     11 C21        16.4810    2.0210   -4.3440 C.3       1 6HU        -0.0072
     12 C23        15.9900    9.6000   -6.4560 C.ar      1 6HU        -0.0286
     13 C24        16.6210    9.9700   -7.6390 C.ar      1 6HU        -0.0647
     14 C25        16.5480   11.2640   -8.0960 C.ar      1 6HU        -0.0707
     15 C26        15.8520   12.2080   -7.3870 C.ar      1 6HU        -0.0707
     16 C27        15.2190   11.8680   -6.2130 C.ar      1 6HU        -0.0621
     17 C28        15.2710   10.5660   -5.7280 C.ar      1 6HU        -0.0413
     18 O2         23.8190    8.8540   -3.3320 O.3       1 6HU        -0.3747
     19 C4         24.9950    7.1930   -2.0360 C.3       1 6HU         0.0731
     20 O5         24.8260    6.0600   -1.1950 O.3       1 6HU        -0.3924
     21 N7         22.1500    6.7000   -4.5780 N.pl3     1 6HU        -0.2200
     22 C9         20.4490    7.0760   -5.8780 C.2       1 6HU        -0.0250
     23 N11        18.7400    6.1560   -4.3070 N.pl3     1 6HU        -0.2823
     24 C17        15.2440    5.9960   -5.5310 C.ar      1 6HU        -0.0396
     25 C18        16.4530    5.6220   -4.9610 C.ar      1 6HU         0.1086
     26 O19        16.7170    4.3850   -4.4420 O.3       1 6HU        -0.3180
     27 C20        15.8080    3.3180   -4.7350 C.3       1 6HU         0.1077
     28 N22        16.5570    1.8870   -2.8690 N.4       1 6HU         0.2204
     29 C29        14.5880   10.2390   -4.4240 C.3       1 6HU        -0.0311
     30 N30        21.0710    6.2440   -3.8930 N.2       1 6HU        -0.2167
     31 H1         23.5504   10.8586   -2.8796 H         1 6HU         0.0524
     32 H2         24.0835    9.8175   -1.5163 H         1 6HU         0.0524
     33 H3         22.3903    9.7244   -2.1087 H         1 6HU         0.0524
     34 H4         22.8498    7.4475   -2.1295 H         1 6HU         0.0648
     35 H5         23.6567    5.5594   -3.6907 H         1 6HU         0.0655
     36 H6         24.2203    6.8605   -4.7935 H         1 6HU         0.0655
     37 H7         22.4657    7.6210   -6.5213 H         1 6HU         0.0971
     38 H8         18.1207    8.5403   -5.3254 H         1 6HU         0.0471
     39 H9         13.0405    6.7540   -6.5836 H         1 6HU         0.0372
     40 H10        13.8567    7.8945   -7.7060 H         1 6HU         0.0372
     41 H11        13.2700    8.4712   -6.1091 H         1 6HU         0.0372
     42 H12        17.4992    2.0041   -4.7599 H         1 6HU         0.0840
     43 H13        15.9039    1.1785   -4.7527 H         1 6HU         0.0840
     44 H14        17.1755    9.2308   -8.2058 H         1 6HU         0.0581
     45 H15        17.0427   11.5390   -9.0205 H         1 6HU         0.0554
     46 H16        15.7998   13.2272   -7.7525 H         1 6HU         0.0581
     47 H17        14.6736   12.6242   -5.6601 H         1 6HU         0.0549
     48 H18        25.2692    8.0593   -1.4161 H         1 6HU         0.0584
     49 H19        25.8017    6.9863   -2.7546 H         1 6HU         0.0584
     50 H20        24.5940    5.3060   -1.7242 H         1 6HU         0.2095
     51 H21        19.8214    7.3862   -6.7122 H         1 6HU         0.0314
     52 H22        18.6609    5.5637   -3.4680 H         1 6HU         0.1996
     53 H23        14.4372    5.2740   -5.5838 H         1 6HU         0.0451
     54 H24        14.8801    3.4474   -4.1586 H         1 6HU         0.0664
     55 H25        15.5740    3.3096   -5.8098 H         1 6HU         0.0664
     56 H26        17.0083    1.0170   -2.6335 H         1 6HU         0.1995
     57 H27        15.6263    1.8981   -2.4822 H         1 6HU         0.1995
     58 H28        17.0881    2.6547   -2.4888 H         1 6HU         0.1995
     59 H29        14.7288    9.1726   -4.1937 H         1 6HU         0.0391
     60 H30        13.5131   10.4570   -4.5083 H         1 6HU         0.0391
     61 H31        15.0238   10.8487   -3.6188 H         1 6HU         0.0391
@<TRIPOS>BOND
     1   18    1 1  
     2    3    2 1  
     3    2   18 1  
     4    2   19 1  
     5   21    3 1  
     6   21    4 1  
     7   22    4 2  
     8    5   22 1  
     9   23    5 1  
    10    5   30 2  
    11    6    7 ar 
    12    6   23 1  
    13   25    6 ar 
    14    7    8 ar 
    15    9    8 ar 
    16    8   12 1  
    17    9   10 1  
    18   24    9 ar 
    19   27   11 1  
    20   11   28 1  
    21   12   13 ar 
    22   12   17 ar 
    23   13   14 ar 
    24   14   15 ar 
    25   16   15 ar 
    26   17   16 ar 
    27   17   29 1  
    28   19   20 1  
    29   30   21 1  
    30   25   24 ar 
    31   26   25 1  
    32   26   27 1  
    33    1   31 1  
    34    1   32 1  
    35    1   33 1  
    36    2   34 1  
    37    3   35 1  
    38    3   36 1  
    39    4   37 1  
    40    7   38 1  
    41   10   39 1  
    42   10   40 1  
    43   10   41 1  
    44   11   42 1  
    45   11   43 1  
    46   13   44 1  
    47   14   45 1  
    48   15   46 1  
    49   16   47 1  
    50   19   48 1  
    51   19   49 1  
    52   20   50 1  
    53   22   51 1  
    54   23   52 1  
    55   24   53 1  
    56   27   54 1  
    57   27   55 1  
    58   28   56 1  
    59   28   57 1  
    60   28   58 1  
    61   29   59 1  
    62   29   60 1  
    63   29   61 1  
@<TRIPOS>SUBSTRUCTURE
     1 6HU         1

