### 
### Created by X-TOOL on Mon Sep 10 21:13:32 2018
### 

@<TRIPOS>MOLECULE
5jcb_ligand
   58    63     1     0     0
SMALL
GAST_HUCK


@<TRIPOS>ATOM
      1 C2        -18.7300   65.1020  -45.3170 C.ar      1 NV4        -0.0416
      2 C4        -19.9620   67.0120  -44.1850 C.3       1 NV4         0.0330
      3 C5        -19.8380   66.1750  -42.9000 C.3       1 NV4         0.0853
      4 C6        -18.6610   65.1850  -42.7040 C.3       1 NV4         0.0278
      5 O16       -20.2710   66.9750  -40.6720 O.2       1 NV4        -0.3698
      6 C13       -20.0830   67.2140  -41.8540 C.2       1 NV4         0.2410
      7 C7        -17.4090   65.5730  -41.9670 C.ar      1 NV4        -0.0567
      8 C12       -16.2110   65.8700  -42.6220 C.ar      1 NV4        -0.0488
      9 C11       -15.0290   66.1680  -41.9140 C.ar      1 NV4         0.1051
     10 O26       -13.8770   66.4810  -42.6060 O.3       1 NV4        -0.3297
     11 C29       -13.8390   66.3900  -44.0340 C.3       1 NV4         0.0563
     12 C10       -15.0160   66.2800  -40.4310 C.ar      1 NV4         0.1395
     13 O25       -13.8530   65.8510  -39.7100 O.3       1 NV4        -0.3340
     14 C28       -13.2490   64.6720  -40.2280 C.3       1 NV4         0.0526
     15 C9        -16.2910   65.8720  -39.8020 C.ar      1 NV4         0.1051
     16 O24       -16.3170   65.9020  -38.4350 O.3       1 NV4        -0.3297
     17 C27       -17.4380   65.3950  -37.7230 C.3       1 NV4         0.0563
     18 C8        -17.4270   65.5720  -40.5680 C.ar      1 NV4        -0.0488
     19 O14       -20.1530   68.5440  -42.4420 O.3       1 NV4        -0.2758
     20 C15       -19.7720   68.4850  -43.8170 C.3       1 NV4         0.0850
     21 C3        -19.3010   66.4760  -45.4690 C.3       1 NV4         0.0593
     22 S30       -18.1500   67.6150  -46.2050 S.3       1 NV4        -0.0216
     23 C31       -19.0160   68.9280  -46.9880 C.2       1 NV4         0.2071
     24 N35       -20.3490   68.9290  -47.1910 N.2       1 NV4        -0.2872
     25 C34       -20.6110   70.1000  -47.8160 C.2       1 NV4         0.0487
     26 N33       -19.4470   70.7790  -47.9790 N.2       1 NV4        -0.2036
     27 N32       -18.3910   70.0230  -47.4390 N.pl3     1 NV4        -0.1818
     28 C17       -18.4910   64.3900  -46.5010 C.ar      1 NV4        -0.0442
     29 C18       -17.9800   63.1070  -46.3910 C.ar      1 NV4         0.1101
     30 O21       -17.6850   62.2010  -47.3560 O.3       1 NV4        -0.2972
     31 C22       -17.2450   60.9750  -46.7320 C.3       1 NV4         0.1840
     32 O23       -17.1970   61.2550  -45.3270 O.3       1 NV4        -0.2973
     33 C19       -17.6850   62.5010  -45.1020 C.ar      1 NV4         0.1101
     34 C20       -17.8980   63.1770  -43.9160 C.ar      1 NV4        -0.0437
     35 C1        -18.4180   64.4750  -43.9850 C.ar      1 NV4        -0.0441
     36 H1        -21.0302   66.9444  -44.4386 H         1 NV4         0.0389
     37 H2        -20.7149   65.5110  -42.8879 H         1 NV4         0.0601
     38 H3        -19.0891   64.4194  -42.0402 H         1 NV4         0.0589
     39 H4        -16.1899   65.8713  -43.7058 H         1 NV4         0.0367
     40 H5        -12.8402   66.6787  -44.3933 H         1 NV4         0.0572
     41 H6        -14.5929   67.0653  -44.4647 H         1 NV4         0.0572
     42 H7        -14.0545   65.3561  -44.3414 H         1 NV4         0.0572
     43 H8        -12.3690   64.4136  -39.6206 H         1 NV4         0.0565
     44 H9        -12.9379   64.8462  -41.2686 H         1 NV4         0.0565
     45 H10       -13.9729   63.8444  -40.1953 H         1 NV4         0.0565
     46 H11       -17.2679   65.5087  -36.6422 H         1 NV4         0.0572
     47 H12       -17.5736   64.3301  -37.9628 H         1 NV4         0.0572
     48 H13       -18.3399   65.9539  -38.0130 H         1 NV4         0.0572
     49 H14       -18.3524   65.3306  -40.0576 H         1 NV4         0.0367
     50 H15       -20.4189   69.1290  -44.4309 H         1 NV4         0.0619
     51 H16       -18.7228   68.7892  -43.9464 H         1 NV4         0.0619
     52 H17       -20.1199   66.3751  -46.1965 H         1 NV4         0.0577
     53 H18       -21.5943   70.4417  -48.1358 H         1 NV4         0.0831
     54 H19       -17.3880   70.2539  -47.4002 H         1 NV4         0.2593
     55 H20       -18.6991   64.8288  -47.4701 H         1 NV4         0.0435
     56 H21       -16.2484   60.6919  -47.1016 H         1 NV4         0.0968
     57 H22       -17.9570   60.1621  -46.9377 H         1 NV4         0.0968
     58 H23       -17.6695   62.7166  -42.9616 H         1 NV4         0.0437
@<TRIPOS>BOND
     1   21    1 1  
     2    1   28 ar 
     3    1   35 ar 
     4    2    3 1  
     5    2   20 1  
     6    2   21 1  
     7    3    4 1  
     8    3    6 1  
     9    4    7 1  
    10    4   35 1  
    11    6    5 2  
    12    6   19 1  
    13    7    8 ar 
    14    7   18 ar 
    15    8    9 ar 
    16    9   10 1  
    17    9   12 ar 
    18   10   11 1  
    19   12   13 1  
    20   12   15 ar 
    21   13   14 1  
    22   15   16 1  
    23   15   18 ar 
    24   16   17 1  
    25   19   20 1  
    26   21   22 1  
    27   22   23 1  
    28   23   24 2  
    29   23   27 1  
    30   24   25 1  
    31   25   26 2  
    32   26   27 1  
    33   28   29 ar 
    34   29   30 1  
    35   29   33 ar 
    36   30   31 1  
    37   31   32 1  
    38   32   33 1  
    39   33   34 ar 
    40   34   35 ar 
    41    2   36 1  
    42    3   37 1  
    43    4   38 1  
    44    8   39 1  
    45   11   40 1  
    46   11   41 1  
    47   11   42 1  
    48   14   43 1  
    49   14   44 1  
    50   14   45 1  
    51   17   46 1  
    52   17   47 1  
    53   17   48 1  
    54   18   49 1  
    55   20   50 1  
    56   20   51 1  
    57   21   52 1  
    58   25   53 1  
    59   27   54 1  
    60   28   55 1  
    61   31   56 1  
    62   31   57 1  
    63   34   58 1  
@<TRIPOS>SUBSTRUCTURE
     1 NV4         1

