### 
### Created by X-TOOL on Mon Sep 10 21:13:27 2018
### 

@<TRIPOS>MOLECULE
5jcj_ligand
   31    33     1     0     0
SMALL
GAST_HUCK


@<TRIPOS>ATOM
      1 CAN         3.9700  -15.0730   15.1360 C.ar      1 6JM        -0.0331
      2 CAO         2.6920  -15.5520   15.4410 C.ar      1 6JM         0.1159
      3 OAQ         1.6980  -14.7210   15.8850 O.3       1 6JM        -0.3370
      4 CAP         2.4030  -16.9260   15.3420 C.ar      1 6JM         0.1167
      5 OAR         1.1180  -17.3100   15.6820 O.3       1 6JM        -0.3362
      6 CAK         3.3980  -17.8340   14.9220 C.ar      1 6JM        -0.0407
      7 CAL         4.6750  -17.3240   14.6000 C.ar      1 6JM        -0.0719
      8 CAM         4.9820  -15.9410   14.6860 C.ar      1 6JM        -0.0055
      9 CAJ         6.2620  -15.4100   14.4000 C.2       1 6JM         0.1518
     10 OAG         6.5450  -14.2120   15.0070 O.3       1 6JM        -0.2599
     11 CAF         7.7670  -13.5820   14.8280 C.ar      1 6JM         0.1260
     12 CAA         7.9470  -12.3620   15.4250 C.ar      1 6JM        -0.0288
     13 CAB         9.1730  -11.7340   15.2780 C.ar      1 6JM        -0.0353
     14 CAC        10.2010  -12.2770   14.5320 C.ar      1 6JM         0.0824
     15 OAU        11.3530  -11.5690   14.4730 O.3       1 6JM        -0.3386
     16 CAD        10.0340  -13.5200   13.8950 C.ar      1 6JM        -0.0234
     17 CAE         8.8060  -14.1900   14.0850 C.ar      1 6JM         0.0546
     18 CAH         8.5870  -15.4160   13.4690 C.2       1 6JM         0.1539
     19 OAT         9.4830  -15.9450   12.7650 O.2       1 6JM        -0.4059
     20 CAI         7.3120  -15.9820   13.6350 C.2       1 6JM         0.1626
     21 OAS         7.0390  -17.0490   12.8910 O.3       1 6JM        -0.3402
     22 H1          4.1844  -14.0163   15.2480 H         1 6JM         0.0496
     23 H2          0.9084  -15.2268   16.0374 H         1 6JM         0.2442
     24 H3          0.9459  -17.0714   16.5853 H         1 6JM         0.2450
     25 H4          3.1878  -18.8949   14.8484 H         1 6JM         0.0514
     26 H5          5.4471  -18.0124   14.2761 H         1 6JM         0.0496
     27 H6          7.1507  -11.9002   15.9975 H         1 6JM         0.0546
     28 H7          9.3317  -10.7798   15.7672 H         1 6JM         0.0559
     29 H8         11.9831  -12.0357   13.9367 H         1 6JM         0.2448
     30 H9         10.8187  -13.9474   13.2813 H         1 6JM         0.0555
     31 H10         7.1049  -16.8181   11.9719 H         1 6JM         0.2418
@<TRIPOS>BOND
     1    1    2 ar 
     2    1    8 ar 
     3    2    3 1  
     4    2    4 ar 
     5    4    5 1  
     6    4    6 ar 
     7    6    7 ar 
     8    7    8 ar 
     9    8    9 1  
    10    9   10 1  
    11    9   20 2  
    12   10   11 1  
    13   11   12 ar 
    14   11   17 ar 
    15   12   13 ar 
    16   13   14 ar 
    17   14   15 1  
    18   14   16 ar 
    19   16   17 ar 
    20   17   18 1  
    21   18   19 2  
    22   18   20 1  
    23   20   21 1  
    24    1   22 1  
    25    3   23 1  
    26    5   24 1  
    27    6   25 1  
    28    7   26 1  
    29   12   27 1  
    30   13   28 1  
    31   15   29 1  
    32   16   30 1  
    33   21   31 1  
@<TRIPOS>SUBSTRUCTURE
     1 6JM         1

