### 
### Created by X-TOOL on Mon Sep 10 21:13:29 2018
### 

@<TRIPOS>MOLECULE
5jdc_ligand
   36    38     1     0     0
SMALL
GAST_HUCK


@<TRIPOS>ATOM
      1 CAI       -31.6320  -16.0600   14.7210 C.3       1 6JP         0.0560
      2 CAH       -30.5030  -15.8950   13.8730 C.2       1 6JP         0.1187
      3 OAT       -30.2620  -16.7550   13.0190 O.2       1 6JP        -0.3966
      4 CAE       -29.5960  -14.8080   14.0480 C.ar      1 6JP         0.0787
      5 CAD       -28.2830  -14.8200   13.5710 C.ar      1 6JP         0.0925
      6 OAU       -27.8680  -15.9640   12.8940 O.3       1 6JP        -0.3326
      7 CAC       -27.4310  -13.7190   13.7990 C.ar      1 6JP        -0.0097
      8 CAB       -27.8720  -12.5850   14.5030 C.ar      1 6JP         0.0765
      9 OAV       -27.0710  -11.5170   14.7580 O.3       1 6JP        -0.3349
     10 CAA       -29.1650  -12.5610   14.9860 C.ar      1 6JP        -0.0092
     11 CAF       -30.0000  -13.6440   14.7520 C.ar      1 6JP         0.0990
     12 OAG       -31.2590  -13.6230   15.2510 O.3       1 6JP        -0.3015
     13 CAJ       -32.2470  -14.6470   14.8730 C.3       1 6JP         0.1235
     14 CAK       -33.3490  -14.4460   15.7410 C.ar      1 6JP        -0.0271
     15 CAM       -33.4340  -13.1940   16.4020 C.ar      1 6JP        -0.0371
     16 CAL       -34.5010  -12.8960   17.2290 C.ar      1 6JP         0.1101
     17 OAQ       -34.5280  -11.7260   17.9100 O.3       1 6JP        -0.3385
     18 CAP       -35.5580  -13.8190   17.3990 C.ar      1 6JP         0.1120
     19 OAR       -36.5820  -13.4250   18.2680 O.3       1 6JP        -0.3294
     20 CAS       -37.5790  -14.3470   18.7900 C.3       1 6JP         0.0554
     21 CAO       -35.4900  -15.0560   16.7040 C.ar      1 6JP        -0.0478
     22 CAN       -34.3970  -15.3660   15.8780 C.ar      1 6JP        -0.0771
     23 H1        -31.3224  -16.4517   15.7012 H         1 6JP         0.0528
     24 H2        -32.3585  -16.7480   14.2640 H         1 6JP         0.0528
     25 H3        -28.4190  -16.0968   12.1316 H         1 6JP         0.2506
     26 H4        -26.4146  -13.7481   13.4233 H         1 6JP         0.0390
     27 H5        -27.5612  -10.8635   15.2429 H         1 6JP         0.2497
     28 H6        -29.5247  -11.7036   15.5432 H         1 6JP         0.0390
     29 H7        -32.6083  -14.3954   13.8650 H         1 6JP         0.0820
     30 H8        -32.6502  -12.4594   16.2565 H         1 6JP         0.0451
     31 H9        -34.5062  -11.0024   17.2950 H         1 6JP         0.2442
     32 H10       -38.2729  -13.8029   19.4476 H         1 6JP         0.0570
     33 H11       -37.0790  -15.1423   19.3623 H         1 6JP         0.0570
     34 H12       -38.1390  -14.7929   17.9548 H         1 6JP         0.0570
     35 H13       -36.2955  -15.7731   16.8130 H         1 6JP         0.0493
     36 H14       -34.3644  -16.3118   15.3494 H         1 6JP         0.0437
@<TRIPOS>BOND
     1    1    2 1  
     2    1   13 1  
     3    2    3 2  
     4    2    4 1  
     5    4    5 ar 
     6    4   11 ar 
     7    5    6 1  
     8    5    7 ar 
     9    7    8 ar 
    10    8    9 1  
    11    8   10 ar 
    12   10   11 ar 
    13   11   12 1  
    14   12   13 1  
    15   13   14 1  
    16   14   15 ar 
    17   14   22 ar 
    18   15   16 ar 
    19   16   17 1  
    20   16   18 ar 
    21   18   19 1  
    22   18   21 ar 
    23   19   20 1  
    24   21   22 ar 
    25    1   23 1  
    26    1   24 1  
    27    6   25 1  
    28    7   26 1  
    29    9   27 1  
    30   10   28 1  
    31   13   29 1  
    32   15   30 1  
    33   17   31 1  
    34   20   32 1  
    35   20   33 1  
    36   20   34 1  
    37   21   35 1  
    38   22   36 1  
@<TRIPOS>SUBSTRUCTURE
     1 6JP         1

