### 
### Created by X-TOOL on Mon Sep 10 21:13:25 2018
### 

@<TRIPOS>MOLECULE
5jdi_ligand
   30    32     1     0     0
SMALL
GAST_HUCK


@<TRIPOS>ATOM
      1 CAN         4.0380  -15.1200   14.8610 C.ar      1 6JO        -0.0270
      2 CAO         2.7930  -15.6600   15.2240 C.ar      1 6JO         0.0851
      3 OAQ         1.7490  -14.7920   15.5550 O.3       1 6JO        -0.3340
      4 CAP         2.5840  -17.0390   15.2920 C.ar      1 6JO        -0.0356
      5 CAK         3.6090  -17.9770   15.0030 C.ar      1 6JO        -0.0722
      6 CAL         4.8120  -17.4730   14.6290 C.ar      1 6JO        -0.0653
      7 CAM         5.0530  -16.0580   14.5460 C.ar      1 6JO         0.0036
      8 CAJ         6.3110  -15.5820   14.2370 C.2       1 6JO         0.1589
      9 OAG         6.6160  -14.3820   14.8970 O.3       1 6JO        -0.2586
     10 CAE         7.8130  -13.7320   14.7550 C.ar      1 6JO         0.1262
     11 CAF         7.9500  -12.5180   15.3530 C.ar      1 6JO        -0.0288
     12 CAA         9.1620  -11.9130   15.2480 C.ar      1 6JO        -0.0352
     13 CAB        10.2140  -12.3510   14.4840 C.ar      1 6JO         0.0825
     14 OAT        11.3700  -11.6060   14.4900 O.3       1 6JO        -0.3386
     15 CAC        10.0390  -13.5480   13.8260 C.ar      1 6JO        -0.0232
     16 CAD         8.8800  -14.2530   14.0180 C.ar      1 6JO         0.0558
     17 CAH         8.5810  -15.5100   13.3550 C.2       1 6JO         0.1588
     18 OAS         9.5030  -16.0490   12.6980 O.2       1 6JO        -0.4024
     19 CAI         7.3110  -16.0460   13.4080 C.2       1 6JO         0.1691
     20 OAR         7.0260  -17.1020   12.6350 O.3       1 6JO        -0.3359
     21 H1          4.2120  -14.0507   14.8240 H         1 6JO         0.0519
     22 H2          1.5586  -14.2300   14.8131 H         1 6JO         0.2478
     23 H3          1.6042  -17.4060   15.5756 H         1 6JO         0.0525
     24 H4          3.4390  -19.0450   15.0775 H         1 6JO         0.0584
     25 H5          5.6159  -18.1581   14.3853 H         1 6JO         0.0513
     26 H6          7.1297  -12.0544   15.8889 H         1 6JO         0.0546
     27 H7          9.3110  -11.0034   15.8186 H         1 6JO         0.0560
     28 H8         12.0131  -12.0169   13.9243 H         1 6JO         0.2448
     29 H9         10.8089  -13.9278   13.1642 H         1 6JO         0.0555
     30 H10         7.1517  -16.8684   11.7228 H         1 6JO         0.2441
@<TRIPOS>BOND
     1    1    2 ar 
     2    1    7 ar 
     3    2    3 1  
     4    2    4 ar 
     5    4    5 ar 
     6    5    6 ar 
     7    6    7 ar 
     8    7    8 1  
     9    8    9 1  
    10    8   19 2  
    11    9   10 1  
    12   10   11 ar 
    13   10   16 ar 
    14   11   12 ar 
    15   12   13 ar 
    16   13   14 1  
    17   13   15 ar 
    18   15   16 ar 
    19   16   17 1  
    20   17   18 2  
    21   17   19 1  
    22   19   20 1  
    23    1   21 1  
    24    3   22 1  
    25    4   23 1  
    26    5   24 1  
    27    6   25 1  
    28   11   26 1  
    29   12   27 1  
    30   14   28 1  
    31   15   29 1  
    32   20   30 1  
@<TRIPOS>SUBSTRUCTURE
     1 6JO         1

