### 
### Created by X-TOOL on Mon Sep 10 21:13:26 2018
### 

@<TRIPOS>MOLECULE
5jf1_ligand
   62    62     1     0     0
SMALL
GAST_HUCK


@<TRIPOS>ATOM
      1 C5         -6.3120   -1.8850   12.3780 C.3       1 BB2         0.0585
      2 C3         -5.1180   -2.7830   12.2530 C.2       1 BB2         0.2013
      3 O4         -4.0370   -2.4180   12.6640 O.2       1 BB2        -0.3968
      4 N1         -5.2700   -3.9790   11.6750 N.am      1 BB2        -0.1641
      5 O2         -4.2200   -4.8770   11.6040 O.3       1 BB2        -0.2717
      6 C6         -6.5170   -1.1380   11.0690 C.3       1 BB2         0.0654
      7 C12        -7.5400   -0.0620   11.2980 C.2       1 BB2         0.1836
      8 O13        -8.6670   -0.4020   11.5340 O.2       1 BB2        -0.3965
      9 C7         -6.9790   -1.9610    9.8800 C.3       1 BB2        -0.0311
     10 C8         -7.1180   -1.0030    8.6930 C.3       1 BB2        -0.0506
     11 C9         -7.2810   -1.7130    7.4110 C.3       1 BB2        -0.0532
     12 C10        -6.9080   -0.7960    6.2490 C.3       1 BB2        -0.0559
     13 C11        -7.9960    0.1840    6.0970 C.3       1 BB2        -0.0653
     14 N14        -7.1740    1.1700   11.0810 N.am      1 BB2        -0.2650
     15 C15        -8.0680    2.3240   10.9420 C.3       1 BB2         0.1332
     16 C16        -7.7400    3.3740   11.9730 C.3       1 BB2        -0.0063
     17 C18        -7.1160    2.7470   13.2350 C.3       1 BB2        -0.0584
     18 C17        -6.8560    4.4500   11.3950 C.3       1 BB2        -0.0584
     19 C19        -8.0020    2.8200    9.4930 C.2       1 BB2         0.2047
     20 O20        -6.9040    2.9010    8.8470 O.2       1 BB2        -0.3943
     21 N21        -9.1660    3.1010    8.8870 N.am      1 BB2        -0.2661
     22 C22        -9.1860    3.5420    7.4610 C.3       1 BB2         0.0681
     23 C23       -10.5140    2.9460    9.4370 C.3       1 BB2         0.0344
     24 C24       -11.4430    3.6180    8.4530 C.3       1 BB2        -0.0303
     25 C25       -10.6790    3.6100    7.1240 C.3       1 BB2        -0.0257
     26 C26        -8.4260    4.8860    7.2600 C.3       1 BB2         0.0673
     27 O27        -8.7240    5.5020    5.9920 O.3       1 BB2        -0.3927
     28 H1         -6.1456   -1.1631   13.1911 H         1 BB2         0.0529
     29 H2         -7.2043   -2.4886   12.6005 H         1 BB2         0.0529
     30 H3         -6.1575   -4.2286   11.2875 H         1 BB2         0.2216
     31 H4         -4.5097   -5.6670   11.1632 H         1 BB2         0.2490
     32 H5         -5.5563   -0.6750   10.7995 H         1 BB2         0.0563
     33 H6         -7.9488   -2.4308   10.1007 H         1 BB2         0.0294
     34 H7         -6.2377   -2.7406    9.6503 H         1 BB2         0.0294
     35 H8         -6.2153   -0.3769    8.6373 H         1 BB2         0.0267
     36 H9         -7.9981   -0.3638    8.8566 H         1 BB2         0.0267
     37 H10        -8.3287   -2.0299    7.3018 H         1 BB2         0.0265
     38 H11        -6.6273   -2.5976    7.3999 H         1 BB2         0.0265
     39 H12        -6.7994   -1.3838    5.3256 H         1 BB2         0.0263
     40 H13        -5.9626   -0.2777    6.4671 H         1 BB2         0.0263
     41 H14        -7.7623    0.8652    5.2656 H         1 BB2         0.0230
     42 H15        -8.1009    0.7626    7.0266 H         1 BB2         0.0230
     43 H16        -8.9377   -0.3435    5.8851 H         1 BB2         0.0230
     44 H17        -6.1925    1.3444   11.0020 H         1 BB2         0.1883
     45 H18        -9.0984    1.9899   11.1331 H         1 BB2         0.0802
     46 H19        -8.6854    3.8493   12.2737 H         1 BB2         0.0343
     47 H20        -6.8897    3.5388   13.9642 H         1 BB2         0.0234
     48 H21        -6.1880    2.2226   12.9634 H         1 BB2         0.0234
     49 H22        -7.8249    2.0321   13.6782 H         1 BB2         0.0234
     50 H23        -7.3322    4.8733   10.4983 H         1 BB2         0.0234
     51 H24        -5.8818    4.0175   11.1232 H         1 BB2         0.0234
     52 H25        -6.7091    5.2442   12.1417 H         1 BB2         0.0234
     53 H26        -8.7024    2.7836    6.8278 H         1 BB2         0.0581
     54 H27       -10.5836    3.4315   10.4216 H         1 BB2         0.0522
     55 H28       -10.7669    1.8800    9.5351 H         1 BB2         0.0522
     56 H29       -11.6611    4.6490    8.7682 H         1 BB2         0.0285
     57 H30       -12.3839    3.0555    8.3623 H         1 BB2         0.0285
     58 H31       -10.9710    2.7337    6.5266 H         1 BB2         0.0289
     59 H32       -10.8965    4.5282    6.5587 H         1 BB2         0.0289
     60 H33        -7.3446    4.6915    7.3126 H         1 BB2         0.0580
     61 H34        -8.7136    5.5782    8.0651 H         1 BB2         0.0580
     62 H35        -8.2395    6.3155    5.9148 H         1 BB2         0.2095
@<TRIPOS>BOND
     1    1    2 1  
     2    1    6 1  
     3    2    3 2  
     4    2    4 am 
     5    4    5 1  
     6    6    7 1  
     7    6    9 1  
     8    7    8 2  
     9    7   14 am 
    10    9   10 1  
    11   10   11 1  
    12   11   12 1  
    13   12   13 1  
    14   14   15 1  
    15   15   16 1  
    16   15   19 1  
    17   16   17 1  
    18   16   18 1  
    19   19   20 2  
    20   19   21 am 
    21   21   22 1  
    22   21   23 1  
    23   22   25 1  
    24   22   26 1  
    25   23   24 1  
    26   24   25 1  
    27   26   27 1  
    28    1   28 1  
    29    1   29 1  
    30    4   30 1  
    31    5   31 1  
    32    6   32 1  
    33    9   33 1  
    34    9   34 1  
    35   10   35 1  
    36   10   36 1  
    37   11   37 1  
    38   11   38 1  
    39   12   39 1  
    40   12   40 1  
    41   13   41 1  
    42   13   42 1  
    43   13   43 1  
    44   14   44 1  
    45   15   45 1  
    46   16   46 1  
    47   17   47 1  
    48   17   48 1  
    49   17   49 1  
    50   18   50 1  
    51   18   51 1  
    52   18   52 1  
    53   22   53 1  
    54   23   54 1  
    55   23   55 1  
    56   24   56 1  
    57   24   57 1  
    58   25   58 1  
    59   25   59 1  
    60   26   60 1  
    61   26   61 1  
    62   27   62 1  
@<TRIPOS>SUBSTRUCTURE
     1 BB2         1

