### 
### Created by X-TOOL on Mon Sep 10 21:13:26 2018
### 

@<TRIPOS>MOLECULE
5jf2_ligand
   30    30     1     0     0
SMALL
GAST_HUCK


@<TRIPOS>ATOM
      1 O4         -4.4050   -2.1710   12.8400 O.2       1 SF7        -0.3967
      2 C3         -5.4410   -2.6070   12.3360 C.2       1 SF7         0.2019
      3 N1         -5.5070   -3.7830   11.7370 N.am      1 SF7        -0.1641
      4 O2         -4.3930   -4.5890   11.6110 O.3       1 SF7        -0.2717
      5 C5         -6.7280   -1.8180   12.4000 C.3       1 SF7         0.0603
      6 C6         -6.8040   -0.7980   11.2770 C.3       1 SF7         0.0721
      7 C7         -7.1190   -1.4880    9.9440 C.3       1 SF7        -0.0293
      8 C8         -6.6830   -0.6630    8.7450 C.3       1 SF7        -0.0503
      9 C9         -7.1500   -1.3370    7.4510 C.3       1 SF7        -0.0557
     10 C10        -7.1500   -0.3730    6.2940 C.3       1 SF7        -0.0653
     11 C12        -7.8890    0.2180   11.7040 C.2       1 SF7         0.2218
     12 O13        -9.1740    0.4690   11.5000 O.3       1 SF7        -0.1348
     13 N15        -9.4410    1.6830   11.9530 N.2       1 SF7        -0.1314
     14 C16        -8.3140    2.1880   12.4120 C.2       1 SF7         0.0660
     15 N14        -7.3370    1.2830   12.2520 N.2       1 SF7        -0.2803
     16 H1         -6.3819   -4.0957   11.3673 H         1 SF7         0.2216
     17 H2         -4.6316   -5.3882   11.1563 H         1 SF7         0.2490
     18 H3         -6.7794   -1.2931   13.3653 H         1 SF7         0.0536
     19 H4         -7.5781   -2.5107   12.3135 H         1 SF7         0.0536
     20 H5         -5.8390   -0.2791   11.1790 H         1 SF7         0.0600
     21 H6         -8.2044   -1.6554    9.8812 H         1 SF7         0.0300
     22 H7         -6.5964   -2.4555    9.9153 H         1 SF7         0.0300
     23 H8         -5.5861   -0.5809    8.7381 H         1 SF7         0.0267
     24 H9         -7.1255    0.3417    8.8132 H         1 SF7         0.0267
     25 H10        -8.1706   -1.7206    7.5963 H         1 SF7         0.0263
     26 H11        -6.4736   -2.1729    7.2194 H         1 SF7         0.0263
     27 H12        -7.4899   -0.8911    5.3851 H         1 SF7         0.0230
     28 H13        -6.1315    0.0119    6.1374 H         1 SF7         0.0230
     29 H14        -7.8286    0.4642    6.5143 H         1 SF7         0.0230
     30 H15        -8.1951    3.1781   12.8496 H         1 SF7         0.0847
@<TRIPOS>BOND
     1    1    2 2  
     2    2    3 am 
     3    2    5 1  
     4    3    4 1  
     5    5    6 1  
     6    6    7 1  
     7    6   11 1  
     8    7    8 1  
     9    8    9 1  
    10    9   10 1  
    11   11   12 1  
    12   11   15 2  
    13   12   13 1  
    14   13   14 2  
    15   14   15 1  
    16    3   16 1  
    17    4   17 1  
    18    5   18 1  
    19    5   19 1  
    20    6   20 1  
    21    7   21 1  
    22    7   22 1  
    23    8   23 1  
    24    8   24 1  
    25    9   25 1  
    26    9   26 1  
    27   10   27 1  
    28   10   28 1  
    29   10   29 1  
    30   14   30 1  
@<TRIPOS>SUBSTRUCTURE
     1 SF7         1

