### 
### Created by X-TOOL on Mon Sep 10 21:13:28 2018
### 

@<TRIPOS>MOLECULE
5jf3_ligand
   30    30     1     0     0
SMALL
GAST_HUCK


@<TRIPOS>ATOM
      1 N1         -5.4240   -3.7100   11.7400 N.am      1 SF5        -0.1641
      2 O2         -4.4240   -4.6480   11.5590 O.3       1 SF5        -0.2717
      3 C3         -5.1610   -2.5180   12.2650 C.2       1 SF5         0.2019
      4 O4         -4.0420   -2.1840   12.6320 O.2       1 SF5        -0.3967
      5 C5         -6.3430   -1.5800   12.3980 C.3       1 SF5         0.0603
      6 C6         -6.4170   -0.6160   11.2200 C.3       1 SF5         0.0721
      7 C7         -6.9430   -1.3350    9.9750 C.3       1 SF5        -0.0293
      8 C8         -6.5390   -0.6330    8.6850 C.3       1 SF5        -0.0503
      9 C9         -7.2150   -1.3160    7.4950 C.3       1 SF5        -0.0557
     10 C10        -7.2230   -0.4170    6.2800 C.3       1 SF5        -0.0653
     11 C12        -7.1940    0.5550   11.4370 C.2       1 SF5         0.2218
     12 O13        -8.4900    0.2640   11.4460 O.3       1 SF5        -0.1348
     13 N14        -7.0410    1.8450   11.2030 N.2       1 SF5        -0.2803
     14 N15        -9.1570    1.4010   11.2470 N.2       1 SF5        -0.1314
     15 C16        -8.2680    2.3680   11.0960 C.2       1 SF5         0.0660
     16 H1         -6.3611   -3.9326   11.4712 H         1 SF5         0.2216
     17 H2         -4.7944   -5.4340   11.1749 H         1 SF5         0.2490
     18 H3         -6.2397   -1.0023   13.3283 H         1 SF5         0.0536
     19 H4         -7.2689   -2.1726   12.4353 H         1 SF5         0.0536
     20 H5         -5.3878   -0.2866   11.0145 H         1 SF5         0.0600
     21 H6         -8.0411   -1.3739   10.0270 H         1 SF5         0.0300
     22 H7         -6.5400   -2.3584    9.9613 H         1 SF5         0.0300
     23 H8         -5.4468   -0.6867    8.5657 H         1 SF5         0.0267
     24 H9         -6.8518    0.4207    8.7283 H         1 SF5         0.0267
     25 H10        -8.2523   -1.5631    7.7651 H         1 SF5         0.0263
     26 H11        -6.6688   -2.2399    7.2539 H         1 SF5         0.0263
     27 H12        -7.7145   -0.9354    5.4436 H         1 SF5         0.0230
     28 H13        -6.1884   -0.1690    6.0005 H         1 SF5         0.0230
     29 H14        -7.7719    0.5077    6.5116 H         1 SF5         0.0230
     30 H15        -8.4967    3.4171   10.9145 H         1 SF5         0.0847
@<TRIPOS>BOND
     1    1    2 1  
     2    1    3 am 
     3    3    4 2  
     4    3    5 1  
     5    5    6 1  
     6    6    7 1  
     7    6   11 1  
     8    7    8 1  
     9    8    9 1  
    10    9   10 1  
    11   11   12 1  
    12   11   13 2  
    13   12   14 1  
    14   13   15 1  
    15   14   15 2  
    16    1   16 1  
    17    2   17 1  
    18    5   18 1  
    19    5   19 1  
    20    6   20 1  
    21    7   21 1  
    22    7   22 1  
    23    8   23 1  
    24    8   24 1  
    25    9   25 1  
    26    9   26 1  
    27   10   27 1  
    28   10   28 1  
    29   10   29 1  
    30   15   30 1  
@<TRIPOS>SUBSTRUCTURE
     1 SF5         1

