### 
### Created by X-TOOL on Mon Sep 10 21:13:26 2018
### 

@<TRIPOS>MOLECULE
5jf4_ligand
   28    29     1     0     0
SMALL
GAST_HUCK


@<TRIPOS>ATOM
      1 N1         -5.4060   -3.6480   11.8010 N.am      1 6JT        -0.1637
      2 O2         -4.3600   -4.6250   11.6790 O.3       1 6JT        -0.2717
      3 C3         -5.1620   -2.4560   12.3980 C.2       1 6JT         0.2070
      4 O4         -4.0680   -2.1490   12.8670 O.2       1 6JT        -0.3963
      5 C5         -6.3490   -1.4650   12.4390 C.3       1 6JT         0.0874
      6 C6         -6.4290   -0.7300   11.0970 C.3       1 6JT         0.1497
      7 C7         -6.9430   -1.6470    9.9460 C.2       1 6JT         0.0238
      8 C12        -7.4700    0.1720   11.5010 C.2       1 6JT         0.2552
      9 O13        -8.7710    0.1240   11.2870 O.3       1 6JT        -0.1275
     10 N14        -7.1350    1.4200   11.7510 N.2       1 6JT        -0.2719
     11 N15        -9.2650    1.3450   11.4330 N.2       1 6JT        -0.1278
     12 C16        -8.2560    2.1450   11.7160 C.2       1 6JT         0.0700
     13 C17        -6.9930   -1.1100    8.7110 C.2       1 6JT        -0.0232
     14 C18        -7.4350   -1.7630    7.6360 C.2       1 6JT        -0.1051
     15 C19        -6.5980    0.1150    8.3400 C.2       1 6JT        -0.1051
     16 C20        -6.7960    0.2370    7.0350 C.2       1 6JT        -0.1263
     17 C21        -7.3110   -0.9170    6.6010 C.2       1 6JT        -0.1263
     18 H1         -6.3183   -3.8483   11.4438 H         1 6JT         0.2216
     19 H2         -4.6983   -5.3963   11.2395 H         1 6JT         0.2490
     20 H3         -6.1948   -0.7376   13.2496 H         1 6JT         0.0594
     21 H4         -7.2845   -2.0165   12.6142 H         1 6JT         0.0594
     22 H5         -5.4898   -0.2342   10.8105 H         1 6JT         0.1038
     23 H6         -7.2481   -2.6758   10.1316 H         1 6JT         0.1646
     24 H7         -8.3251    3.2175   11.8918 H         1 6JT         0.0857
     25 H8         -7.8203   -2.7810    7.6038 H         1 6JT         0.0275
     26 H9         -6.1853    0.8790    8.9972 H         1 6JT         0.0275
     27 H10        -6.5791    1.1153    6.4288 H         1 6JT         0.0266
     28 H11        -7.5866   -1.1366    5.5706 H         1 6JT         0.0266
@<TRIPOS>BOND
     1    1    2 1  
     2    1    3 am 
     3    3    4 2  
     4    3    5 1  
     5    5    6 1  
     6    6    7 1  
     7    6    8 1  
     8    7   13 2  
     9    8    9 1  
    10    8   10 2  
    11    9   11 1  
    12   10   12 1  
    13   11   12 2  
    14   13   14 1  
    15   13   15 1  
    16   14   17 2  
    17   15   16 2  
    18   16   17 1  
    19    1   18 1  
    20    2   19 1  
    21    5   20 1  
    22    5   21 1  
    23    6   22 1  
    24    7   23 1  
    25   12   24 1  
    26   14   25 1  
    27   15   26 1  
    28   16   27 1  
    29   17   28 1  
@<TRIPOS>SUBSTRUCTURE
     1 6JT         1

