### 
### Created by X-TOOL on Mon Sep 10 21:13:28 2018
### 

@<TRIPOS>MOLECULE
5jf5_ligand
   28    29     1     0     0
SMALL
GAST_HUCK


@<TRIPOS>ATOM
      1 N1         -5.4150   -3.5250   11.8100 N.am      1 7JT        -0.1637
      2 O2         -4.3270   -4.4280   11.6100 O.3       1 7JT        -0.2717
      3 C3         -5.0980   -2.2800   12.2030 C.2       1 7JT         0.2070
      4 O4         -3.9370   -1.9300   12.3920 O.2       1 7JT        -0.3963
      5 C5         -6.2750   -1.2790   12.3850 C.3       1 7JT         0.0874
      6 C6         -6.4920   -0.4770   11.0780 C.3       1 7JT         0.1497
      7 C7         -6.9980   -1.3700    9.9230 C.2       1 7JT         0.0238
      8 C12        -7.7080    0.2490   11.5050 C.2       1 7JT         0.2552
      9 O13        -8.9310   -0.2460   11.7020 O.3       1 7JT        -0.1275
     10 N14        -7.8030    1.5330   11.2240 N.2       1 7JT        -0.2719
     11 N15        -9.7910    0.7630   11.5640 N.2       1 7JT        -0.1278
     12 C16        -9.1020    1.8490   11.2710 C.2       1 7JT         0.0700
     13 C17        -6.9210   -0.8610    8.6720 C.2       1 7JT        -0.0232
     14 C18        -6.3000    0.2420    8.3000 C.2       1 7JT        -0.1051
     15 C19        -7.4250   -1.4630    7.5930 C.2       1 7JT        -0.1051
     16 C20        -7.1280   -0.6940    6.5410 C.2       1 7JT        -0.1263
     17 C21        -6.4400    0.3430    6.9740 C.2       1 7JT        -0.1263
     18 H1         -6.3640   -3.8049   11.6650 H         1 7JT         0.2216
     19 H2         -4.6643   -5.2726   11.3355 H         1 7JT         0.2490
     20 H3         -6.0393   -0.5840   13.2044 H         1 7JT         0.0594
     21 H4         -7.1924   -1.8351   12.6282 H         1 7JT         0.0594
     22 H5         -5.6344    0.1484   10.7893 H         1 7JT         0.1038
     23 H6         -7.3990   -2.3654   10.1079 H         1 7JT         0.1646
     24 H7         -9.5212    2.8388   11.0963 H         1 7JT         0.0857
     25 H8         -5.7729    0.9387    8.9501 H         1 7JT         0.0275
     26 H9         -7.9744   -2.4031    7.5733 H         1 7JT         0.0275
     27 H10        -7.4061   -0.8902    5.5065 H         1 7JT         0.0266
     28 H11        -6.0499    1.1491    6.3544 H         1 7JT         0.0266
@<TRIPOS>BOND
     1    1    2 1  
     2    1    3 am 
     3    3    4 2  
     4    3    5 1  
     5    5    6 1  
     6    6    7 1  
     7    6    8 1  
     8    7   13 2  
     9    8    9 1  
    10    8   10 2  
    11    9   11 1  
    12   10   12 1  
    13   11   12 2  
    14   13   14 1  
    15   13   15 1  
    16   14   17 2  
    17   15   16 2  
    18   16   17 1  
    19    1   18 1  
    20    2   19 1  
    21    5   20 1  
    22    5   21 1  
    23    6   22 1  
    24    7   23 1  
    25   12   24 1  
    26   14   25 1  
    27   15   26 1  
    28   16   27 1  
    29   17   28 1  
@<TRIPOS>SUBSTRUCTURE
     1 7JT         1

