### 
### Created by X-TOOL on Mon Sep 10 21:13:26 2018
### 

@<TRIPOS>MOLECULE
5jf6_ligand
   24    25     1     0     0
SMALL
GAST_HUCK


@<TRIPOS>ATOM
      1 BR         -6.7710   -1.0960    6.4310 Br        1 BB4        -0.0612
      2 N1         -5.1010   -3.8570   11.7420 N.am      1 BB4        -0.1633
      3 O2         -3.6050   -2.3010   12.5520 O.2       1 BB4        -0.3954
      4 N3         -5.5930    1.9100   11.5100 N.pl3     1 BB4        -0.2872
      5 C4         -5.6390    0.8460   12.3990 C.2       1 BB4         0.0199
      6 C5         -5.8330   -0.3100   11.7390 C.2       1 BB4        -0.0263
      7 C6         -6.0300    0.0100   10.3590 C.ar      1 BB4        -0.0161
      8 C7         -6.2720   -0.7350    9.2020 C.ar      1 BB4        -0.0642
      9 C8         -6.3990   -0.0660    8.0310 C.ar      1 BB4        -0.0047
     10 C9         -6.2970    1.3160    7.9180 C.ar      1 BB4        -0.0677
     11 C10        -6.0220    2.0800    9.0490 C.ar      1 BB4        -0.0422
     12 C11        -5.8530    1.4200   10.2500 C.ar      1 BB4         0.0632
     13 C12        -5.9480   -1.6700   12.4030 C.3       1 BB4         0.0555
     14 C13        -4.7540   -2.6030   12.1750 C.2       1 BB4         0.2040
     15 O14        -4.0500   -4.6480   11.5970 O.3       1 BB4        -0.2717
     16 H1         -6.0416   -4.1415   11.5568 H         1 BB4         0.2217
     17 H2         -5.3987    2.8926   11.7501 H         1 BB4         0.2225
     18 H3         -5.5330    0.9342   13.4792 H         1 BB4         0.0805
     19 H4         -6.3555   -1.8151    9.2403 H         1 BB4         0.0576
     20 H5         -6.4308    1.7957    6.9552 H         1 BB4         0.0550
     21 H6         -5.9430    3.1594    8.9886 H         1 BB4         0.0546
     22 H7         -6.8486   -2.1660   12.0120 H         1 BB4         0.0583
     23 H8         -6.0569   -1.5131   13.4863 H         1 BB4         0.0583
     24 H9         -4.3371   -5.5024   11.2969 H         1 BB4         0.2490
@<TRIPOS>BOND
     1    9    1 1  
     2   14    2 am 
     3    2   15 1  
     4   14    3 2  
     5    5    4 1  
     6   12    4 1  
     7    6    5 2  
     8    6    7 1  
     9   13    6 1  
    10    7    8 ar 
    11    7   12 ar 
    12    8    9 ar 
    13    9   10 ar 
    14   11   10 ar 
    15   12   11 ar 
    16   13   14 1  
    17    2   16 1  
    18    4   17 1  
    19    5   18 1  
    20    8   19 1  
    21   10   20 1  
    22   11   21 1  
    23   13   22 1  
    24   13   23 1  
    25   15   24 1  
@<TRIPOS>SUBSTRUCTURE
     1 BB4         1

