### 
### Created by X-TOOL on Mon Sep 10 21:13:26 2018
### 

@<TRIPOS>MOLECULE
5jf7_ligand
   24    25     1     0     0
SMALL
GAST_HUCK


@<TRIPOS>ATOM
      1 C5         -6.2410    1.4210   11.1870 C.2       1 6JU        -0.0625
      2 C4         -6.2240    0.6880   12.3230 C.2       1 6JU         0.0272
      3 C6         -6.5150    0.5500   10.1050 C.ar      1 6JU        -0.0243
      4 C7         -6.6550    0.7090    8.7100 C.ar      1 6JU        -0.0649
      5 C8         -6.9670   -0.4030    7.8950 C.ar      1 6JU        -0.0045
      6 BR         -7.1530   -0.2240    5.9770 Br        1 6JU        -0.0607
      7 C9         -7.1370   -1.6810    8.4600 C.ar      1 6JU        -0.0673
      8 C10        -7.0010   -1.8480    9.8430 C.ar      1 6JU        -0.0409
      9 C11        -6.6840   -0.7320   10.6580 C.ar      1 6JU         0.0707
     10 N3         -6.5010   -0.5970   11.9820 N.pl3     1 6JU        -0.2462
     11 C12        -6.6050   -1.7640   12.9040 C.3       1 6JU         0.1427
     12 C13        -5.3210   -2.6430   12.7690 C.2       1 6JU         0.2285
     13 O2         -4.2950   -2.3320   13.3790 O.2       1 6JU        -0.3940
     14 N1         -5.4370   -3.7310   11.9740 N.am      1 6JU        -0.1620
     15 O14        -4.4100   -4.5830   11.7420 O.3       1 6JU        -0.2716
     16 H1         -6.0731    2.4947   11.1165 H         1 6JU         0.0289
     17 H2         -6.0248    1.0598   13.3270 H         1 6JU         0.0938
     18 H3         -6.5229    1.6871    8.2618 H         1 6JU         0.0570
     19 H4         -7.3717   -2.5301    7.8283 H         1 6JU         0.0550
     20 H5         -7.1375   -2.8265   10.2891 H         1 6JU         0.0549
     21 H6         -7.4896   -2.3626   12.6411 H         1 6JU         0.0847
     22 H7         -6.6987   -1.4068   13.9401 H         1 6JU         0.0847
     23 H8         -6.3186   -3.9142   11.5390 H         1 6JU         0.2217
     24 H9         -4.7000   -5.2758   11.1602 H         1 6JU         0.2490
@<TRIPOS>BOND
     1    1    2 2  
     2    1    3 1  
     3    2   10 1  
     4    3    4 ar 
     5    3    9 ar 
     6    4    5 ar 
     7    5    6 1  
     8    5    7 ar 
     9    7    8 ar 
    10    8    9 ar 
    11    9   10 1  
    12   10   11 1  
    13   11   12 1  
    14   12   13 2  
    15   12   14 am 
    16   14   15 1  
    17    1   16 1  
    18    2   17 1  
    19    4   18 1  
    20    7   19 1  
    21    8   20 1  
    22   11   21 1  
    23   11   22 1  
    24   14   23 1  
    25   15   24 1  
@<TRIPOS>SUBSTRUCTURE
     1 6JU         1

