### 
### Created by X-TOOL on Mon Sep 10 21:13:28 2018
### 

@<TRIPOS>MOLECULE
5jf8_ligand
   33    32     1     0     0
SMALL
GAST_HUCK


@<TRIPOS>ATOM
      1 C1         -5.2620   -3.5840   11.7910 C.2       1 PN3         0.1949
      2 O2         -4.4010   -4.5690   11.4960 O.2       1 PN3        -0.3830
      3 N3         -4.9410   -2.5360   12.4570 N.am      1 PN3        -0.1501
      4 O4         -3.6300   -2.3250   12.9460 O.3       1 PN3        -0.2685
      5 C5         -5.9780   -1.5340   12.7350 C.3       1 PN3         0.0857
      6 C6         -5.4600   -0.1830   12.2320 C.3       1 PN3         0.0642
      7 C7         -6.2430    1.0050   12.8290 C.3       1 PN3        -0.0400
      8 N14        -5.4560   -0.1000   10.7560 N.am      1 PN3        -0.2577
      9 C15        -6.4540   -0.2690    9.9750 C.2       1 PN3         0.3203
     10 O16        -7.6570   -0.5950   10.4580 O.2       1 PN3        -0.3775
     11 O17        -6.2660   -0.1050    8.5320 O.3       1 PN3        -0.2581
     12 C18        -7.2260   -0.5390    7.5330 C.3       1 PN3         0.0905
     13 C19        -8.5120    0.2920    7.6390 C.3       1 PN3        -0.0320
     14 C20        -6.6340   -0.2960    6.1570 C.3       1 PN3        -0.0320
     15 C21        -7.4800   -2.0350    7.7260 C.3       1 PN3        -0.0320
     16 H1         -6.2905   -3.6793   11.4460 H         1 PN3         0.1560
     17 H2         -3.5957   -1.4966   13.4099 H         1 PN3         0.2496
     18 H3         -6.1706   -1.4831   13.8168 H         1 PN3         0.0576
     19 H4         -6.9071   -1.7993   12.2092 H         1 PN3         0.0576
     20 H5         -4.4171   -0.0926   12.5698 H         1 PN3         0.0574
     21 H6         -5.8334    1.9479   12.4376 H         1 PN3         0.0252
     22 H7         -6.1500    0.9918   13.9250 H         1 PN3         0.0252
     23 H8         -7.3038    0.9223   12.5500 H         1 PN3         0.0252
     24 H9         -4.5798    0.1107   10.3225 H         1 PN3         0.1871
     25 H10        -9.2307   -0.0459    6.8778 H         1 PN3         0.0260
     26 H11        -8.2769    1.3540    7.4753 H         1 PN3         0.0260
     27 H12        -8.9502    0.1634    8.6397 H         1 PN3         0.0260
     28 H13        -7.3500   -0.6200    5.3874 H         1 PN3         0.0260
     29 H14        -5.7003   -0.8682    6.0532 H         1 PN3         0.0260
     30 H15        -6.4226    0.7763    6.0329 H         1 PN3         0.0260
     31 H16        -8.2063   -2.3832    6.9768 H         1 PN3         0.0260
     32 H17        -7.8808   -2.2117    8.7350 H         1 PN3         0.0260
     33 H18        -6.5356   -2.5859    7.6049 H         1 PN3         0.0260
@<TRIPOS>BOND
     1    1    2 2  
     2    1    3 am 
     3    3    4 1  
     4    3    5 1  
     5    5    6 1  
     6    6    7 1  
     7    6    8 1  
     8    8    9 am 
     9    9   10 2  
    10    9   11 1  
    11   11   12 1  
    12   12   13 1  
    13   12   14 1  
    14   12   15 1  
    15    1   16 1  
    16    4   17 1  
    17    5   18 1  
    18    5   19 1  
    19    6   20 1  
    20    7   21 1  
    21    7   22 1  
    22    7   23 1  
    23    8   24 1  
    24   13   25 1  
    25   13   26 1  
    26   13   27 1  
    27   14   28 1  
    28   14   29 1  
    29   14   30 1  
    30   15   31 1  
    31   15   32 1  
    32   15   33 1  
@<TRIPOS>SUBSTRUCTURE
     1 PN3         1

