### 
### Created by X-TOOL on Fri Nov  2 10:25:54 2018
### 

@<TRIPOS>MOLECULE
5jfd_ligand
   77    79     1     0     0
SMALL
GAST_HUCK


@<TRIPOS>ATOM
      1 C1         16.3410  -18.7850   22.5220 C.3       1 MOL         0.1181
      2 S19        15.6850  -17.1680   22.1540 S.o2      1 MOL         0.0511
      3 C55        16.0740  -19.3410   23.8990 C.ar      1 MOL        -0.0204
      4 C50        14.7900  -19.6920   24.2810 C.ar      1 MOL        -0.0587
      5 C51        14.5350  -20.1640   25.5620 C.ar      1 MOL        -0.0685
      6 C52        15.5670  -20.3060   26.4700 C.ar      1 MOL        -0.0687
      7 C53        16.8490  -19.9670   26.0970 C.ar      1 MOL        -0.0685
      8 C54        17.1010  -19.4830   24.8190 C.ar      1 MOL        -0.0587
      9 O27        14.2730  -17.2380   22.3490 O.2       1 MOL        -0.1532
     10 O28        16.2030  -16.7540   20.8890 O.2       1 MOL        -0.1532
     11 N29        16.2930  -16.1630   23.2730 N.am      1 MOL        -0.2281
     12 C28        17.5140  -15.3800   23.1110 C.3       1 MOL         0.1265
     13 C42        18.1390  -15.0160   24.4600 C.3       1 MOL        -0.0128
     14 C43        18.3330  -16.2590   25.3510 C.3       1 MOL        -0.0160
     15 C44        19.0690  -15.8710   26.6440 C.3       1 MOL         0.0627
     16 N45        18.8410  -16.8260   27.7300 N.pl3     1 MOL        -0.2723
     17 C34        19.6070  -18.0020   27.7260 C.cat     1 MOL         0.2882
     18 N39        19.2990  -18.8520   28.7840 N.pl3     1 MOL        -0.2849
     19 N38        20.4950  -18.2170   26.7560 N.pl3     1 MOL        -0.2849
     20 C27        17.1250  -14.0890   22.3870 C.2       1 MOL         0.2025
     21 O38        16.1250  -13.4780   22.7310 O.2       1 MOL        -0.3946
     22 N25        17.9460  -13.6300   21.4370 N.am      1 MOL        -0.2502
     23 C26        17.6450  -12.3840   20.7160 C.3       1 MOL         0.1337
     24 C21        16.1650  -12.2790   20.3660 C.2       1 MOL         0.2035
     25 O39        15.5590  -13.2330   19.8720 O.2       1 MOL        -0.3944
     26 C22        18.5080  -12.4970   19.4510 C.3       1 MOL        -0.0104
     27 C23        19.7340  -13.2920   19.9280 C.3       1 MOL        -0.0281
     28 C24        19.1800  -14.2800   20.9510 C.3       1 MOL         0.0369
     29 N19        15.5990  -11.0980   20.6150 N.am      1 MOL        -0.2749
     30 C10        14.1900  -10.8480   20.3260 C.3       1 MOL         0.0624
     31 C6         13.3090  -10.8530   21.5590 C.ar      1 MOL        -0.0134
     32 C5         12.4860  -11.9550   21.8700 C.ar      1 MOL         0.0054
     33 C32        12.4670  -13.2620   21.0730 C.3       1 MOL        -0.0037
     34 N33        13.3160  -14.3440   21.6920 N.4       1 MOL         0.2299
     35 C4         11.6450  -11.8860   22.9760 C.ar      1 MOL        -0.0611
     36 C3         11.5860  -10.7470   23.7650 C.ar      1 MOL        -0.0614
     37 C2         12.4110   -9.6970   23.4630 C.ar      1 MOL         0.0264
     38 CL1        12.4080   -8.2870   24.4770 Cl        1 MOL        -0.0789
     39 C7         13.2630   -9.7350   22.3840 C.ar      1 MOL        -0.0509
     40 H1         17.4320  -18.7372   22.3904 H         1 MOL         0.0682
     41 H2         15.9142  -19.4890   21.7925 H         1 MOL         0.0682
     42 H3         13.9751  -19.5973   23.5724 H         1 MOL         0.0557
     43 H4         13.5225  -20.4220   25.8507 H         1 MOL         0.0599
     44 H5         15.3693  -20.6811   27.4676 H         1 MOL         0.0559
     45 H6         17.6641  -20.0782   26.8029 H         1 MOL         0.0599
     46 H7         18.1127  -19.2133   24.5382 H         1 MOL         0.0557
     47 H8         15.7954  -16.0736   24.1358 H         1 MOL         0.1703
     48 H9         18.2420  -15.9484   22.5135 H         1 MOL         0.0753
     49 H10        17.4792  -14.3049   24.9786 H         1 MOL         0.0309
     50 H11        19.1182  -14.5466   24.2845 H         1 MOL         0.0309
     51 H12        18.9253  -17.0088   24.8060 H         1 MOL         0.0301
     52 H13        17.3499  -16.6821   25.6047 H         1 MOL         0.0301
     53 H14        18.7163  -14.8802   26.9664 H         1 MOL         0.0689
     54 H15        20.1481  -15.8261   26.4352 H         1 MOL         0.0689
     55 H16        18.1460  -16.6421   28.4677 H         1 MOL         0.2642
     56 H17        19.7968  -19.7479   28.8866 H         1 MOL         0.2615
     57 H18        18.5733  -18.5852   29.4645 H         1 MOL         0.2615
     58 H19        20.6370  -17.5090   26.0215 H         1 MOL         0.2615
     59 H20        21.0394  -19.0912   26.7407 H         1 MOL         0.2615
     60 H21        17.9379  -11.5077   21.3129 H         1 MOL         0.0802
     61 H22        18.8018  -11.5024   19.0845 H         1 MOL         0.0313
     62 H23        17.9730  -13.0374   18.6562 H         1 MOL         0.0313
     63 H24        20.4725  -12.6235   20.3946 H         1 MOL         0.0287
     64 H25        20.2018  -13.8253   19.0873 H         1 MOL         0.0287
     65 H26        18.9534  -15.2472   20.4786 H         1 MOL         0.0524
     66 H27        19.8931  -14.4322   21.7746 H         1 MOL         0.0524
     67 H28        16.1533  -10.3651   21.0095 H         1 MOL         0.1876
     68 H29        13.8317  -11.6289   19.6392 H         1 MOL         0.0668
     69 H30        14.1034   -9.8648   19.8405 H         1 MOL         0.0668
     70 H31        12.8424  -13.0594   20.0591 H         1 MOL         0.0964
     71 H32        11.4291  -13.6216   21.0147 H         1 MOL         0.0964
     72 H33        13.2645  -15.1765   21.1260 H         1 MOL         0.2007
     73 H34        12.9779  -14.5469   22.6197 H         1 MOL         0.2007
     74 H35        14.2730  -14.0318   21.7439 H         1 MOL         0.2007
     75 H36        11.0240  -12.7387   23.2258 H         1 MOL         0.0540
     76 H37        10.9011  -10.6893   24.6032 H         1 MOL         0.0548
     77 H38        13.9040   -8.8861   22.1751 H         1 MOL         0.0544
@<TRIPOS>BOND
     1    1    2 1  
     2    1    3 1  
     3    2    9 2  
     4    2   10 2  
     5    2   11 am 
     6    3    4 ar 
     7    3    8 ar 
     8    4    5 ar 
     9    5    6 ar 
    10    6    7 ar 
    11    7    8 ar 
    12   11   12 1  
    13   12   13 1  
    14   12   20 1  
    15   13   14 1  
    16   14   15 1  
    17   15   16 1  
    18   16   17 ar 
    19   17   18 ar 
    20   17   19 ar 
    21   20   21 2  
    22   20   22 am 
    23   22   23 1  
    24   22   28 1  
    25   23   24 1  
    26   23   26 1  
    27   24   25 2  
    28   24   29 am 
    29   26   27 1  
    30   27   28 1  
    31   29   30 1  
    32   30   31 1  
    33   31   32 ar 
    34   31   39 ar 
    35   32   33 1  
    36   32   35 ar 
    37   33   34 1  
    38   35   36 ar 
    39   36   37 ar 
    40   37   38 1  
    41   37   39 ar 
    42    1   40 1  
    43    1   41 1  
    44    4   42 1  
    45    5   43 1  
    46    6   44 1  
    47    7   45 1  
    48    8   46 1  
    49   11   47 1  
    50   12   48 1  
    51   13   49 1  
    52   13   50 1  
    53   14   51 1  
    54   14   52 1  
    55   15   53 1  
    56   15   54 1  
    57   16   55 1  
    58   18   56 1  
    59   18   57 1  
    60   19   58 1  
    61   19   59 1  
    62   23   60 1  
    63   26   61 1  
    64   26   62 1  
    65   27   63 1  
    66   27   64 1  
    67   28   65 1  
    68   28   66 1  
    69   29   67 1  
    70   30   68 1  
    71   30   69 1  
    72   33   70 1  
    73   33   71 1  
    74   34   72 1  
    75   34   73 1  
    76   34   74 1  
    77   35   75 1  
    78   36   76 1  
    79   39   77 1  
@<TRIPOS>SUBSTRUCTURE
     1 MOL         1

