### 
### Created by X-TOOL on Mon Sep 10 21:13:29 2018
### 

@<TRIPOS>MOLECULE
5jfp_ligand
   91    96     1     0     0
SMALL
GAST_HUCK


@<TRIPOS>ATOM
      1 C2         20.7720   27.6060   14.7260 C.ar      1 6KK         0.0908
      2 C3         19.4580   27.5040   14.3140 C.ar      1 6KK        -0.0313
      3 C4         18.6790   26.3750   14.5740 C.ar      1 6KK        -0.0440
      4 C5         19.2910   25.3390   15.2800 C.ar      1 6KK         0.0971
      5 C6         20.6030   25.4380   15.6790 C.ar      1 6KK        -0.0440
      6 C7         21.3990   26.5440   15.3800 C.ar      1 6KK        -0.0313
      7 S8         18.2800   23.9610   15.7170 S.o2      1 6KK         0.0657
      8 O9         17.2160   23.8810   14.6830 O.2       1 6KK        -0.1515
      9 O10        19.1280   22.7350   15.8240 O.2       1 6KK        -0.1515
     10 N11        17.5950   24.1540   17.2010 N.am      1 6KK        -0.2325
     11 C12        18.5210   24.5820   18.2370 C.3       1 6KK         0.0319
     12 C13        18.1830   23.9890   19.6090 C.3       1 6KK        -0.0296
     13 C14        18.1120   22.4550   19.5480 C.3       1 6KK        -0.0612
     14 C15        19.1740   24.3950   20.6990 C.3       1 6KK        -0.0612
     15 C16        16.2900   24.7840   17.2690 C.3       1 6KK         0.0576
     16 C17        15.2210   23.8600   17.8730 C.3       1 6KK         0.0949
     17 O18        14.0520   24.6190   18.2000 O.3       1 6KK        -0.3879
     18 C19        14.8340   22.7240   16.9240 C.3       1 6KK         0.0718
     19 N20        13.8650   21.8470   17.6160 N.am      1 6KK        -0.2569
     20 C21        14.1920   20.6200   18.0530 C.2       1 6KK         0.3201
     21 O22        15.3210   20.1570   17.8940 O.2       1 6KK        -0.3775
     22 O23        13.1610   20.0000   18.6640 O.3       1 6KK        -0.2578
     23 C24        13.3930   18.6200   19.0440 C.3       1 6KK         0.1189
     24 C25        12.8520   18.4700   20.4790 C.3       1 6KK         0.0815
     25 O26        11.4320   18.5180   20.3000 O.3       1 6KK        -0.3480
     26 C27        11.1300   17.8110   19.0980 C.3       1 6KK         0.1648
     27 O28        10.1470   18.5310   18.3630 O.3       1 6KK        -0.3509
     28 C29        10.7470   19.1150   17.2140 C.3       1 6KK         0.0512
     29 C30        12.0150   18.3050   16.9060 C.3       1 6KK        -0.0191
     30 C31        12.3990   17.7710   18.2630 C.3       1 6KK         0.0449
     31 C32        14.0740   23.1750   15.6710 C.3       1 6KK        -0.0218
     32 C51        13.7940   22.2340   14.4860 C.3       1 6KK        -0.0263
     33 C52        12.5210   21.4570   14.7670 C.3       1 6KK        -0.0444
     34 C53        12.1950   20.5290   13.5950 C.3       1 6KK        -0.0400
     35 C54        13.3540   19.5730   13.3580 C.3       1 6KK        -0.0473
     36 C55        14.6370   20.3630   13.0960 C.3       1 6KK        -0.0400
     37 C56        14.4350   21.1800   11.8080 C.3       1 6KK        -0.0473
     38 C57        13.2730   22.1530   12.0150 C.3       1 6KK        -0.0400
     39 C58        13.6090   23.0600   13.2070 C.3       1 6KK        -0.0444
     40 C59        14.9770   21.2820   14.2630 C.3       1 6KK        -0.0444
     41 C60        11.9640   21.4100   12.3530 C.3       1 6KK        -0.0473
     42 O39        21.4270   28.7700   14.4790 O.3       1 6KK        -0.3212
     43 C40        22.8050   28.6770   14.8430 C.3       1 6KK         0.0594
     44 H1         19.0155   28.3301   13.7692 H         1 6KK         0.0542
     45 H2         17.6489   26.3067   14.2434 H         1 6KK         0.0608
     46 H3         21.0363   24.6240   16.2488 H         1 6KK         0.0608
     47 H4         22.4503   26.5770   15.6420 H         1 6KK         0.0542
     48 H5         18.4870   25.6791   18.3090 H         1 6KK         0.0480
     49 H6         19.5359   24.2643   17.9560 H         1 6KK         0.0480
     50 H7         17.1914   24.3686   19.8964 H         1 6KK         0.0311
     51 H8         17.8683   22.0593   20.5450 H         1 6KK         0.0233
     52 H9         19.0839   22.0556   19.2225 H         1 6KK         0.0233
     53 H10        17.3330   22.1521   18.8329 H         1 6KK         0.0233
     54 H11        19.2325   25.4922   20.7511 H         1 6KK         0.0233
     55 H12        20.1672   23.9857   20.4625 H         1 6KK         0.0233
     56 H13        18.8357   23.9994   21.6680 H         1 6KK         0.0233
     57 H14        15.9800   25.0640   16.2514 H         1 6KK         0.0504
     58 H15        16.3668   25.6881   17.8908 H         1 6KK         0.0504
     59 H16        15.6279   23.4185   18.7947 H         1 6KK         0.0632
     60 H17        14.2790   25.2919   18.8310 H         1 6KK         0.2099
     61 H18        15.7402   22.1705   16.6367 H         1 6KK         0.0581
     62 H19        12.9335   22.1793   17.7637 H         1 6KK         0.1871
     63 H20        14.4413   18.3100   18.9220 H         1 6KK         0.0675
     64 H21        13.1970   19.2955   21.1189 H         1 6KK         0.0590
     65 H22        13.1618   17.5107   20.9191 H         1 6KK         0.0590
     66 H23        10.7758   16.7945   19.3242 H         1 6KK         0.0913
     67 H24        11.0093   20.1638   17.4171 H         1 6KK         0.0561
     68 H25        10.0535   19.0689   16.3614 H         1 6KK         0.0561
     69 H26        12.8066   18.9475   16.4932 H         1 6KK         0.0293
     70 H27        11.8028   17.4866   16.2023 H         1 6KK         0.0293
     71 H28        12.7863   16.7468   18.1582 H         1 6KK         0.0380
     72 H29        14.6411   24.0229   15.2593 H         1 6KK         0.0293
     73 H30        13.0917   23.5258   16.0202 H         1 6KK         0.0293
     74 H31        11.6899   22.1627   14.9129 H         1 6KK         0.0273
     75 H32        12.6563   20.8563   15.6785 H         1 6KK         0.0273
     76 H33        11.2853   19.9515   13.8162 H         1 6KK         0.0301
     77 H34        13.1317   18.9396   12.4866 H         1 6KK         0.0271
     78 H35        13.4913   18.9393   14.2465 H         1 6KK         0.0271
     79 H36        15.4693   19.6584   12.9519 H         1 6KK         0.0301
     80 H37        14.2044   20.5020   10.9731 H         1 6KK         0.0271
     81 H38        15.3520   21.7433   11.5805 H         1 6KK         0.0271
     82 H39        13.1322   22.7549   11.1051 H         1 6KK         0.0301
     83 H40        14.5394   23.6065   12.9931 H         1 6KK         0.0273
     84 H41        12.7886   23.7773   13.3566 H         1 6KK         0.0273
     85 H42        15.1492   20.6837   15.1698 H         1 6KK         0.0273
     86 H43        15.8821   21.8616   14.0287 H         1 6KK         0.0273
     87 H44        11.1685   22.1405   12.5615 H         1 6KK         0.0271
     88 H45        11.6681   20.7784   11.5024 H         1 6KK         0.0271
     89 H46        23.3055   29.6333   14.6310 H         1 6KK         0.0577
     90 H47        23.2845   27.8755   14.2619 H         1 6KK         0.0577
     91 H48        22.8863   28.4507   15.9164 H         1 6KK         0.0577
@<TRIPOS>BOND
     1    1    2 ar 
     2    1    6 ar 
     3    1   42 1  
     4    2    3 ar 
     5    3    4 ar 
     6    4    5 ar 
     7    4    7 1  
     8    5    6 ar 
     9    7    8 2  
    10    7    9 2  
    11    7   10 am 
    12   10   11 1  
    13   10   15 1  
    14   11   12 1  
    15   12   13 1  
    16   12   14 1  
    17   15   16 1  
    18   16   17 1  
    19   16   18 1  
    20   18   19 1  
    21   18   31 1  
    22   19   20 am 
    23   20   21 2  
    24   20   22 1  
    25   22   23 1  
    26   23   24 1  
    27   23   30 1  
    28   24   25 1  
    29   25   26 1  
    30   26   27 1  
    31   26   30 1  
    32   27   28 1  
    33   28   29 1  
    34   29   30 1  
    35   31   32 1  
    36   32   33 1  
    37   32   39 1  
    38   32   40 1  
    39   33   34 1  
    40   34   35 1  
    41   34   41 1  
    42   35   36 1  
    43   36   37 1  
    44   36   40 1  
    45   37   38 1  
    46   38   39 1  
    47   38   41 1  
    48   42   43 1  
    49    2   44 1  
    50    3   45 1  
    51    5   46 1  
    52    6   47 1  
    53   11   48 1  
    54   11   49 1  
    55   12   50 1  
    56   13   51 1  
    57   13   52 1  
    58   13   53 1  
    59   14   54 1  
    60   14   55 1  
    61   14   56 1  
    62   15   57 1  
    63   15   58 1  
    64   16   59 1  
    65   17   60 1  
    66   18   61 1  
    67   19   62 1  
    68   23   63 1  
    69   24   64 1  
    70   24   65 1  
    71   26   66 1  
    72   28   67 1  
    73   28   68 1  
    74   29   69 1  
    75   29   70 1  
    76   30   71 1  
    77   31   72 1  
    78   31   73 1  
    79   33   74 1  
    80   33   75 1  
    81   34   76 1  
    82   35   77 1  
    83   35   78 1  
    84   36   79 1  
    85   37   80 1  
    86   37   81 1  
    87   38   82 1  
    88   39   83 1  
    89   39   84 1  
    90   40   85 1  
    91   40   86 1  
    92   41   87 1  
    93   41   88 1  
    94   43   89 1  
    95   43   90 1  
    96   43   91 1  
@<TRIPOS>SUBSTRUCTURE
     1 6KK         1

