### 
### Created by X-TOOL on Mon Sep 10 21:13:25 2018
### 

@<TRIPOS>MOLECULE
5jfr_ligand
   34    38     1     0     0
SMALL
GAST_HUCK


@<TRIPOS>ATOM
      1 N3         14.0430  -32.1660  -17.7460 N.ar      1 6KP        -0.2895
      2 C4         13.2410  -32.7960  -16.9000 C.ar      1 6KP         0.1381
      3 C7         11.6440  -33.8550  -15.7980 C.2       1 6KP         0.1035
      4 C10        14.9430  -32.5990  -15.1700 C.ar      1 6KP        -0.0193
      5 N12        17.0450  -31.4690  -15.7180 N.pl3     1 6KP        -0.2341
      6 C13        17.4590  -30.1290  -15.5950 C.2       1 6KP         0.0978
      7 C20        20.4240  -32.0590  -14.7080 C.ar      1 6KP        -0.0356
      8 C21        20.5040  -33.4330  -14.6770 C.ar      1 6KP         0.1163
      9 C24        18.2200  -33.6890  -15.3520 C.ar      1 6KP        -0.0408
     10 C1         16.0290  -31.0290  -18.4940 C.3       1 6KP        -0.0197
     11 C2         15.2450  -31.7340  -17.4060 C.ar      1 6KP         0.0419
     12 N5         11.9650  -33.3240  -17.0130 N.pl3     1 6KP        -0.2436
     13 N8         12.6380  -33.6910  -14.9630 N.2       1 6KP        -0.3060
     14 C9         13.6620  -33.0360  -15.5740 C.ar      1 6KP         0.0459
     15 C11        15.7470  -31.9230  -16.0970 C.ar      1 6KP         0.0968
     16 C14        17.0260  -28.7880  -15.7330 C.2       1 6KP         0.0285
     17 N15        18.0250  -27.9820  -15.4340 N.2       1 6KP        -0.2242
     18 N16        19.1660  -28.7630  -15.1090 N.pl3     1 6KP        -0.2298
     19 C18        18.7960  -30.0850  -15.2070 C.2       1 6KP         0.0972
     20 C19        19.2150  -31.4790  -15.0760 C.ar      1 6KP         0.0169
     21 F22        21.6680  -33.9880  -14.3290 F         1 6KP        -0.1941
     22 C23        19.4320  -34.2470  -15.0030 C.ar      1 6KP        -0.0404
     23 C25        18.0950  -32.2990  -15.3910 C.ar      1 6KP         0.0748
     24 H1         10.7004  -34.3430  -15.5586 H         1 6KP         0.1348
     25 H2         15.2971  -32.7831  -14.1622 H         1 6KP         0.0587
     26 H3         21.2805  -31.4457  -14.4524 H         1 6KP         0.0540
     27 H4         17.3741  -34.3224  -15.5933 H         1 6KP         0.0538
     28 H5         17.0064  -30.7164  -18.0977 H         1 6KP         0.0399
     29 H6         15.4709  -30.1439  -18.8333 H         1 6KP         0.0399
     30 H7         16.1790  -31.7148  -19.3409 H         1 6KP         0.0399
     31 H8         11.3714  -33.3170  -17.8547 H         1 6KP         0.2350
     32 H9         16.0287  -28.4734  -16.0370 H         1 6KP         0.0658
     33 H10        20.0966  -28.4065  -14.8486 H         1 6KP         0.2431
     34 H11        19.5458  -35.3248  -14.9838 H         1 6KP         0.0545
@<TRIPOS>BOND
     1    2    1 ar 
     2    1   11 ar 
     3    2   12 1  
     4   14    2 ar 
     5   12    3 1  
     6    3   13 2  
     7    4   14 ar 
     8   15    4 ar 
     9    5    6 1  
    10    5   15 1  
    11   23    5 1  
    12    6   16 1  
    13    6   19 2  
    14    8    7 ar 
    15    7   20 ar 
    16    8   21 1  
    17   22    8 ar 
    18    9   22 ar 
    19    9   23 ar 
    20   11   10 1  
    21   11   15 ar 
    22   13   14 1  
    23   16   17 2  
    24   17   18 1  
    25   18   19 1  
    26   19   20 1  
    27   20   23 ar 
    28    3   24 1  
    29    4   25 1  
    30    7   26 1  
    31    9   27 1  
    32   10   28 1  
    33   10   29 1  
    34   10   30 1  
    35   12   31 1  
    36   16   32 1  
    37   18   33 1  
    38   22   34 1  
@<TRIPOS>SUBSTRUCTURE
     1 6KP         1

