### 
### Created by X-TOOL on Mon Sep 10 21:13:29 2018
### 

@<TRIPOS>MOLECULE
5jfu_ligand
   92    98     1     0     0
SMALL
GAST_HUCK


@<TRIPOS>ATOM
      1 C2         21.2020   27.7500   14.8740 C.ar      1 6KQ         0.0908
      2 C4         19.1050   26.5640   14.7810 C.ar      1 6KQ        -0.0440
      3 C6         21.0220   25.5830   15.8940 C.ar      1 6KQ        -0.0440
      4 C7         21.8070   26.6860   15.5460 C.ar      1 6KQ        -0.0313
      5 O10        19.5920   22.9920   16.1900 O.2       1 6KQ        -0.1514
      6 N11        17.8940   24.4430   17.3900 N.am      1 6KQ        -0.2215
      7 C16        16.5910   25.0680   17.2240 C.3       1 6KQ         0.0598
      8 C17        15.5040   24.1500   17.8100 C.3       1 6KQ         0.0951
      9 O18        14.3280   24.9180   18.0670 O.3       1 6KQ        -0.3879
     10 C21        14.5520   20.8560   18.0140 C.2       1 6KQ         0.3201
     11 O28        10.4980   18.7660   18.3560 O.3       1 6KQ        -0.3509
     12 C29        11.1540   19.4680   17.3090 C.3       1 6KQ         0.0512
     13 C30        12.3330   18.5660   16.9170 C.3       1 6KQ        -0.0191
     14 C31        12.7410   17.9530   18.2600 C.3       1 6KQ         0.0449
     15 C32        14.5390   23.4250   15.5730 C.3       1 6KQ        -0.0218
     16 O39        21.9210   28.8510   14.5340 O.3       1 6KQ        -0.3212
     17 C40        23.2390   28.8220   15.0740 C.3       1 6KQ         0.0594
     18 C3         19.8600   27.6970   14.5060 C.ar      1 6KQ        -0.0313
     19 C5         19.6690   25.5730   15.5790 C.ar      1 6KQ         0.0973
     20 S8         18.6930   24.1700   15.9830 S.o2      1 6KQ         0.0674
     21 O9         17.7050   23.9380   14.8810 O.2       1 6KQ        -0.1514
     22 C42        18.7420   24.9740   18.4270 C.3       1 6KQ         0.0632
     23 C43        20.4920   23.8880   19.9110 C.ar      1 6KQ        -0.0588
     24 C44        20.9200   22.8790   20.7670 C.ar      1 6KQ        -0.0685
     25 C45        20.0570   21.8570   21.1370 C.ar      1 6KQ        -0.0687
     26 C46        18.7450   21.8810   20.6690 C.ar      1 6KQ        -0.0685
     27 C47        18.3200   22.8810   19.8020 C.ar      1 6KQ        -0.0588
     28 C48        19.1930   23.8870   19.4110 C.ar      1 6KQ        -0.0244
     29 C19        15.1970   22.9660   16.8870 C.3       1 6KQ         0.0718
     30 N20        14.2340   22.0640   17.5210 N.am      1 6KQ        -0.2569
     31 O22        15.6790   20.3850   17.9780 O.2       1 6KQ        -0.3775
     32 O23        13.5250   20.1920   18.5960 O.3       1 6KQ        -0.2578
     33 C24        13.7750   18.8340   18.9830 C.3       1 6KQ         0.1189
     34 C25        13.2640   18.6830   20.4290 C.3       1 6KQ         0.0815
     35 O26        11.8390   18.7880   20.2860 O.3       1 6KQ        -0.3480
     36 C27        11.4860   18.0590   19.1090 C.3       1 6KQ         0.1648
     37 C51        14.2790   22.3950   14.4650 C.3       1 6KQ        -0.0263
     38 C52        13.0030   21.6350   14.7710 C.3       1 6KQ        -0.0444
     39 C53        12.7470   20.6140   13.6590 C.3       1 6KQ        -0.0400
     40 C54        13.9460   19.6640   13.5150 C.3       1 6KQ        -0.0473
     41 C55        15.2240   20.4440   13.2160 C.3       1 6KQ        -0.0400
     42 C56        15.0470   21.2060   11.9000 C.3       1 6KQ        -0.0473
     43 C57        13.8460   22.1430   12.0200 C.3       1 6KQ        -0.0400
     44 C58        14.1030   23.1560   13.1410 C.3       1 6KQ        -0.0444
     45 C59        15.4670   21.4480   14.3510 C.3       1 6KQ        -0.0444
     46 C60        12.5580   21.3750   12.3360 C.3       1 6KQ        -0.0473
     47 H1         18.1022   26.4545   14.3842 H         1 6KQ         0.0608
     48 H2         21.4673   24.7387   16.4077 H         1 6KQ         0.0608
     49 H3         22.8622   26.7147   15.7924 H         1 6KQ         0.0542
     50 H4         16.3958   25.2305   16.1537 H         1 6KQ         0.0506
     51 H5         16.5779   26.0340   17.7500 H         1 6KQ         0.0506
     52 H6         15.8717   23.7472   18.7653 H         1 6KQ         0.0632
     53 H7         14.5312   25.6082   18.6874 H         1 6KQ         0.2099
     54 H8         11.5138   20.4454   17.6628 H         1 6KQ         0.0561
     55 H9         10.4761   19.6139   16.4551 H         1 6KQ         0.0561
     56 H10        13.1552   19.1529   16.4816 H         1 6KQ         0.0293
     57 H11        12.0195   17.7891   16.2042 H         1 6KQ         0.0293
     58 H12        13.0987   16.9192   18.1446 H         1 6KQ         0.0380
     59 H13        15.1880   24.2022   15.1431 H         1 6KQ         0.0293
     60 H14        13.5660   23.8647   15.8375 H         1 6KQ         0.0293
     61 H15        23.7791   29.7314   14.7718 H         1 6KQ         0.0577
     62 H16        23.7710   27.9368   14.6954 H         1 6KQ         0.0577
     63 H17        23.1846   28.7756   16.1717 H         1 6KQ         0.0577
     64 H18        19.4034   28.5421   14.0036 H         1 6KQ         0.0542
     65 H19        18.1865   25.7457   18.9800 H         1 6KQ         0.0641
     66 H20        19.6317   25.4244   17.9628 H         1 6KQ         0.0641
     67 H21        21.1754   24.6815   19.6310 H         1 6KQ         0.0557
     68 H22        21.9348   22.8908   21.1479 H         1 6KQ         0.0599
     69 H23        20.3982   21.0534   21.7795 H         1 6KQ         0.0559
     70 H24        18.0487   21.1123   20.9841 H         1 6KQ         0.0599
     71 H25        17.3020   22.8752   19.4295 H         1 6KQ         0.0557
     72 H26        16.1324   22.4297   16.6695 H         1 6KQ         0.0581
     73 H27        13.2830   22.3652   17.5911 H         1 6KQ         0.1871
     74 H28        14.8209   18.5289   18.8315 H         1 6KQ         0.0675
     75 H29        13.6561   19.4850   21.0717 H         1 6KQ         0.0590
     76 H30        13.5475   17.7061   20.8476 H         1 6KQ         0.0590
     77 H31        11.1115   17.0603   19.3777 H         1 6KQ         0.0913
     78 H32        12.1595   22.3389   14.8256 H         1 6KQ         0.0273
     79 H33        13.1076   21.1125   15.7333 H         1 6KQ         0.0273
     80 H34        11.8423   20.0331   13.8913 H         1 6KQ         0.0301
     81 H35        13.7520   18.9608   12.6917 H         1 6KQ         0.0271
     82 H36        14.0767   19.1038   14.4526 H         1 6KQ         0.0271
     83 H37        16.0764   19.7532   13.1371 H         1 6KQ         0.0301
     84 H38        14.8759   20.4916   11.0813 H         1 6KQ         0.0271
     85 H39        15.9528   21.7939   11.6905 H         1 6KQ         0.0271
     86 H40        13.7173   22.6777   11.0674 H         1 6KQ         0.0301
     87 H41        15.0156   23.7289   12.9196 H         1 6KQ         0.0273
     88 H42        13.2484   23.8440   13.2207 H         1 6KQ         0.0273
     89 H43        15.5929   20.9042   15.2989 H         1 6KQ         0.0273
     90 H44        16.3770   22.0277   14.1371 H         1 6KQ         0.0273
     91 H45        11.7204   22.0815   12.4322 H         1 6KQ         0.0271
     92 H46        12.3448   20.6616   11.5263 H         1 6KQ         0.0271
@<TRIPOS>BOND
     1    4    1 ar 
     2    1   16 1  
     3   18    1 ar 
     4    2   18 ar 
     5   19    2 ar 
     6    3    4 ar 
     7   19    3 ar 
     8   20    5 2  
     9    7    6 1  
    10    6   20 am 
    11    6   22 1  
    12    8    7 1  
    13    8    9 1  
    14   29    8 1  
    15   10   30 am 
    16   10   31 2  
    17   32   10 1  
    18   11   12 1  
    19   36   11 1  
    20   13   12 1  
    21   14   13 1  
    22   33   14 1  
    23   14   36 1  
    24   29   15 1  
    25   15   37 1  
    26   16   17 1  
    27   20   19 1  
    28   20   21 2  
    29   22   28 1  
    30   23   24 ar 
    31   28   23 ar 
    32   24   25 ar 
    33   26   25 ar 
    34   27   26 ar 
    35   28   27 ar 
    36   30   29 1  
    37   32   33 1  
    38   33   34 1  
    39   34   35 1  
    40   35   36 1  
    41   37   38 1  
    42   37   44 1  
    43   37   45 1  
    44   38   39 1  
    45   39   40 1  
    46   39   46 1  
    47   40   41 1  
    48   41   42 1  
    49   41   45 1  
    50   42   43 1  
    51   43   44 1  
    52   43   46 1  
    53    2   47 1  
    54    3   48 1  
    55    4   49 1  
    56    7   50 1  
    57    7   51 1  
    58    8   52 1  
    59    9   53 1  
    60   12   54 1  
    61   12   55 1  
    62   13   56 1  
    63   13   57 1  
    64   14   58 1  
    65   15   59 1  
    66   15   60 1  
    67   17   61 1  
    68   17   62 1  
    69   17   63 1  
    70   18   64 1  
    71   22   65 1  
    72   22   66 1  
    73   23   67 1  
    74   24   68 1  
    75   25   69 1  
    76   26   70 1  
    77   27   71 1  
    78   29   72 1  
    79   30   73 1  
    80   33   74 1  
    81   34   75 1  
    82   34   76 1  
    83   36   77 1  
    84   38   78 1  
    85   38   79 1  
    86   39   80 1  
    87   40   81 1  
    88   40   82 1  
    89   41   83 1  
    90   42   84 1  
    91   42   85 1  
    92   43   86 1  
    93   44   87 1  
    94   44   88 1  
    95   45   89 1  
    96   45   90 1  
    97   46   91 1  
    98   46   92 1  
@<TRIPOS>SUBSTRUCTURE
     1 6KQ         1

