### 
### Created by X-TOOL on Mon Sep 10 21:13:26 2018
### 

@<TRIPOS>MOLECULE
5jg1_ligand
   94    99     1     0     0
SMALL
GAST_HUCK


@<TRIPOS>ATOM
      1 O10        19.0540   22.8960   15.9010 O.2       1 6KR        -0.1515
      2 C12        18.5000   24.6020   18.3620 C.3       1 6KR         0.0319
      3 C13        18.1710   23.9750   19.7340 C.3       1 6KR        -0.0296
      4 C14        18.2160   22.4470   19.6470 C.3       1 6KR        -0.0612
      5 C15        19.1660   24.4170   20.7990 C.3       1 6KR        -0.0612
      6 C16        16.2560   24.8370   17.4660 C.3       1 6KR         0.0576
      7 C17        15.1360   23.8870   17.9580 C.3       1 6KR         0.0949
      8 C19        14.7430   22.7970   16.9640 C.3       1 6KR         0.0718
      9 C21        14.2260   20.6450   18.1180 C.2       1 6KR         0.3201
     10 C24        13.4780   18.7430   19.4000 C.3       1 6KR         0.1188
     11 C25        12.8780   18.7650   20.8040 C.3       1 6KR         0.0815
     12 O28        10.4640   18.7230   18.7100 O.3       1 6KR        -0.3509
     13 C2         20.6900   27.6880   14.8260 C.ar      1 6KR         0.0908
     14 C3         19.3680   27.6460   14.4240 C.ar      1 6KR        -0.0313
     15 C4         18.5850   26.5130   14.6490 C.ar      1 6KR        -0.0440
     16 C5         19.1380   25.4020   15.2770 C.ar      1 6KR         0.0971
     17 C6         20.4570   25.4400   15.6310 C.ar      1 6KR        -0.0440
     18 C7         21.2900   26.5450   15.3470 C.ar      1 6KR        -0.0313
     19 S8         18.1650   24.0130   15.7790 S.o2      1 6KR         0.0657
     20 O9         17.1050   23.9650   14.7720 O.2       1 6KR        -0.1515
     21 N11        17.5160   24.1550   17.3220 N.am      1 6KR        -0.2325
     22 O18        14.0090   24.7390   18.2360 O.3       1 6KR        -0.3879
     23 N20        13.8300   21.8180   17.6230 N.am      1 6KR        -0.2569
     24 O22        15.3650   20.1930   18.0280 O.2       1 6KR        -0.3775
     25 O23        13.1980   19.9970   18.7780 O.3       1 6KR        -0.2578
     26 O26        11.5080   18.4000   20.6830 O.3       1 6KR        -0.3480
     27 C27        11.2670   17.7790   19.4410 C.3       1 6KR         0.1648
     28 C29        10.2080   18.2120   17.3650 C.3       1 6KR         0.0507
     29 C30        11.5430   18.3120   16.6730 C.3       1 6KR        -0.0289
     30 C41        12.6340   17.5510   17.3410 C.3       1 6KR        -0.0407
     31 C31        12.6450   17.6410   18.8100 C.3       1 6KR         0.0429
     32 C32        14.0190   23.2760   15.7180 C.3       1 6KR        -0.0218
     33 C51        13.7360   22.2860   14.5840 C.3       1 6KR        -0.0263
     34 C52        12.4310   21.5260   14.7900 C.3       1 6KR        -0.0444
     35 C53        12.1730   20.6380   13.5740 C.3       1 6KR        -0.0400
     36 C54        13.2640   19.5860   13.4280 C.3       1 6KR        -0.0473
     37 C55        14.5730   20.3360   13.1970 C.3       1 6KR        -0.0400
     38 C56        14.4560   21.1850   11.9280 C.3       1 6KR        -0.0473
     39 C57        13.3280   22.2290   12.0750 C.3       1 6KR        -0.0400
     40 C58        13.6240   23.1190   13.3120 C.3       1 6KR        -0.0444
     41 C59        14.8570   21.2900   14.3510 C.3       1 6KR        -0.0444
     42 C60        12.0140   21.4950   12.3250 C.3       1 6KR        -0.0473
     43 O39        21.3170   28.8870   14.6580 O.3       1 6KR        -0.3212
     44 C40        22.7210   28.8880   15.0220 C.3       1 6KR         0.0594
     45 H1         19.5111   24.2937   18.0578 H         1 6KR         0.0480
     46 H2         18.4611   25.6980   18.4477 H         1 6KR         0.0480
     47 H3         17.1608   24.2922   20.0320 H         1 6KR         0.0311
     48 H4         17.9797   22.0166   20.6313 H         1 6KR         0.0233
     49 H5         19.2222   22.1267   19.3388 H         1 6KR         0.0233
     50 H6         17.4784   22.0999   18.9084 H         1 6KR         0.0233
     51 H7         19.1524   25.5139   20.8808 H         1 6KR         0.0233
     52 H8         20.1758   24.0827   20.5187 H         1 6KR         0.0233
     53 H9         18.8884   23.9738   21.7667 H         1 6KR         0.0233
     54 H10        16.3749   25.6531   18.1939 H         1 6KR         0.0504
     55 H11        15.9647   25.2548   16.4910 H         1 6KR         0.0504
     56 H12        15.4681   23.3958   18.8845 H         1 6KR         0.0632
     57 H13        15.6649   22.2849   16.6514 H         1 6KR         0.0581
     58 H14        14.5556   18.5230   19.3831 H         1 6KR         0.0675
     59 H15        12.9624   19.7740   21.2340 H         1 6KR         0.0590
     60 H16        13.4037   18.0461   21.4496 H         1 6KR         0.0590
     61 H17        18.9333   28.5056   13.9268 H         1 6KR         0.0542
     62 H18        17.5476   26.4988   14.3349 H         1 6KR         0.0608
     63 H19        20.8812   24.5884   16.1505 H         1 6KR         0.0608
     64 H20        22.3580   26.5043   15.5282 H         1 6KR         0.0542
     65 H21        13.7141   25.1454   17.4295 H         1 6KR         0.2099
     66 H22        12.8617   22.0562   17.6980 H         1 6KR         0.1871
     67 H23        10.7638   16.8057   19.5376 H         1 6KR         0.0913
     68 H24         9.4547   18.8267   16.8506 H         1 6KR         0.0561
     69 H25         9.8652   17.1675   17.4029 H         1 6KR         0.0561
     70 H26        11.8342   19.3721   16.6362 H         1 6KR         0.0287
     71 H27        11.4306   17.9268   15.6488 H         1 6KR         0.0287
     72 H28        13.5953   17.9343   16.9683 H         1 6KR         0.0271
     73 H29        12.5298   16.4914   17.0647 H         1 6KR         0.0271
     74 H30        13.0737   16.6899   19.1586 H         1 6KR         0.0379
     75 H31        14.6229   24.0894   15.2895 H         1 6KR         0.0293
     76 H32        13.0472   23.6740   16.0454 H         1 6KR         0.0293
     77 H33        11.6029   22.2406   14.9067 H         1 6KR         0.0273
     78 H34        12.5066   20.9018   15.6926 H         1 6KR         0.0273
     79 H35        11.2231   20.1077   13.7368 H         1 6KR         0.0301
     80 H36        13.0465   18.9315   12.5711 H         1 6KR         0.0271
     81 H37        13.3312   18.9807   14.3440 H         1 6KR         0.0271
     82 H38        15.3967   19.6139   13.0960 H         1 6KR         0.0301
     83 H39        14.2326   20.5292   11.0736 H         1 6KR         0.0271
     84 H40        15.4091   21.7050   11.7517 H         1 6KR         0.0271
     85 H41        13.2577   22.8454   11.1666 H         1 6KR         0.0301
     86 H42        14.5717   23.6532   13.1497 H         1 6KR         0.0273
     87 H43        12.8084   23.8473   13.4320 H         1 6KR         0.0273
     88 H44        14.9977   20.6992   15.2681 H         1 6KR         0.0273
     89 H45        15.7796   21.8459   14.1277 H         1 6KR         0.0273
     90 H46        11.2039   22.2239   12.4750 H         1 6KR         0.0271
     91 H47        11.7761   20.8547   11.4628 H         1 6KR         0.0271
     92 H48        23.1424   29.8903   14.8549 H         1 6KR         0.0577
     93 H49        23.2607   28.1556   14.4036 H         1 6KR         0.0577
     94 H50        22.8248   28.6190   16.0835 H         1 6KR         0.0577
@<TRIPOS>BOND
     1   19    1 2  
     2    2    3 1  
     3   21    2 1  
     4    3    4 1  
     5    3    5 1  
     6    7    6 1  
     7    6   21 1  
     8    8    7 1  
     9    7   22 1  
    10   23    8 1  
    11    8   32 1  
    12    9   23 am 
    13    9   24 2  
    14   25    9 1  
    15   11   10 1  
    16   10   25 1  
    17   10   31 1  
    18   26   11 1  
    19   27   12 1  
    20   12   28 1  
    21   14   13 ar 
    22   18   13 ar 
    23   13   43 1  
    24   15   14 ar 
    25   16   15 ar 
    26   16   17 ar 
    27   19   16 1  
    28   17   18 ar 
    29   19   20 2  
    30   21   19 am 
    31   26   27 1  
    32   27   31 1  
    33   28   29 1  
    34   29   30 1  
    35   30   31 1  
    36   32   33 1  
    37   33   34 1  
    38   33   40 1  
    39   33   41 1  
    40   34   35 1  
    41   35   36 1  
    42   35   42 1  
    43   36   37 1  
    44   37   38 1  
    45   37   41 1  
    46   38   39 1  
    47   39   40 1  
    48   39   42 1  
    49   43   44 1  
    50    2   45 1  
    51    2   46 1  
    52    3   47 1  
    53    4   48 1  
    54    4   49 1  
    55    4   50 1  
    56    5   51 1  
    57    5   52 1  
    58    5   53 1  
    59    6   54 1  
    60    6   55 1  
    61    7   56 1  
    62    8   57 1  
    63   10   58 1  
    64   11   59 1  
    65   11   60 1  
    66   14   61 1  
    67   15   62 1  
    68   17   63 1  
    69   18   64 1  
    70   22   65 1  
    71   23   66 1  
    72   27   67 1  
    73   28   68 1  
    74   28   69 1  
    75   29   70 1  
    76   29   71 1  
    77   30   72 1  
    78   30   73 1  
    79   31   74 1  
    80   32   75 1  
    81   32   76 1  
    82   34   77 1  
    83   34   78 1  
    84   35   79 1  
    85   36   80 1  
    86   36   81 1  
    87   37   82 1  
    88   38   83 1  
    89   38   84 1  
    90   39   85 1  
    91   40   86 1  
    92   40   87 1  
    93   41   88 1  
    94   41   89 1  
    95   42   90 1  
    96   42   91 1  
    97   44   92 1  
    98   44   93 1  
    99   44   94 1  
@<TRIPOS>SUBSTRUCTURE
     1 6KR         1

