### 
### Created by X-TOOL on Mon Sep 10 21:13:28 2018
### 

@<TRIPOS>MOLECULE
5jga_ligand
   58    62     1     0     0
SMALL
GAST_HUCK


@<TRIPOS>ATOM
      1 C2        -11.9620  -48.5810  -15.0970 C.2       1 6KC         0.0329
      2 C3        -10.7030  -48.5460  -14.5680 C.2       1 6KC         0.1141
      3 C4         -9.7100  -49.5010  -14.9500 C.2       1 6KC         0.2314
      4 C6        -11.4540  -50.4170  -16.3640 C.2       1 6KC         0.1233
      5 N1        -12.3820  -49.5480  -16.0420 N.2       1 6KC        -0.3039
      6 C8        -11.9780  -46.7250  -13.6260 C.2       1 6KC         0.0264
      7 C9        -12.7190  -47.4880  -14.5180 C.2       1 6KC         0.0672
      8 C10       -17.0080  -47.0370  -15.8050 C.ar      1 6KC        -0.0329
      9 C11       -18.2770  -46.9880  -16.3650 C.ar      1 6KC        -0.0547
     10 C12       -18.6700  -47.9190  -17.3300 C.ar      1 6KC         0.0354
     11 C13       -17.7620  -48.9050  -17.7360 C.ar      1 6KC        -0.0461
     12 C14       -16.4670  -48.9670  -17.1880 C.ar      1 6KC         0.0110
     13 C15       -15.5580  -50.0340  -17.6620 C.ar      1 6KC        -0.0236
     14 O79        -8.5570  -49.5410  -14.5320 O.2       1 6KC        -0.4040
     15 N5        -10.1810  -50.4160  -15.8790 N.am      1 6KC        -0.2033
     16 S7        -10.3770  -47.2970  -13.4470 S.3       1 6KC        -0.0230
     17 C18       -14.1400  -47.1790  -14.8330 C.2       1 6KC         0.2220
     18 O19       -14.6630  -46.1650  -14.3730 O.2       1 6KC        -0.3816
     19 N20       -14.7740  -48.0750  -15.6430 N.am      1 6KC        -0.2302
     20 C21       -16.0840  -48.0170  -16.2070 C.ar      1 6KC         0.0823
     21 C64       -14.9420  -49.9470  -18.9130 C.ar      1 6KC        -0.0580
     22 C63       -14.0890  -50.9590  -19.3590 C.ar      1 6KC        -0.0639
     23 C62       -13.8470  -52.0680  -18.5660 C.ar      1 6KC        -0.0641
     24 C61       -14.4520  -52.1740  -17.3280 C.ar      1 6KC        -0.0639
     25 C60       -15.3020  -51.1640  -16.8740 C.ar      1 6KC        -0.0580
     26 C17       -20.0480  -47.8580  -17.9470 C.2       1 6KC         0.1967
     27 O16       -20.2320  -48.3880  -19.0350 O.2       1 6KC        -0.3915
     28 N22       -21.0380  -47.1980  -17.2870 N.am      1 6KC        -0.2644
     29 C53       -21.7020  -47.8240  -16.1090 C.3       1 6KC         0.0732
     30 C52       -23.2090  -48.0940  -16.3110 C.3       1 6KC        -0.0113
     31 N51       -23.8850  -46.8860  -16.7780 N.4       1 6KC         0.2359
     32 C71       -25.3350  -47.0810  -16.8330 C.3       1 6KC        -0.0430
     33 C50       -23.3480  -46.5060  -18.0900 C.3       1 6KC        -0.0113
     34 C49       -21.8340  -46.1490  -17.9820 C.3       1 6KC         0.0732
     35 H1        -11.7215  -51.1990  -17.0731 H         1 6KC         0.1484
     36 H2        -12.3729  -45.8579  -13.0986 H         1 6KC         0.0934
     37 H3        -16.7266  -46.3120  -15.0498 H         1 6KC         0.0519
     38 H4        -18.9718  -46.2180  -16.0498 H         1 6KC         0.0633
     39 H5        -18.0610  -49.6311  -18.4833 H         1 6KC         0.0637
     40 H6         -9.5495  -51.1160  -16.2125 H         1 6KC         0.2555
     41 H7        -14.2442  -48.8907  -15.8753 H         1 6KC         0.2294
     42 H8        -15.1280  -49.0853  -19.5438 H         1 6KC         0.0600
     43 H9        -13.6144  -50.8759  -20.3300 H         1 6KC         0.0611
     44 H10       -13.1844  -52.8514  -18.9155 H         1 6KC         0.0597
     45 H11       -14.2661  -53.0435  -16.7080 H         1 6KC         0.0611
     46 H12       -15.7696  -51.2550  -15.9003 H         1 6KC         0.0600
     47 H13       -21.5831  -47.1517  -15.2465 H         1 6KC         0.0574
     48 H14       -21.2036  -48.7818  -15.8988 H         1 6KC         0.0574
     49 H15       -23.6518  -48.4105  -15.3551 H         1 6KC         0.0834
     50 H16       -23.3374  -48.8923  -17.0567 H         1 6KC         0.0834
     51 H17       -23.6938  -46.1406  -16.1270 H         1 6KC         0.2032
     52 H18       -25.8160  -46.1573  -17.1871 H         1 6KC         0.0778
     53 H19       -25.7101  -47.3280  -15.8289 H         1 6KC         0.0778
     54 H20       -25.5683  -47.9041  -17.5244 H         1 6KC         0.0778
     55 H21       -23.8993  -45.6319  -18.4667 H         1 6KC         0.0834
     56 H22       -23.4720  -47.3467  -18.7885 H         1 6KC         0.0834
     57 H23       -21.4313  -46.0182  -18.9972 H         1 6KC         0.0574
     58 H24       -21.7350  -45.2063  -17.4239 H         1 6KC         0.0574
@<TRIPOS>BOND
     1    1    2 2  
     2    1    5 1  
     3    7    1 1  
     4    2    3 1  
     5   16    2 1  
     6    3   14 2  
     7    3   15 am 
     8    5    4 2  
     9    4   15 1  
    10    7    6 2  
    11    6   16 1  
    12   17    7 1  
    13    8    9 ar 
    14   20    8 ar 
    15    9   10 ar 
    16   11   10 ar 
    17   10   26 1  
    18   12   11 ar 
    19   12   13 1  
    20   20   12 ar 
    21   13   21 ar 
    22   13   25 ar 
    23   17   18 2  
    24   19   17 am 
    25   19   20 1  
    26   21   22 ar 
    27   22   23 ar 
    28   23   24 ar 
    29   24   25 ar 
    30   26   27 2  
    31   26   28 am 
    32   28   29 1  
    33   28   34 1  
    34   29   30 1  
    35   30   31 1  
    36   31   32 1  
    37   31   33 1  
    38   33   34 1  
    39    4   35 1  
    40    6   36 1  
    41    8   37 1  
    42    9   38 1  
    43   11   39 1  
    44   15   40 1  
    45   19   41 1  
    46   21   42 1  
    47   22   43 1  
    48   23   44 1  
    49   24   45 1  
    50   25   46 1  
    51   29   47 1  
    52   29   48 1  
    53   30   49 1  
    54   30   50 1  
    55   31   51 1  
    56   32   52 1  
    57   32   53 1  
    58   32   54 1  
    59   33   55 1  
    60   33   56 1  
    61   34   57 1  
    62   34   58 1  
@<TRIPOS>SUBSTRUCTURE
     1 6KC         1

