### 
### Created by X-TOOL on Mon Sep 10 21:13:29 2018
### 

@<TRIPOS>MOLECULE
5jgb_ligand
   64    67     1     0     0
SMALL
GAST_HUCK


@<TRIPOS>ATOM
      1 C2        -11.9030  -48.7930  -15.3580 C.2       1 6JV         0.0328
      2 C3        -10.6050  -48.7670  -14.8680 C.2       1 6JV         0.1141
      3 C4         -9.6490  -49.7550  -15.2340 C.2       1 6JV         0.2314
      4 C6        -11.4210  -50.7380  -16.5870 C.2       1 6JV         0.1233
      5 N1        -12.3500  -49.8620  -16.2920 N.2       1 6JV        -0.3039
      6 C8        -11.9800  -46.8930  -14.0180 C.2       1 6JV         0.0263
      7 C9        -12.6930  -47.7010  -14.8550 C.2       1 6JV         0.0662
      8 C10       -17.0030  -47.3870  -16.4070 C.ar      1 6JV        -0.0425
      9 C11       -18.2540  -47.4970  -17.0040 C.ar      1 6JV        -0.0664
     10 C12       -18.5550  -48.5710  -17.8490 C.ar      1 6JV         0.0248
     11 C13       -17.5780  -49.5430  -18.0980 C.ar      1 6JV        -0.0265
     12 C14       -16.3140  -49.4380  -17.5070 C.ar      1 6JV         0.1180
     13 O74        -8.4860  -49.7780  -14.8270 O.2       1 6JV        -0.4040
     14 N5        -10.1460  -50.7200  -16.1070 N.am      1 6JV        -0.2033
     15 S7        -10.3730  -47.4160  -13.8150 S.3       1 6JV        -0.0230
     16 C18       -14.1360  -47.4310  -15.1860 C.2       1 6JV         0.2176
     17 O19       -14.7230  -46.4750  -14.6700 O.2       1 6JV        -0.3839
     18 N20       -14.7120  -48.3040  -16.0690 N.am      1 6JV        -0.2356
     19 C21       -16.0150  -48.3490  -16.6460 C.ar      1 6JV         0.1017
     20 O15       -15.2950  -50.3440  -17.6750 O.3       1 6JV        -0.3263
     21 C22       -14.7550  -50.5260  -18.9920 C.3       1 6JV         0.0563
     22 C17       -19.9090  -48.6810  -18.5050 C.2       1 6JV         0.1908
     23 O16       -19.9960  -48.9800  -19.6950 O.2       1 6JV        -0.3921
     24 N23       -20.9950  -48.4230  -17.7560 N.am      1 6JV        -0.2884
     25 C24       -22.0520  -49.4090  -17.4980 C.3       1 6JV         0.0349
     26 C25       -23.1450  -49.4500  -18.5890 C.3       1 6JV         0.0076
     27 C26       -24.6140  -49.3750  -18.0950 C.3       1 6JV        -0.0296
     28 N27       -25.6260  -49.7350  -19.1140 N.4       1 6JV         0.2427
     29 C32       -26.7000  -50.5900  -18.5430 C.3       1 6JV         0.0094
     30 C31       -27.7310  -50.9860  -19.6420 C.3       1 6JV         0.0092
     31 N30       -28.3140  -49.7880  -20.2750 N.4       1 6JV         0.2405
     32 C33       -29.2930  -50.1660  -21.2930 C.3       1 6JV        -0.0427
     33 C29       -27.2490  -48.9530  -20.8590 C.3       1 6JV         0.0092
     34 C28       -26.2190  -48.5340  -19.7740 C.3       1 6JV         0.0094
     35 H1        -11.6891  -51.5434  -17.2692 H         1 6JV         0.1484
     36 H2        -12.3938  -46.0101  -13.5330 H         1 6JV         0.0933
     37 H3        -16.7914  -46.5499  -15.7516 H         1 6JV         0.0483
     38 H4        -19.0063  -46.7405  -16.8122 H         1 6JV         0.0540
     39 H5        -17.8016  -50.3792  -18.7505 H         1 6JV         0.0541
     40 H6         -9.5261  -51.4476  -16.4008 H         1 6JV         0.2555
     41 H7        -14.1089  -49.0455  -16.3630 H         1 6JV         0.2238
     42 H8        -13.9535  -51.2787  -18.9588 H         1 6JV         0.0572
     43 H9        -14.3468  -49.5716  -19.3561 H         1 6JV         0.0572
     44 H10       -15.5506  -50.8673  -19.6706 H         1 6JV         0.0572
     45 H11       -21.0879  -47.5122  -17.3536 H         1 6JV         0.1840
     46 H12       -22.5292  -49.1630  -16.5379 H         1 6JV         0.0521
     47 H13       -21.5892  -50.4048  -17.4329 H         1 6JV         0.0521
     48 H14       -23.0268  -50.3909  -19.1464 H         1 6JV         0.0336
     49 H15       -22.9753  -48.5993  -19.2653 H         1 6JV         0.0336
     50 H16       -24.8124  -48.3451  -17.7634 H         1 6JV         0.0815
     51 H17       -24.7251  -50.0623  -17.2434 H         1 6JV         0.0815
     52 H18       -25.1551  -50.2708  -19.8261 H         1 6JV         0.2038
     53 H19       -27.2170  -50.0361  -17.7456 H         1 6JV         0.0868
     54 H20       -26.2508  -51.5024  -18.1238 H         1 6JV         0.0868
     55 H21       -28.5363  -51.5785  -19.1833 H         1 6JV         0.0868
     56 H22       -27.2244  -51.5885  -20.4104 H         1 6JV         0.0868
     57 H23       -28.7867  -49.2506  -19.5652 H         1 6JV         0.2035
     58 H24       -29.7143  -49.2590  -21.7512 H         1 6JV         0.0778
     59 H25       -30.1001  -50.7500  -20.8266 H         1 6JV         0.0778
     60 H26       -28.8012  -50.7733  -22.0671 H         1 6JV         0.0778
     61 H27       -27.6984  -48.0498  -21.2975 H         1 6JV         0.0868
     62 H28       -26.7329  -49.5242  -21.6447 H         1 6JV         0.0868
     63 H29       -25.4162  -47.9485  -20.2459 H         1 6JV         0.0868
     64 H30       -26.7246  -47.9184  -19.0155 H         1 6JV         0.0868
@<TRIPOS>BOND
     1    1    2 2  
     2    1    5 1  
     3    7    1 1  
     4    2    3 1  
     5   15    2 1  
     6    3   13 2  
     7    3   14 am 
     8    5    4 2  
     9    4   14 1  
    10    7    6 2  
    11    6   15 1  
    12   16    7 1  
    13    8    9 ar 
    14   19    8 ar 
    15    9   10 ar 
    16   11   10 ar 
    17   10   22 1  
    18   12   11 ar 
    19   19   12 ar 
    20   12   20 1  
    21   16   17 2  
    22   18   16 am 
    23   18   19 1  
    24   20   21 1  
    25   22   23 2  
    26   22   24 am 
    27   24   25 1  
    28   25   26 1  
    29   26   27 1  
    30   27   28 1  
    31   28   29 1  
    32   28   34 1  
    33   29   30 1  
    34   30   31 1  
    35   31   32 1  
    36   31   33 1  
    37   33   34 1  
    38    4   35 1  
    39    6   36 1  
    40    8   37 1  
    41    9   38 1  
    42   11   39 1  
    43   14   40 1  
    44   18   41 1  
    45   21   42 1  
    46   21   43 1  
    47   21   44 1  
    48   24   45 1  
    49   25   46 1  
    50   25   47 1  
    51   26   48 1  
    52   26   49 1  
    53   27   50 1  
    54   27   51 1  
    55   28   52 1  
    56   29   53 1  
    57   29   54 1  
    58   30   55 1  
    59   30   56 1  
    60   31   57 1  
    61   32   58 1  
    62   32   59 1  
    63   32   60 1  
    64   33   61 1  
    65   33   62 1  
    66   34   63 1  
    67   34   64 1  
@<TRIPOS>SUBSTRUCTURE
     1 6JV         1

