### 
### Created by X-TOOL on Mon Sep 10 21:13:27 2018
### 

@<TRIPOS>MOLECULE
5jgd_ligand
   58    61     1     0     0
SMALL
GAST_HUCK


@<TRIPOS>ATOM
      1 C1        -20.0260   51.4190   20.2110 C.3       1 6KD         0.0732
      2 C2        -20.6890   52.7430   19.6600 C.3       1 6KD        -0.0113
      3 C4        -20.5540   55.1860   19.6000 C.3       1 6KD        -0.0430
      4 C5        -18.5370   53.8490   19.6950 C.3       1 6KD        -0.0113
      5 C6        -17.8720   52.5910   20.2970 C.3       1 6KD         0.0732
      6 N3        -19.9440   53.9450   20.1130 N.4       1 6KD         0.2359
      7 C8        -17.9220   50.1520   19.9910 C.2       1 6KD         0.1981
      8 C10       -17.7120   49.3460   18.7340 C.ar      1 6KD         0.0660
      9 C11       -16.4570   49.1790   18.0820 C.ar      1 6KD         0.1350
     10 C13       -15.0810   51.2080   18.5520 C.3       1 6KD         0.0744
     11 C14       -15.0980   51.7610   17.1420 C.3       1 6KD        -0.0347
     12 C15       -13.7840   51.4190   19.2840 C.3       1 6KD        -0.0347
     13 O34        -8.8340   49.4920   14.4830 O.2       1 6KD        -0.4040
     14 C33        -9.9490   49.5010   15.0100 C.2       1 6KD         0.2314
     15 C27       -11.0070   48.5840   14.7040 C.2       1 6KD         0.1141
     16 S26       -10.9790   47.2920   13.5570 S.3       1 6KD        -0.0231
     17 C25       -12.5880   46.8440   13.9190 C.2       1 6KD         0.0262
     18 N31       -10.2950   50.4290   15.9830 N.am      1 6KD        -0.2033
     19 C30       -11.5100   50.4740   16.5930 C.2       1 6KD         0.1233
     20 N29       -12.5120   49.6600   16.3510 N.2       1 6KD        -0.3039
     21 C28       -12.2410   48.6520   15.3440 C.2       1 6KD         0.0328
     22 C24       -13.1530   47.6360   14.8800 C.2       1 6KD         0.0658
     23 C22       -14.5870   47.4090   15.3450 C.2       1 6KD         0.2158
     24 O23       -15.2640   46.5030   14.8470 O.2       1 6KD        -0.3849
     25 N20       -15.0510   48.2640   16.3210 N.am      1 6KD        -0.2381
     26 C19       -16.3430   48.3790   16.9270 C.ar      1 6KD         0.1024
     27 O12       -15.2960   49.7680   18.5690 O.3       1 6KD        -0.3156
     28 C18       -17.4840   47.7480   16.4130 C.ar      1 6KD        -0.0448
     29 C17       -18.7110   47.9060   17.0510 C.ar      1 6KD        -0.0813
     30 C16       -18.8230   48.6890   18.1970 C.ar      1 6KD        -0.0661
     31 O9        -17.4800   49.7150   21.0380 O.2       1 6KD        -0.3912
     32 N7        -18.5780   51.3500   19.9140 N.am      1 6KD        -0.2644
     33 H1        -20.5237   50.5547   19.7471 H         1 6KD         0.0574
     34 H2        -20.1655   51.3808   21.3014 H         1 6KD         0.0574
     35 H3        -21.7249   52.8043   20.0248 H         1 6KD         0.0834
     36 H4        -20.6886   52.7139   18.5604 H         1 6KD         0.0834
     37 H5        -19.9767   56.0523   19.9552 H         1 6KD         0.0778
     38 H6        -21.5899   55.2623   19.9621 H         1 6KD         0.0778
     39 H7        -20.5503   55.1690   18.5001 H         1 6KD         0.0778
     40 H8        -18.4897   53.7921   18.5975 H         1 6KD         0.0834
     41 H9        -17.9964   54.7429   20.0395 H         1 6KD         0.0834
     42 H10       -17.8772   52.6777   21.3936 H         1 6KD         0.0574
     43 H11       -16.8336   52.5330   19.9386 H         1 6KD         0.0574
     44 H12       -19.9755   53.9741   21.1201 H         1 6KD         0.2032
     45 H13       -15.8883   51.7031   19.1115 H         1 6KD         0.0643
     46 H14       -14.9326   52.8481   17.1725 H         1 6KD         0.0258
     47 H15       -16.0729   51.5514   16.6776 H         1 6KD         0.0258
     48 H16       -14.3008   51.2853   16.5519 H         1 6KD         0.0258
     49 H17       -13.8588   50.9893   20.2938 H         1 6KD         0.0258
     50 H18       -13.5761   52.4966   19.3586 H         1 6KD         0.0258
     51 H19       -12.9686   50.9254   18.7350 H         1 6KD         0.0258
     52 H20       -13.1072   46.0172   13.4365 H         1 6KD         0.0933
     53 H21        -9.6093   51.1055   16.2517 H         1 6KD         0.2555
     54 H22       -11.6645   51.2481   17.3432 H         1 6KD         0.1484
     55 H23       -14.3714   48.9128   16.6633 H         1 6KD         0.2214
     56 H24       -17.4111   47.1379   15.5200 H         1 6KD         0.0499
     57 H25       -19.5899   47.4136   16.6509 H         1 6KD         0.0497
     58 H26       -19.7877   48.7908   18.6808 H         1 6KD         0.0508
@<TRIPOS>BOND
     1    1    2 1  
     2   32    1 1  
     3    2    6 1  
     4    6    3 1  
     5    5    4 1  
     6    4    6 1  
     7   32    5 1  
     8    8    7 1  
     9    7   31 2  
    10    7   32 am 
    11    9    8 ar 
    12    8   30 ar 
    13   26    9 ar 
    14    9   27 1  
    15   10   11 1  
    16   10   12 1  
    17   27   10 1  
    18   14   13 2  
    19   15   14 1  
    20   14   18 am 
    21   15   16 1  
    22   21   15 2  
    23   17   16 1  
    24   22   17 2  
    25   19   18 1  
    26   20   19 2  
    27   21   20 1  
    28   22   21 1  
    29   23   22 1  
    30   23   24 2  
    31   25   23 am 
    32   25   26 1  
    33   26   28 ar 
    34   28   29 ar 
    35   29   30 ar 
    36    1   33 1  
    37    1   34 1  
    38    2   35 1  
    39    2   36 1  
    40    3   37 1  
    41    3   38 1  
    42    3   39 1  
    43    4   40 1  
    44    4   41 1  
    45    5   42 1  
    46    5   43 1  
    47    6   44 1  
    48   10   45 1  
    49   11   46 1  
    50   11   47 1  
    51   11   48 1  
    52   12   49 1  
    53   12   50 1  
    54   12   51 1  
    55   17   52 1  
    56   18   53 1  
    57   19   54 1  
    58   25   55 1  
    59   28   56 1  
    60   29   57 1  
    61   30   58 1  
@<TRIPOS>SUBSTRUCTURE
     1 6KD         1

