### 
### Created by X-TOOL on Mon Sep 10 21:13:34 2018
### 

@<TRIPOS>MOLECULE
5jh6_ligand
   61    64     1     0     0
SMALL
GAST_HUCK


@<TRIPOS>ATOM
      1 C01       -21.9890  -52.4140  -21.5980 C.3       1 T92        -0.0430
      2 N02       -21.0930  -51.5000  -21.5750 N.4       1 T92         0.2358
      3 C03       -19.8940  -52.0380  -21.1820 C.3       1 T92        -0.0123
      4 C04       -18.8130  -50.9990  -20.8970 C.3       1 T92         0.0649
      5 C05       -21.5350  -50.5020  -20.7550 C.3       1 T92        -0.0123
      6 C06       -20.4750  -49.4370  -20.4810 C.3       1 T92         0.0649
      7 N07       -19.2750  -50.0170  -19.9330 N.pl3     1 T92        -0.3045
      8 C08       -18.3560  -49.2080  -19.0940 C.ar      1 T92         0.0297
      9 C09       -18.8820  -48.2060  -18.2850 C.ar      1 T92        -0.0528
     10 C10       -18.0310  -47.4340  -17.4820 C.ar      1 T92        -0.0489
     11 C11       -16.9870  -49.4440  -19.1100 C.ar      1 T92        -0.0528
     12 C12       -16.1390  -48.6670  -18.3100 C.ar      1 T92        -0.0489
     13 C13       -16.6650  -47.6660  -17.4940 C.ar      1 T92         0.0530
     14 N14       -15.8010  -46.8270  -16.6430 N.pl3     1 T92        -0.2515
     15 C15       -14.4750  -47.2430  -16.1790 C.ar      1 T92         0.1921
     16 N16       -13.7040  -46.3150  -15.6710 N.ar      1 T92        -0.2695
     17 C17       -12.4850  -46.5920  -15.2250 C.ar      1 T92         0.0145
     18 C18       -12.0390  -47.9120  -15.3080 C.ar      1 T92         0.0974
     19 CL19      -10.4120  -48.3090  -14.7180 Cl        1 T92        -0.0753
     20 C20       -12.8710  -48.8740  -15.8470 C.ar      1 T92         0.1457
     21 N21       -12.4450  -50.2750  -15.9470 N.pl3     1 T92        -0.2578
     22 C22       -12.6950  -51.1340  -17.1450 C.ar      1 T92         0.0997
     23 C23       -13.8370  -51.9470  -17.2350 C.ar      1 T92        -0.0449
     24 C24       -14.0240  -52.7430  -18.3800 C.ar      1 T92        -0.0816
     25 C25       -13.0910  -52.7420  -19.4310 C.ar      1 T92        -0.0810
     26 C26       -11.9470  -51.9290  -19.3390 C.ar      1 T92        -0.0370
     27 C27       -11.7620  -51.1440  -18.1990 C.ar      1 T92         0.1472
     28 O28       -10.6040  -50.3070  -18.0880 O.3       1 T92        -0.2180
     29 C29        -9.3500  -50.9540  -18.2100 C.2       1 T92         0.2541
     30 C30        -8.1370  -50.0210  -18.2310 C.3       1 T92         0.0497
     31 C31        -8.6280  -48.5910  -18.0110 C.3       1 T92        -0.0466
     32 O32        -9.2590  -52.1380  -18.2920 O.2       1 T92        -0.3644
     33 N33       -14.0860  -48.5060  -16.2690 N.ar      1 T92        -0.2355
     34 H1        -21.6595  -53.2340  -22.2529 H         1 T92         0.0778
     35 H2        -22.9309  -51.9946  -21.9813 H         1 T92         0.0778
     36 H3        -22.1465  -52.7988  -20.5796 H         1 T92         0.0778
     37 H4        -20.9785  -51.1237  -22.5031 H         1 T92         0.2032
     38 H5        -19.5337  -52.7020  -21.9816 H         1 T92         0.0834
     39 H6        -20.0610  -52.6240  -20.2662 H         1 T92         0.0834
     40 H7        -18.5507  -50.4867  -21.8344 H         1 T92         0.0562
     41 H8        -17.9236  -51.5064  -20.4951 H         1 T92         0.0562
     42 H9        -21.8405  -50.9463  -19.7963 H         1 T92         0.0834
     43 H10       -22.4025  -50.0187  -21.2282 H         1 T92         0.0834
     44 H11       -20.8787  -48.7065  -19.7645 H         1 T92         0.0562
     45 H12       -20.2276  -48.9275  -21.4240 H         1 T92         0.0562
     46 H13       -19.9503  -48.0221  -18.2756 H         1 T92         0.0490
     47 H14       -18.4421  -46.6545  -16.8508 H         1 T92         0.0507
     48 H15       -16.5767  -50.2259  -19.7387 H         1 T92         0.0490
     49 H16       -15.0698  -48.8447  -18.3254 H         1 T92         0.0507
     50 H17       -16.1481  -45.8995  -16.3598 H         1 T92         0.2145
     51 H18       -11.8539  -45.8154  -14.8083 H         1 T92         0.0852
     52 H19       -11.9459  -50.6896  -15.1471 H         1 T92         0.2139
     53 H20       -14.5652  -51.9609  -16.4322 H         1 T92         0.0506
     54 H21       -14.9055  -53.3697  -18.4530 H         1 T92         0.0501
     55 H22       -13.2517  -53.3626  -20.3052 H         1 T92         0.0495
     56 H23       -11.2190  -51.9120  -20.1419 H         1 T92         0.0519
     57 H24        -7.6283  -50.0941  -19.2035 H         1 T92         0.0518
     58 H25        -7.4379  -50.3017  -17.4295 H         1 T92         0.0518
     59 H26        -7.7699  -47.9029  -18.0226 H         1 T92         0.0255
     60 H27        -9.1386  -48.5241  -17.0390 H         1 T92         0.0255
     61 H28        -9.3289  -48.3165  -18.8131 H         1 T92         0.0255
@<TRIPOS>BOND
     1    1    2 1  
     2    2    3 1  
     3    2    5 1  
     4    3    4 1  
     5    4    7 1  
     6    5    6 1  
     7    6    7 1  
     8    7    8 1  
     9    8    9 ar 
    10    8   11 ar 
    11    9   10 ar 
    12   10   13 ar 
    13   11   12 ar 
    14   12   13 ar 
    15   13   14 1  
    16   14   15 1  
    17   15   16 ar 
    18   15   33 ar 
    19   16   17 ar 
    20   17   18 ar 
    21   18   19 1  
    22   18   20 ar 
    23   20   21 1  
    24   20   33 ar 
    25   21   22 1  
    26   22   23 ar 
    27   22   27 ar 
    28   23   24 ar 
    29   24   25 ar 
    30   25   26 ar 
    31   26   27 ar 
    32   27   28 1  
    33   28   29 1  
    34   29   30 1  
    35   29   32 2  
    36   30   31 1  
    37    1   34 1  
    38    1   35 1  
    39    1   36 1  
    40    2   37 1  
    41    3   38 1  
    42    3   39 1  
    43    4   40 1  
    44    4   41 1  
    45    5   42 1  
    46    5   43 1  
    47    6   44 1  
    48    6   45 1  
    49    9   46 1  
    50   10   47 1  
    51   11   48 1  
    52   12   49 1  
    53   14   50 1  
    54   17   51 1  
    55   21   52 1  
    56   23   53 1  
    57   24   54 1  
    58   25   55 1  
    59   26   56 1  
    60   30   57 1  
    61   30   58 1  
    62   31   59 1  
    63   31   60 1  
    64   31   61 1  
@<TRIPOS>SUBSTRUCTURE
     1 T92         1

