### 
### Created by X-TOOL on Mon Sep 10 21:13:33 2018
### 

@<TRIPOS>MOLECULE
5jha_ligand
   53    56     1     0     0
SMALL
GAST_HUCK


@<TRIPOS>ATOM
      1 C4         22.2780   -3.4690   22.1950 C.ar      1 6K7         0.1189
      2 C5         23.5460   -4.0070   21.8450 C.ar      1 6K7         0.0048
      3 C6         24.4290   -3.2020   21.0820 C.ar      1 6K7         0.0541
      4 N1         24.0240   -1.9610   20.7220 N.ar      1 6K7        -0.2657
      5 N3         21.9570   -2.2120   21.7850 N.ar      1 6K7        -0.2403
      6 FAB        24.2070   -3.4840   18.2700 F         1 6K7        -0.2162
      7 CAG        25.4980   -3.1380   18.1970 C.3       1 6K7         0.3831
      8 FAF        26.0070   -3.6160   17.0590 F         1 6K7        -0.2162
      9 FAK        25.6110   -1.8010   18.2000 F         1 6K7        -0.2162
     10 CAH        26.3020   -3.6980   19.3400 C.ar      1 6K7         0.0649
     11 CAC        27.6010   -4.2050   19.0850 C.ar      1 6K7         0.0151
     12 CAD        28.3480   -4.7170   20.1390 C.ar      1 6K7         0.1421
     13 NAA        29.6600   -5.2330   19.8880 N.pl3     1 6K7        -0.3152
     14 NAE        27.8670   -4.7330   21.3700 N.ar      1 6K7        -0.2485
     15 CAJ        26.6550   -4.2660   21.6580 C.ar      1 6K7         0.0381
     16 CAI        25.8270   -3.7300   20.6770 C.ar      1 6K7         0.0396
     17 C2         22.8190   -1.4990   21.0720 C.ar      1 6K7         0.1761
     18 NAU        22.4500   -0.1480   20.6410 N.pl3     1 6K7        -0.2771
     19 CAZ        23.0490    0.8630   19.7540 C.3       1 6K7         0.0442
     20 CAV        21.4050    0.8250   20.9860 C.3       1 6K7         0.0442
     21 CBA        21.8180    1.6520   19.8440 C.3       1 6K7         0.0483
     22 CBD        20.9400    1.4890   18.5950 C.3       1 6K7         0.0341
     23 CL         19.2420    1.7320   18.9240 Cl        1 6K7        -0.1246
     24 CBB        22.0980    3.0840   20.2080 C.3       1 6K7         0.0547
     25 OBC        20.8910    3.7130   20.5830 O.3       1 6K7        -0.3943
     26 NAR        21.3540   -4.2540   22.9710 N.pl3     1 6K7        -0.2852
     27 CAS        21.8110   -5.3550   23.7230 C.3       1 6K7         0.0554
     28 CAT        20.9250   -5.6900   24.9040 C.3       1 6K7         0.0682
     29 OAY        19.5460   -5.7280   24.5650 O.3       1 6K7        -0.3757
     30 CAX        19.1370   -4.5250   23.9250 C.3       1 6K7         0.0682
     31 CAW        19.9720   -4.2490   22.6930 C.3       1 6K7         0.0554
     32 H1         23.8305   -5.0065   22.1533 H         1 6K7         0.0603
     33 H2         28.0068   -4.1934   18.0799 H         1 6K7         0.0847
     34 H3         30.2205   -5.6144   20.6635 H         1 6K7         0.1783
     35 H4         30.0432   -5.2228   18.9320 H         1 6K7         0.1783
     36 H5         26.3038   -4.3041   22.6828 H         1 6K7         0.0898
     37 H6         23.2772    0.4970   18.7421 H         1 6K7         0.0533
     38 H7         23.9359    1.3615   20.1723 H         1 6K7         0.0533
     39 H8         21.5426    1.3069   21.9652 H         1 6K7         0.0533
     40 H9         20.3803    0.4322   20.9114 H         1 6K7         0.0533
     41 H10        21.0790    0.4726   18.1980 H         1 6K7         0.0437
     42 H11        21.2606    2.2238   17.8418 H         1 6K7         0.0437
     43 H12        22.5309    3.6058   19.3418 H         1 6K7         0.0564
     44 H13        22.8069    3.1180   21.0484 H         1 6K7         0.0564
     45 H14        21.0651    4.6180   20.8135 H         1 6K7         0.2094
     46 H15        22.8192   -5.1257   24.0983 H         1 6K7         0.0548
     47 H16        21.8566   -6.2331   23.0621 H         1 6K7         0.0548
     48 H17        21.0744   -4.9277   25.6828 H         1 6K7         0.0580
     49 H18        21.2180   -6.6756   25.2947 H         1 6K7         0.0580
     50 H19        19.2494   -3.6877   24.6295 H         1 6K7         0.0580
     51 H20        18.0814   -4.6167   23.6297 H         1 6K7         0.0580
     52 H21        19.7596   -5.0233   21.9411 H         1 6K7         0.0548
     53 H22        19.6954   -3.2628   22.2920 H         1 6K7         0.0548
@<TRIPOS>BOND
     1    2    1 ar 
     2    1    5 ar 
     3    1   26 1  
     4    3    2 ar 
     5    3    4 ar 
     6   16    3 1  
     7    4   17 ar 
     8   17    5 ar 
     9    7    6 1  
    10    7    8 1  
    11    7    9 1  
    12   10    7 1  
    13   10   11 ar 
    14   10   16 ar 
    15   11   12 ar 
    16   12   13 1  
    17   12   14 ar 
    18   14   15 ar 
    19   15   16 ar 
    20   17   18 1  
    21   18   19 1  
    22   18   20 1  
    23   19   21 1  
    24   20   21 1  
    25   21   22 1  
    26   21   24 1  
    27   22   23 1  
    28   24   25 1  
    29   26   27 1  
    30   26   31 1  
    31   27   28 1  
    32   28   29 1  
    33   29   30 1  
    34   30   31 1  
    35    2   32 1  
    36   11   33 1  
    37   13   34 1  
    38   13   35 1  
    39   15   36 1  
    40   19   37 1  
    41   19   38 1  
    42   20   39 1  
    43   20   40 1  
    44   22   41 1  
    45   22   42 1  
    46   24   43 1  
    47   24   44 1  
    48   25   45 1  
    49   27   46 1  
    50   27   47 1  
    51   28   48 1  
    52   28   49 1  
    53   30   50 1  
    54   30   51 1  
    55   31   52 1  
    56   31   53 1  
@<TRIPOS>SUBSTRUCTURE
     1 6K7         1

