### 
### Created by X-TOOL on Mon Sep 10 21:13:34 2018
### 

@<TRIPOS>MOLECULE
5jhb_ligand
   52    55     1     0     0
SMALL
GAST_HUCK


@<TRIPOS>ATOM
      1 FAB        24.8020   -5.0470   16.9330 F         1 6K5        -0.2142
      2 CAG        24.2860   -4.7070   18.1280 C.3       1 6K5         0.3855
      3 FAF        22.9900   -5.0400   18.0570 F         1 6K5        -0.2142
      4 FAK        24.2780   -3.3510   18.0830 F         1 6K5        -0.2142
      5 CAH        24.9880   -5.3200   19.3350 C.ar      1 6K5         0.0702
      6 CAC        26.3060   -5.7940   19.1050 C.ar      1 6K5         0.0180
      7 CAD        27.0390   -6.3750   20.1720 C.ar      1 6K5         0.1447
      8 NAA        28.3320   -6.8630   20.0220 N.pl3     1 6K5        -0.3139
      9 NAE        26.4160   -6.4460   21.4060 N.ar      1 6K5        -0.2461
     10 CAJ        25.1560   -5.9670   21.5440 C.ar      1 6K5         0.0420
     11 CAI        24.3150   -5.3630   20.5820 C.ar      1 6K5         0.0598
     12 CAM        22.8590   -4.8550   20.9180 C.ar      1 6K5         0.1220
     13 NAN        22.1060   -5.6400   21.7800 N.ar      1 6K5        -0.2361
     14 NAL        22.3800   -3.6740   20.3700 N.ar      1 6K5        -0.2361
     15 CAO        21.0710   -3.2730   20.7130 C.ar      1 6K5         0.1903
     16 NAU        20.4570   -2.0510   20.1970 N.pl3     1 6K5        -0.2710
     17 CAZ        19.7880   -0.8480   20.8410 C.3       1 6K5         0.0465
     18 CAV        19.9410   -1.6220   18.8610 C.3       1 6K5         0.0465
     19 CBA        19.2580   -0.3120   19.4510 C.3       1 6K5         0.0491
     20 CBD        17.7350   -0.2750   19.1960 C.3       1 6K5         0.0342
     21 CL         16.6480   -0.7140   20.6710 Cl        1 6K5        -0.1246
     22 CBB        19.9180    1.0020   18.9200 C.3       1 6K5         0.0548
     23 OBC        19.6380    2.0550   19.8060 O.3       1 6K5        -0.3943
     24 NAP        20.2940   -4.0340   21.5700 N.ar      1 6K5        -0.2162
     25 CAQ        20.8350   -5.2060   22.0840 C.ar      1 6K5         0.1904
     26 NAR        19.9090   -5.9320   23.0000 N.pl3     1 6K5        -0.2680
     27 CAS        20.1840   -7.3560   23.4000 C.3       1 6K5         0.0592
     28 CAT        19.2640   -7.8140   24.5730 C.3       1 6K5         0.0687
     29 OAY        17.9080   -7.5900   24.3270 O.3       1 6K5        -0.3756
     30 CAX        17.6130   -6.2590   24.0150 C.3       1 6K5         0.0687
     31 CAW        18.4290   -5.7710   22.7880 C.3       1 6K5         0.0592
     32 H1         26.7502   -5.7126   18.1195 H         1 6K5         0.0862
     33 H2         28.8232   -7.2762   20.8275 H         1 6K5         0.1791
     34 H3         28.7989   -6.8113   19.1053 H         1 6K5         0.1791
     35 H4         24.7312   -6.0607   22.5369 H         1 6K5         0.0917
     36 H5         20.4945   -0.1646   21.3348 H         1 6K5         0.0538
     37 H6         18.9850   -1.1157   21.5435 H         1 6K5         0.0538
     38 H7         19.2223   -2.3298   18.4223 H         1 6K5         0.0538
     39 H8         20.7374   -1.4094   18.1326 H         1 6K5         0.0538
     40 H9         17.5104   -0.9861   18.3874 H         1 6K5         0.0437
     41 H10        17.4711    0.7429   18.8730 H         1 6K5         0.0437
     42 H11        19.5121    1.2410   17.9259 H         1 6K5         0.0564
     43 H12        21.0067    0.8628   18.8478 H         1 6K5         0.0564
     44 H13        20.0389    2.8536   19.4837 H         1 6K5         0.2094
     45 H14        21.2340   -7.4409   23.7166 H         1 6K5         0.0554
     46 H15        20.0084   -8.0100   22.5331 H         1 6K5         0.0554
     47 H16        19.5511   -7.2607   25.4793 H         1 6K5         0.0581
     48 H17        19.4164   -8.8909   24.7371 H         1 6K5         0.0581
     49 H18        17.8560   -5.6260   24.8811 H         1 6K5         0.0581
     50 H19        16.5400   -6.1739   23.7881 H         1 6K5         0.0581
     51 H20        18.1301   -6.3567   21.9062 H         1 6K5         0.0554
     52 H21        18.2081   -4.7076   22.6140 H         1 6K5         0.0554
@<TRIPOS>BOND
     1    1    2 1  
     2    2    3 1  
     3    2    4 1  
     4    2    5 1  
     5    5    6 ar 
     6    5   11 ar 
     7    6    7 ar 
     8    7    8 1  
     9    7    9 ar 
    10    9   10 ar 
    11   10   11 ar 
    12   11   12 1  
    13   12   13 ar 
    14   12   14 ar 
    15   13   25 ar 
    16   14   15 ar 
    17   15   16 1  
    18   15   24 ar 
    19   16   17 1  
    20   16   18 1  
    21   17   19 1  
    22   18   19 1  
    23   19   20 1  
    24   19   22 1  
    25   20   21 1  
    26   22   23 1  
    27   24   25 ar 
    28   25   26 1  
    29   26   27 1  
    30   26   31 1  
    31   27   28 1  
    32   28   29 1  
    33   29   30 1  
    34   30   31 1  
    35    6   32 1  
    36    8   33 1  
    37    8   34 1  
    38   10   35 1  
    39   17   36 1  
    40   17   37 1  
    41   18   38 1  
    42   18   39 1  
    43   20   40 1  
    44   20   41 1  
    45   22   42 1  
    46   22   43 1  
    47   23   44 1  
    48   27   45 1  
    49   27   46 1  
    50   28   47 1  
    51   28   48 1  
    52   30   49 1  
    53   30   50 1  
    54   31   51 1  
    55   31   52 1  
@<TRIPOS>SUBSTRUCTURE
     1 6K5         1

