### 
### Created by X-TOOL on Mon Sep 10 21:13:28 2018
### 

@<TRIPOS>MOLECULE
5ji6_ligand
   30    32     1     0     0
SMALL
GAST_HUCK


@<TRIPOS>ATOM
      1 C5         13.9540   30.4890   18.6970 C.ar      1 6KN         0.0030
      2 C6         15.1840   30.3810   18.0720 C.ar      1 6KN        -0.0335
      3 C7         15.4530   31.1220   16.9050 C.ar      1 6KN         0.0052
      4 C8         16.8020   30.9840   16.2760 C.ar      1 6KN         0.0050
      5 C10        18.8250   32.0560   15.4610 C.ar      1 6KN         0.0364
      6 C17        17.3870   29.7240   15.9550 C.ar      1 6KN         0.0425
      7 C1         14.5560   32.8580   15.2110 C.3       1 6KN        -0.0238
      8 C2         14.4260   31.9850   16.4360 C.ar      1 6KN        -0.0102
      9 C3         13.2260   32.0320   17.1310 C.ar      1 6KN         0.0115
     10 N4         13.0260   31.3000   18.2150 N.ar      1 6KN        -0.3067
     11 C9         17.5580   32.1240   16.0290 C.ar      1 6KN        -0.0405
     12 C11        19.4040   30.8420   15.1300 C.ar      1 6KN         0.0008
     13 C12        18.6890   29.6680   15.3800 C.ar      1 6KN         0.1222
     14 N13        18.9720   28.3430   15.1820 N.pl3     1 6KN        -0.1949
     15 N15        17.8760   27.5990   15.6370 N.2       1 6KN        -0.1806
     16 C16        16.9440   28.3900   16.0780 C.2       1 6KN         0.0450
     17 C18        19.5440   33.3560   15.2320 C.3       1 6KN         0.3678
     18 F19        20.0180   33.7860   16.4620 F         1 6KN        -0.2274
     19 F20        20.6170   33.1920   14.3490 F         1 6KN        -0.2274
     20 F21        18.6530   34.3250   14.7690 F         1 6KN        -0.2274
     21 H1         13.7494   29.9054   19.5873 H         1 6KN         0.0761
     22 H2         15.9426   29.7241   18.4819 H         1 6KN         0.0692
     23 H3         13.6255   33.4263   15.0654 H         1 6KN         0.0412
     24 H4         14.7422   32.2272   14.3293 H         1 6KN         0.0412
     25 H5         15.3949   33.5565   15.3459 H         1 6KN         0.0412
     26 H6         12.4345   32.6831   16.7780 H         1 6KN         0.0757
     27 H7         17.1479   33.0938   16.2867 H         1 6KN         0.0703
     28 H8         20.3921   30.8036   14.6859 H         1 6KN         0.0876
     29 H9         19.8364   27.9616   14.7718 H         1 6KN         0.2527
     30 H10        15.9806   28.0754   16.4765 H         1 6KN         0.0777
@<TRIPOS>BOND
     1    1    2 ar 
     2    1   10 ar 
     3    2    3 ar 
     4    3    4 1  
     5    3    8 ar 
     6    4    6 ar 
     7    4   11 ar 
     8   11    5 ar 
     9    5   12 ar 
    10    5   17 1  
    11    6   13 ar 
    12    6   16 1  
    13    8    7 1  
    14    8    9 ar 
    15    9   10 ar 
    16   12   13 ar 
    17   13   14 1  
    18   14   15 1  
    19   15   16 2  
    20   17   18 1  
    21   17   19 1  
    22   17   20 1  
    23    1   21 1  
    24    2   22 1  
    25    7   23 1  
    26    7   24 1  
    27    7   25 1  
    28    9   26 1  
    29   11   27 1  
    30   12   28 1  
    31   14   29 1  
    32   16   30 1  
@<TRIPOS>SUBSTRUCTURE
     1 6KN         1

