### 
### Created by X-TOOL on Mon Sep 10 21:13:26 2018
### 

@<TRIPOS>MOLECULE
5ji8_ligand
   20    21     1     0     0
SMALL
GAST_HUCK


@<TRIPOS>ATOM
      1 C4          4.9940    8.1450    9.4500 C.ar      1 6KT        -0.0332
      2 C5          5.9380    7.7450    7.2730 C.ar      1 6KT        -0.0562
      3 C6          5.0080    7.4470    8.2730 C.ar      1 6KT         0.0363
      4 C8          7.4570   10.9770   10.2100 C.2       1 6KT         0.1849
      5 C10         3.9850    6.3520    8.0940 C.2       1 6KT         0.1948
      6 N12         8.1890   12.0620   10.8370 N.pl3     1 6KT        -0.2924
      7 C1          6.8850    9.4800    8.6350 C.ar      1 6KT         0.0151
      8 C2          5.9140    9.1260    9.6130 C.ar      1 6KT         0.0552
      9 C3          6.8930    8.7580    7.4460 C.ar      1 6KT        -0.0579
     10 N7          7.7520   10.5280    8.9860 N.2       1 6KT        -0.3036
     11 S9          6.1180   10.1720   11.0040 S.3       1 6KT         0.0307
     12 O11         3.0850    6.2550    8.8560 O.2       1 6KT        -0.3889
     13 N13         4.1300    5.4440    6.9660 N.am      1 6KT        -0.3014
     14 H1          4.2710    7.9205   10.2259 H         1 6KT         0.0611
     15 H2          5.9210    7.1828    6.3463 H         1 6KT         0.0594
     16 H3          8.9708   12.5111   10.3391 H         1 6KT         0.1902
     17 H4          7.9267   12.3829   11.7799 H         1 6KT         0.1902
     18 H5          7.6201    8.9731    6.6713 H         1 6KT         0.0547
     19 H6          3.4650    4.7104    6.8260 H         1 6KT         0.1805
     20 H7          4.8946    5.5537    6.3309 H         1 6KT         0.1805
@<TRIPOS>BOND
     1    1    3 ar 
     2    8    1 ar 
     3    2    3 ar 
     4    9    2 ar 
     5    3    5 1  
     6    4    6 1  
     7   10    4 2  
     8    4   11 1  
     9    5   12 2  
    10    5   13 am 
    11    7    8 ar 
    12    7    9 ar 
    13    7   10 1  
    14    8   11 1  
    15    1   14 1  
    16    2   15 1  
    17    6   16 1  
    18    6   17 1  
    19    9   18 1  
    20   13   19 1  
    21   13   20 1  
@<TRIPOS>SUBSTRUCTURE
     1 6KT         1

