### 
### Created by X-TOOL on Mon Sep 10 21:13:26 2018
### 

@<TRIPOS>MOLECULE
5jid_ligand
   25    24     1     0     0
SMALL
GAST_HUCK


@<TRIPOS>ATOM
      1 C13        -0.4410    0.0420    7.4380 C.3       1 8PF         0.3840
      2 C16         0.4630   -0.1310    8.6640 C.3       1 8PF         0.3868
      3 C19        -0.0920    0.4380    9.9490 C.3       1 8PF         0.4087
      4 C10         0.3930    0.0530    6.1880 C.3       1 8PF         0.3834
      5 C22         0.0990    1.9410   10.0210 C.3       1 8PF         0.4603
      6 F01        -0.9290   -1.2800    4.8070 F         1 8PF        -0.1930
      7 C02        -0.4350   -0.0400    4.9240 C.3       1 8PF         0.3831
      8 F03        -1.4200    0.8590    4.9650 F         1 8PF        -0.1930
      9 C04         0.4260    0.2990    3.7280 C.3       1 8PF         0.3585
     10 F05         1.5770   -0.3690    3.8150 F         1 8PF        -0.1951
     11 F06         0.6230    1.6270    3.7050 F         1 8PF        -0.1951
     12 C07        -0.2140   -0.1040    2.4230 C.2       1 8PF         0.1198
     13 O08        -1.3560   -0.6330    2.3930 O.co2     1 8PF        -0.5421
     14 O09         0.4300    0.0960    1.3600 O.co2     1 8PF        -0.5421
     15 F11         1.1100    1.1840    6.1710 F         1 8PF        -0.1921
     16 F12         1.1700   -1.0350    6.2620 F         1 8PF        -0.1921
     17 F14        -1.2170   -1.0500    7.3500 F         1 8PF        -0.1920
     18 F15        -1.1990    1.1610    7.4450 F         1 8PF        -0.1920
     19 F17         1.6990    0.3660    8.5170 F         1 8PF        -0.1919
     20 F18         0.5860   -1.4450    8.8630 F         1 8PF        -0.1919
     21 F20         0.5710   -0.1370   10.9710 F         1 8PF        -0.1889
     22 F21        -1.3870    0.1150   10.0220 F         1 8PF        -0.1889
     23 F23        -0.8780    2.4810   10.7460 F         1 8PF        -0.1648
     24 F24         0.0980    2.4810    8.7940 F         1 8PF        -0.1648
     25 F25         1.2500    2.2110   10.6460 F         1 8PF        -0.1648
@<TRIPOS>BOND
     1    1    2 1  
     2    1    4 1  
     3    1   17 1  
     4    1   18 1  
     5    2    3 1  
     6    2   19 1  
     7    2   20 1  
     8    3    5 1  
     9    3   21 1  
    10    3   22 1  
    11    4    7 1  
    12    4   15 1  
    13    4   16 1  
    14    5   23 1  
    15    5   24 1  
    16    5   25 1  
    17    7    6 1  
    18    7    8 1  
    19    7    9 1  
    20    9   10 1  
    21    9   11 1  
    22    9   12 1  
    23   12   13 ar 
    24   12   14 ar 
@<TRIPOS>SUBSTRUCTURE
     1 8PF         1

