### 
### Created by X-TOOL on Mon Sep 10 21:13:25 2018
### 

@<TRIPOS>MOLECULE
5jim_ligand
   29    28     1     0     0
SMALL
GAST_HUCK


@<TRIPOS>ATOM
      1 F8C        -0.9680   -2.3660   10.1430 F         1 P8S        -0.1648
      2 C8          0.2640   -1.8840   10.2400 C.3       1 P8S         0.4603
      3 F8A         0.8970   -2.4870   11.2110 F         1 P8S        -0.1648
      4 F8B         0.9630   -2.1330    9.1540 F         1 P8S        -0.1648
      5 C7          0.1650   -0.3970   10.5630 C.3       1 P8S         0.4087
      6 F7A         0.9720   -0.1310   11.5660 F         1 P8S        -0.1889
      7 F7B        -1.0680   -0.1510   10.9550 F         1 P8S        -0.1889
      8 C6          0.4910    0.5440    9.4090 C.3       1 P8S         0.3868
      9 F6A         1.7280    0.3590    8.9960 F         1 P8S        -0.1919
     10 F6B         0.3890    1.7750    9.8730 F         1 P8S        -0.1919
     11 C5         -0.4860    0.4130    8.2490 C.3       1 P8S         0.3841
     12 F5B        -1.6620    0.0490    8.7300 F         1 P8S        -0.1920
     13 F5A        -0.5960    1.5970    7.6760 F         1 P8S        -0.1920
     14 C4         -0.1020   -0.6310    7.2090 C.3       1 P8S         0.3841
     15 F4A        -0.6530   -1.7670    7.5900 F         1 P8S        -0.1920
     16 F4B         1.2080   -0.8100    7.0890 F         1 P8S        -0.1920
     17 C3         -0.7430   -0.2800    5.8840 C.3       1 P8S         0.3856
     18 F3B        -1.5050   -1.2960    5.5420 F         1 P8S        -0.1919
     19 F3A        -1.4750    0.8110    6.0270 F         1 P8S        -0.1919
     20 C2          0.2480    0.0010    4.7780 C.3       1 P8S         0.3958
     21 F2A         0.8870    1.1090    5.1010 F         1 P8S        -0.1903
     22 F2B         1.0950   -1.0120    4.7160 F         1 P8S        -0.1903
     23 C1         -0.4450    0.1760    3.4300 C.3       1 P8S         0.4013
     24 F1B        -1.4480    1.0140    3.5880 F         1 P8S        -0.1768
     25 F1A        -0.9160   -0.9910    3.0340 F         1 P8S        -0.1768
     26 S1          0.6730    0.8460    2.1400 S.o2      1 P8S        -0.1260
     27 O3          0.5400    2.2770    2.2140 O.co2     1 P8S        -0.4796
     28 O1          2.0340    0.3740    2.4460 O.co2     1 P8S        -0.4796
     29 O2          0.1890    0.3320    0.8870 O.co2     1 P8S        -0.4796
@<TRIPOS>BOND
     1    1    2 1  
     2    2    3 1  
     3    2    4 1  
     4    2    5 1  
     5    5    6 1  
     6    5    7 1  
     7    5    8 1  
     8    8    9 1  
     9    8   10 1  
    10    8   11 1  
    11   11   12 1  
    12   11   13 1  
    13   11   14 1  
    14   14   15 1  
    15   14   16 1  
    16   14   17 1  
    17   17   18 1  
    18   17   19 1  
    19   17   20 1  
    20   20   21 1  
    21   20   22 1  
    22   20   23 1  
    23   23   24 1  
    24   23   25 1  
    25   23   26 1  
    26   26   27 ar 
    27   26   28 ar 
    28   26   29 ar 
@<TRIPOS>SUBSTRUCTURE
     1 P8S         1

