### 
### Created by X-TOOL on Mon Sep 10 21:13:25 2018
### 

@<TRIPOS>MOLECULE
5jiq_ligand
   28    29     1     0     0
SMALL
GAST_HUCK


@<TRIPOS>ATOM
      1 OAD         2.0850   -3.0500    5.9430 O.3       1 27M        -0.3303
      2 CAO         1.2750   -2.0640    5.4790 C.ar      1 27M         0.0991
      3 CAJ         1.2060   -1.8290    4.1250 C.ar      1 27M         0.0009
      4 CAM         0.3800   -0.8380    3.6260 C.ar      1 27M         0.0848
      5 OAB         0.3160   -0.6040    2.2520 O.3       1 27M        -0.3323
      6 CAF        -0.3830   -0.0710    4.4750 C.ar      1 27M        -0.0377
      7 CAH        -0.3270   -0.3050    5.8310 C.ar      1 27M        -0.0599
      8 CAQ         0.5020   -1.3000    6.3410 C.ar      1 27M         0.0475
      9 CAL         0.5600   -1.5370    7.8270 C.2       1 27M         0.1336
     10 OAA         0.5790   -2.6610    8.2870 O.2       1 27M        -0.3913
     11 CAR         0.5760   -0.3450    8.7450 C.ar      1 27M         0.0475
     12 CAI         0.9540    0.9070    8.2890 C.ar      1 27M        -0.0599
     13 CAG         0.9370    1.9750    9.1530 C.ar      1 27M        -0.0377
     14 CAN         0.5610    1.7840   10.4640 C.ar      1 27M         0.0848
     15 OAC         0.5730    2.8920   11.3090 O.3       1 27M        -0.3323
     16 CAK         0.1820    0.5360   10.9330 C.ar      1 27M         0.0009
     17 CAP         0.1930   -0.5280   10.0610 C.ar      1 27M         0.0991
     18 OAE        -0.1780   -1.7720   10.4770 O.3       1 27M        -0.3303
     19 H1          2.0242   -3.0888    6.8903 H         1 27M         0.2507
     20 H2          1.8033   -2.4248    3.4444 H         1 27M         0.0475
     21 H3         -0.2936    0.1042    2.0806 H         1 27M         0.2499
     22 H4         -1.0225    0.7104    4.0806 H         1 27M         0.0471
     23 H5         -0.9325    0.2896    6.5055 H         1 27M         0.0616
     24 H6          1.2609    1.0431    7.2583 H         1 27M         0.0616
     25 H7          1.2179    2.9624    8.8048 H         1 27M         0.0471
     26 H8          0.2954    2.6287   12.1785 H         1 27M         0.2499
     27 H9         -0.1171    0.4010   11.9662 H         1 27M         0.0475
     28 H10        -0.1109   -2.3807    9.7507 H         1 27M         0.2507
@<TRIPOS>BOND
     1    1    2 1  
     2    2    3 ar 
     3    2    8 ar 
     4    3    4 ar 
     5    4    5 1  
     6    4    6 ar 
     7    6    7 ar 
     8    7    8 ar 
     9    8    9 1  
    10    9   10 2  
    11    9   11 1  
    12   11   12 ar 
    13   11   17 ar 
    14   12   13 ar 
    15   13   14 ar 
    16   14   15 1  
    17   14   16 ar 
    18   16   17 ar 
    19   17   18 1  
    20    1   19 1  
    21    3   20 1  
    22    5   21 1  
    23    6   22 1  
    24    7   23 1  
    25   12   24 1  
    26   13   25 1  
    27   15   26 1  
    28   16   27 1  
    29   18   28 1  
@<TRIPOS>SUBSTRUCTURE
     1 27M         1

