### 
### Created by X-TOOL on Mon Sep 10 21:13:27 2018
### 

@<TRIPOS>MOLECULE
5jjr_ligand
   54    57     1     0     0
SMALL
GAST_HUCK


@<TRIPOS>ATOM
      1 C1         29.4510  175.6650   19.3440 C.ar      1 68E         0.1023
      2 C2         29.4670  174.3570   19.8100 C.ar      1 68E        -0.0238
      3 C3         28.4810  173.4490   19.4840 C.ar      1 68E        -0.0331
      4 O1         28.5140  184.3580   18.6350 O.3       1 68E        -0.3833
      5 O2         25.2610  173.2360   18.5060 O.2       1 68E        -0.3913
      6 O3         24.3940  171.4860   16.6930 O.2       1 68E        -0.1454
      7 C11        28.5620  179.7290   17.3870 C.2       1 68E         0.0735
      8 C12        28.8270  181.1250   17.4010 C.1       1 68E        -0.0618
      9 C13        29.1200  182.2990   17.5740 C.1       1 68E        -0.0768
     10 C14        29.5270  183.7070   17.8760 C.3       1 68E         0.1021
     11 C15        26.4260  172.9780   18.2130 C.2       1 68E         0.2130
     12 C16        25.3110  169.7340   18.5380 C.ar      1 68E         0.1355
     13 C17        24.0330  169.7900   19.1130 C.ar      1 68E        -0.0286
     14 C18        23.7330  169.0370   20.2500 C.ar      1 68E        -0.0539
     15 C19        24.7310  168.2620   20.8430 C.ar      1 68E        -0.0457
     16 C20        26.0280  168.2350   20.3080 C.ar      1 68E         0.0093
     17 C21        27.0310  167.4850   20.9310 C.ar      1 68E        -0.0343
     18 C22        28.3280  167.4670   20.4020 C.ar      1 68E        -0.0315
     19 C23        28.6170  168.2250   19.2650 C.ar      1 68E         0.0108
     20 C24        26.3310  168.9850   19.1570 C.ar      1 68E         0.0738
     21 O4         26.1560  169.8820   15.9410 O.2       1 68E        -0.1454
     22 S1         25.6570  170.7170   17.1230 S.o2      1 68E         0.0923
     23 N1         27.5920  168.9790   18.6590 N.ar      1 68E        -0.2933
     24 N          26.8180  171.8390   17.6020 N.am      1 68E        -0.1556
     25 C5         27.4530  173.8480   18.5990 C.ar      1 68E         0.0428
     26 C4         28.6070  172.1490   20.0290 C.3       1 68E        -0.0295
     27 C6         27.4440  175.1590   18.1020 C.ar      1 68E        -0.0462
     28 C7         28.4180  176.1100   18.4820 C.ar      1 68E         0.0236
     29 O          30.4040  176.5680   19.7200 O.3       1 68E        -0.3161
     30 C          31.3140  176.2160   20.7740 C.3       1 68E         0.0618
     31 C8         28.3870  177.3610   17.9570 C.2       1 68E         0.0317
     32 S          28.9020  178.7220   18.6620 S.3       1 68E        -0.0295
     33 C10        28.0520  178.9930   16.4050 C.2       1 68E        -0.0624
     34 C9         27.9230  177.6860   16.7410 C.2       1 68E        -0.0699
     35 H1         30.2812  174.0390   20.4511 H         1 68E         0.0492
     36 H2         27.7042  184.3671   18.1383 H         1 68E         0.2106
     37 H3         30.4642  183.6990   18.4518 H         1 68E         0.0686
     38 H4         29.6809  184.2513   16.9326 H         1 68E         0.0686
     39 H5         23.2720  170.4230   18.6712 H         1 68E         0.0673
     40 H6         22.7333  169.0542   20.6687 H         1 68E         0.0642
     41 H7         24.5019  167.6753   21.7253 H         1 68E         0.0655
     42 H8         26.8040  166.9162   21.8255 H         1 68E         0.0773
     43 H9         29.1012  166.8695   20.8713 H         1 68E         0.0694
     44 H10        29.6195  168.2333   18.8528 H         1 68E         0.0866
     45 H11        27.7883  171.6636   17.4356 H         1 68E         0.2133
     46 H12        29.4903  172.1098   20.6834 H         1 68E         0.0406
     47 H13        28.7219  171.4193   19.2140 H         1 68E         0.0406
     48 H14        27.7068  171.9075   20.6132 H         1 68E         0.0406
     49 H15        26.6668  175.4519   17.4055 H         1 68E         0.0626
     50 H16        32.0108  177.0488   20.9502 H         1 68E         0.0583
     51 H17        31.8807  175.3187   20.4847 H         1 68E         0.0583
     52 H18        30.7475  176.0110   21.6943 H         1 68E         0.0583
     53 H19        27.7681  179.3966   15.4342 H         1 68E         0.0449
     54 H20        27.4750  176.9528   16.0720 H         1 68E         0.0403
@<TRIPOS>BOND
     1    1    2 ar 
     2   28    1 ar 
     3    1   29 1  
     4    2    3 ar 
     5   25    3 ar 
     6    3   26 1  
     7   10    4 1  
     8   11    5 2  
     9   22    6 2  
    10    7    8 1  
    11   32    7 1  
    12    7   33 2  
    13    8    9 3  
    14    9   10 1  
    15   11   24 am 
    16   25   11 1  
    17   12   13 ar 
    18   12   20 ar 
    19   22   12 1  
    20   13   14 ar 
    21   14   15 ar 
    22   16   15 ar 
    23   16   17 ar 
    24   20   16 ar 
    25   17   18 ar 
    26   19   18 ar 
    27   23   19 ar 
    28   20   23 ar 
    29   22   21 2  
    30   24   22 am 
    31   27   25 ar 
    32   28   27 ar 
    33   31   28 1  
    34   29   30 1  
    35   31   32 1  
    36   31   34 2  
    37   33   34 1  
    38    2   35 1  
    39    4   36 1  
    40   10   37 1  
    41   10   38 1  
    42   13   39 1  
    43   14   40 1  
    44   15   41 1  
    45   17   42 1  
    46   18   43 1  
    47   19   44 1  
    48   24   45 1  
    49   26   46 1  
    50   26   47 1  
    51   26   48 1  
    52   27   49 1  
    53   30   50 1  
    54   30   51 1  
    55   30   52 1  
    56   33   53 1  
    57   34   54 1  
@<TRIPOS>SUBSTRUCTURE
     1 68E         1

