### 
### Created by X-TOOL on Mon Sep 10 21:13:27 2018
### 

@<TRIPOS>MOLECULE
5jjs_ligand
   60    62     1     0     0
SMALL
GAST_HUCK


@<TRIPOS>ATOM
      1 C8         26.1140  172.0020   23.2700 C.3       1 6L2         0.0368
      2 O2         26.1180  170.5910   22.9140 O.3       1 6L2        -0.3797
      3 C5         25.1000  170.1430   21.9760 C.3       1 6L2         0.0602
      4 C6         24.6650  171.2740   21.0050 C.3       1 6L2        -0.0022
      5 C4         25.5390  168.8580   21.2360 C.3       1 6L2        -0.0265
      6 C3         24.4570  168.3450   20.2280 C.3       1 6L2        -0.0489
      7 C2         23.7130  169.4770   19.4700 C.3       1 6L2        -0.0284
      8 C1         24.4890  170.7910   19.5790 C.3       1 6L2         0.1024
      9 S1         24.0180  172.4000   18.6050 S.o2      1 6L2         0.0636
     10 O1         23.7390  172.0340   17.1610 O.2       1 6L2        -0.1506
     11 O4         22.8200  173.1010   19.2220 O.2       1 6L2        -0.1506
     12 N5         25.3470  173.4220   18.7370 N.am      1 6L2        -0.1606
     13 C7         26.5450  173.0310   18.2800 C.2       1 6L2         0.2124
     14 O8         26.7580  171.9320   17.7670 O.2       1 6L2        -0.3934
     15 C9         27.5910  173.9080   18.6170 C.ar      1 6L2         0.0712
     16 C14        27.5840  175.2450   18.1630 C.ar      1 6L2        -0.0468
     17 C10        28.5740  173.5010   19.5460 C.ar      1 6L2         0.1062
     18 O3         28.5120  172.1900   19.9780 O.3       1 6L2        -0.3172
     19 C20        29.3080  171.8390   21.1270 C.3       1 6L2         0.0615
     20 C11        29.5540  174.3960   19.9660 C.ar      1 6L2         0.0044
     21 C12        29.5470  175.7240   19.5040 C.ar      1 6L2         0.1012
     22 O5         30.5300  176.6010   19.8680 O.3       1 6L2        -0.3168
     23 C15        31.5340  176.1990   20.8450 C.3       1 6L2         0.0617
     24 C13        28.5470  176.1780   18.5940 C.ar      1 6L2         0.0206
     25 C16        28.5370  177.4480   18.0760 C.2       1 6L2         0.0294
     26 S20        29.0100  178.8740   18.8530 S.3       1 6L2        -0.0309
     27 C17        28.1440  177.8090   16.8320 C.2       1 6L2        -0.0713
     28 C18        28.2520  179.1470   16.5520 C.2       1 6L2        -0.0638
     29 C19        28.7580  179.8520   17.5680 C.2       1 6L2         0.0722
     30 C21        29.0520  181.2710   17.6360 C.1       1 6L2        -0.0631
     31 C22        29.3190  182.3070   17.8020 C.1       1 6L2        -0.0777
     32 C23        29.7190  183.6840   18.0550 C.3       1 6L2         0.1018
     33 O24        28.8140  184.3070   18.9460 O.3       1 6L2        -0.3834
     34 H1         26.9290  172.2031   23.9808 H         1 6L2         0.0524
     35 H2         25.1507  172.2604   23.7340 H         1 6L2         0.0524
     36 H3         26.2593  172.6091   22.3643 H         1 6L2         0.0524
     37 H4         24.2125  169.8791   22.5699 H         1 6L2         0.0596
     38 H5         25.4329  172.0615   21.0167 H         1 6L2         0.0309
     39 H6         23.7086  171.6892   21.3556 H         1 6L2         0.0309
     40 H7         25.7290  168.0704   21.9800 H         1 6L2         0.0290
     41 H8         26.4650  169.0697   20.6814 H         1 6L2         0.0290
     42 H9         23.7143  167.7571   20.7873 H         1 6L2         0.0267
     43 H10        24.9525  167.7003   19.4871 H         1 6L2         0.0267
     44 H11        22.7125  169.6095   19.9076 H         1 6L2         0.0284
     45 H12        23.6158  169.2003   18.4098 H         1 6L2         0.0284
     46 H13        25.4883  170.5200   19.2077 H         1 6L2         0.0559
     47 H14        25.2433  174.3234   19.1574 H         1 6L2         0.2128
     48 H15        26.8177  175.5615   17.4647 H         1 6L2         0.0621
     49 H16        29.1651  170.7736   21.3604 H         1 6L2         0.0582
     50 H17        28.9968  172.4480   21.9885 H         1 6L2         0.0582
     51 H18        30.3696  172.0274   20.9090 H         1 6L2         0.0582
     52 H19        30.3261  174.0676   20.6524 H         1 6L2         0.0479
     53 H20        32.2370  177.0286   21.0109 H         1 6L2         0.0583
     54 H21        32.0827  175.3234   20.4679 H         1 6L2         0.0583
     55 H22        31.0402  175.9417   21.7936 H         1 6L2         0.0583
     56 H23        27.7692  177.0889   16.1061 H         1 6L2         0.0391
     57 H24        27.9564  179.5886   15.6014 H         1 6L2         0.0446
     58 H25        29.7306  184.2380   17.1048 H         1 6L2         0.0685
     59 H26        30.7262  183.6930   18.4971 H         1 6L2         0.0685
     60 H27        27.9435  184.3029   18.5657 H         1 6L2         0.2106
@<TRIPOS>BOND
     1    1    2 1  
     2    2    3 1  
     3    3    4 1  
     4    3    5 1  
     5    4    8 1  
     6    5    6 1  
     7    6    7 1  
     8    7    8 1  
     9    8    9 1  
    10    9   10 2  
    11    9   11 2  
    12    9   12 am 
    13   12   13 am 
    14   13   14 2  
    15   13   15 1  
    16   15   16 ar 
    17   15   17 ar 
    18   16   24 ar 
    19   17   18 1  
    20   17   20 ar 
    21   18   19 1  
    22   20   21 ar 
    23   21   22 1  
    24   21   24 ar 
    25   22   23 1  
    26   24   25 1  
    27   25   26 1  
    28   25   27 2  
    29   26   29 1  
    30   27   28 1  
    31   28   29 2  
    32   29   30 1  
    33   30   31 3  
    34   31   32 1  
    35   32   33 1  
    36    1   34 1  
    37    1   35 1  
    38    1   36 1  
    39    3   37 1  
    40    4   38 1  
    41    4   39 1  
    42    5   40 1  
    43    5   41 1  
    44    6   42 1  
    45    6   43 1  
    46    7   44 1  
    47    7   45 1  
    48    8   46 1  
    49   12   47 1  
    50   16   48 1  
    51   19   49 1  
    52   19   50 1  
    53   19   51 1  
    54   20   52 1  
    55   23   53 1  
    56   23   54 1  
    57   23   55 1  
    58   27   56 1  
    59   28   57 1  
    60   32   58 1  
    61   32   59 1  
    62   33   60 1  
@<TRIPOS>SUBSTRUCTURE
     1 6L2         1

