### 
### Created by X-TOOL on Mon Sep 10 21:13:34 2018
### 

@<TRIPOS>MOLECULE
5jk3_ligand
   43    45     1     0     0
SMALL
GAST_HUCK


@<TRIPOS>ATOM
      1 C10       -18.0620  -51.3980  -19.4200 C.3       1 6L4         0.0557
      2 C17       -14.8430  -51.7180  -16.9540 C.ar      1 6L4        -0.0396
      3 C20       -13.2270  -52.9040  -18.8700 C.ar      1 6L4        -0.0474
      4 C21       -12.6900  -52.0010  -17.9660 C.ar      1 6L4         0.1029
      5 C24        -9.3340  -50.2760  -18.9720 C.3       1 6L4         0.0399
      6 CL01      -11.1140  -48.4910  -14.7450 Cl        1 6L4        -0.0735
      7 C02       -12.7220  -48.1740  -15.4480 C.ar      1 6L4         0.1088
      8 C03       -13.2780  -46.9040  -15.4060 C.ar      1 6L4         0.0170
      9 N04       -14.4700  -46.6920  -15.9340 N.ar      1 6L4        -0.2680
     10 C05       -15.1450  -47.6720  -16.5030 C.ar      1 6L4         0.1902
     11 N06       -16.4540  -47.3640  -17.0650 N.pl3     1 6L4        -0.2623
     12 C07       -17.3220  -48.3660  -17.6700 C.2       1 6L4         0.0749
     13 C08       -16.9400  -49.5230  -18.3060 C.2       1 6L4         0.0655
     14 N09       -18.0320  -50.1310  -18.7070 N.pl3     1 6L4        -0.2211
     15 N11       -19.1390  -49.4020  -18.3620 N.2       1 6L4        -0.2231
     16 C12       -18.7110  -48.3070  -17.7220 C.2       1 6L4         0.0215
     17 N13       -14.6530  -48.9000  -16.5650 N.ar      1 6L4        -0.2250
     18 C14       -13.4620  -49.1850  -16.0600 C.ar      1 6L4         0.2028
     19 O15       -12.9100  -50.4900  -16.1020 O.3       1 6L4        -0.2389
     20 C16       -13.4960  -51.3910  -17.0110 C.ar      1 6L4         0.1453
     21 C18       -15.3860  -52.6190  -17.8600 C.ar      1 6L4        -0.0844
     22 C19       -14.5780  -53.2140  -18.8180 C.ar      1 6L4        -0.0854
     23 N22       -11.2760  -51.6730  -18.0150 N.am      1 6L4        -0.2354
     24 C23       -10.8170  -50.6350  -18.9200 C.2       1 6L4         0.2011
     25 C25        -9.0960  -48.9040  -18.3540 C.3       1 6L4        -0.0478
     26 O26       -11.5910  -50.0670  -19.6070 O.2       1 6L4        -0.3860
     27 H1        -17.0340  -51.7618  -19.5646 H         1 6L4         0.0596
     28 H2        -18.5419  -51.2562  -20.3996 H         1 6L4         0.0596
     29 H3        -18.6327  -52.1344  -18.8352 H         1 6L4         0.0596
     30 H4        -15.4753  -51.2673  -16.1976 H         1 6L4         0.0512
     31 H5        -12.5921  -53.3673  -19.6166 H         1 6L4         0.0471
     32 H6         -9.0009  -50.2637  -20.0203 H         1 6L4         0.0504
     33 H7         -8.7592  -51.0294  -18.4134 H         1 6L4         0.0504
     34 H8        -12.7361  -46.0882  -14.9414 H         1 6L4         0.0860
     35 H9        -16.7823  -46.3883  -17.0329 H         1 6L4         0.2074
     36 H10       -15.9185  -49.8715  -18.4507 H         1 6L4         0.0824
     37 H11       -19.3367  -47.5137  -17.3157 H         1 6L4         0.0634
     38 H12       -16.4426  -52.8579  -17.8188 H         1 6L4         0.0464
     39 H13       -15.0013  -53.9193  -19.5240 H         1 6L4         0.0495
     40 H14       -10.6249  -52.1576  -17.4309 H         1 6L4         0.2229
     41 H15        -8.0239  -48.6621  -18.4000 H         1 6L4         0.0254
     42 H16        -9.4252  -48.9125  -17.3045 H         1 6L4         0.0254
     43 H17        -9.6669  -48.1467  -18.9113 H         1 6L4         0.0254
@<TRIPOS>BOND
     1   14    1 1  
     2   20    2 ar 
     3    2   21 ar 
     4    4    3 ar 
     5    3   22 ar 
     6    4   20 ar 
     7   23    4 1  
     8   24    5 1  
     9    5   25 1  
    10    7    6 1  
    11    7    8 ar 
    12   18    7 ar 
    13    8    9 ar 
    14   10    9 ar 
    15   10   11 1  
    16   17   10 ar 
    17   11   12 1  
    18   12   13 2  
    19   12   16 1  
    20   13   14 1  
    21   15   14 1  
    22   16   15 2  
    23   18   17 ar 
    24   19   18 1  
    25   20   19 1  
    26   22   21 ar 
    27   23   24 am 
    28   24   26 2  
    29    1   27 1  
    30    1   28 1  
    31    1   29 1  
    32    2   30 1  
    33    3   31 1  
    34    5   32 1  
    35    5   33 1  
    36    8   34 1  
    37   11   35 1  
    38   13   36 1  
    39   16   37 1  
    40   21   38 1  
    41   22   39 1  
    42   23   40 1  
    43   25   41 1  
    44   25   42 1  
    45   25   43 1  
@<TRIPOS>SUBSTRUCTURE
     1 6L4         1

