### 
### Created by X-TOOL on Wed Jan  1 15:39:34 2020
### 

@<TRIPOS>MOLECULE
5jmx_ligand
   19    19     1     0     0
SMALL
GAST_HUCK


@<TRIPOS>ATOM
      1 O01        64.3000    2.9290   25.6230 O.co2     1 DZ5        -0.5584
      2 C02        63.9900    3.8960   26.3660 C.2       1 DZ5         0.0753
      3 O03        64.7610    4.3050   27.2860 O.co2     1 DZ5        -0.5584
      4 C04        62.5810    4.4920   26.2790 C.2       1 DZ5         0.0492
      5 C05        62.1190    5.3060   27.2770 C.2       1 DZ5        -0.0428
      6 C06        60.7780    5.8790   27.4540 C.ar      1 DZ5        -0.0365
      7 C07        60.0040    6.5130   26.4650 C.ar      1 DZ5        -0.0601
      8 C08        58.7300    7.0160   26.7140 C.ar      1 DZ5        -0.0300
      9 C09        58.2350    6.8970   28.0220 C.ar      1 DZ5         0.1305
     10 F10        56.9830    7.3900   28.3000 F         1 DZ5        -0.1847
     11 C11        58.9100    6.3060   29.0260 C.ar      1 DZ5        -0.0300
     12 C12        60.1830    5.8130   28.7370 C.ar      1 DZ5        -0.0601
     13 S13        61.5930    4.0650   24.9250 S.3       1 DZ5        -0.1089
     14 H1         62.8454    5.5647   28.0460 H         1 DZ5         0.0516
     15 H2         60.4167    6.6140   25.4677 H         1 DZ5         0.0589
     16 H3         58.1440    7.4808   25.9294 H         1 DZ5         0.0600
     17 H4         58.4821    6.2169   30.0180 H         1 DZ5         0.0600
     18 H5         60.7481    5.3537   29.5399 H         1 DZ5         0.0589
     19 H6         61.3220    4.9010   24.4314 H         1 DZ5         0.1256
@<TRIPOS>BOND
     1    1    2 ar 
     2    2    3 ar 
     3    2    4 1  
     4    4    5 2  
     5    4   13 1  
     6    5    6 1  
     7    6    7 ar 
     8    6   12 ar 
     9    7    8 ar 
    10    8    9 ar 
    11    9   10 1  
    12    9   11 ar 
    13   11   12 ar 
    14    5   14 1  
    15    7   15 1  
    16    8   16 1  
    17   11   17 1  
    18   12   18 1  
    19   13   19 1  
@<TRIPOS>SUBSTRUCTURE
     1 DZ5         1

