### 
### Created by X-TOOL on Fri Nov  2 10:55:23 2018
### 

@<TRIPOS>MOLECULE
5jn8_ligand
   19    19     1     0     0
SMALL
GAST_HUCK


@<TRIPOS>ATOM
      1 C1         34.9710    9.6660   19.5770 C.2       1 AZM         0.2562
      2 C2         37.2980    9.9740   19.8630 C.2       1 AZM         0.2252
      3 C3         39.1520   11.5070   19.6960 C.2       1 AZM         0.2120
      4 C4         40.5240   11.2920   19.1000 C.3       1 AZM         0.0337
      5 N1         33.0780    8.6430   18.1390 N.am      1 AZM        -0.2565
      6 N2         36.9060    8.7040   20.1830 N.2       1 AZM        -0.2573
      7 N3         35.4800    8.4980   20.0030 N.2       1 AZM        -0.2476
      8 N4         38.5760   10.4370   20.2570 N.am      1 AZM        -0.1925
      9 O1         32.4880    9.4420   20.4120 O.2       1 AZM        -0.1452
     10 O2         32.9630   11.1030   18.6740 O.2       1 AZM        -0.1452
     11 O3         38.5880   12.6210   19.6630 O.2       1 AZM        -0.3804
     12 S1         33.2750    9.8000   19.2460 S.o2      1 AZM         0.0991
     13 S2         36.1000   10.9430   19.3760 S.3       1 AZM         0.0874
     14 H1         40.8902   12.2370   18.6724 H         1 AZM         0.0474
     15 H2         40.4648   10.5302   18.3087 H         1 AZM         0.0474
     16 H3         41.2157   10.9524   19.8850 H         1 AZM         0.0474
     17 H4         32.1739    8.4762   17.7455 H         1 AZM         0.1638
     18 H5         33.8600    8.0926   17.8464 H         1 AZM         0.1638
     19 H6         39.0653    9.9481   20.9791 H         1 AZM         0.2411
@<TRIPOS>BOND
     1    1    7 2  
     2    1   12 1  
     3   13    1 1  
     4    2    6 2  
     5    8    2 1  
     6    2   13 1  
     7    3    4 1  
     8    3    8 am 
     9    3   11 2  
    10   12    5 am 
    11    6    7 1  
    12   12    9 2  
    13   12   10 2  
    14    4   14 1  
    15    4   15 1  
    16    4   16 1  
    17    5   17 1  
    18    5   18 1  
    19    8   19 1  
@<TRIPOS>SUBSTRUCTURE
     1 AZM         1

