### 
### Created by X-TOOL on Fri Nov  2 10:55:23 2018
### 

@<TRIPOS>MOLECULE
5jn9_ligand
   26    27     1     0     0
SMALL
GAST_HUCK


@<TRIPOS>ATOM
      1 N1         32.9870    8.4420   18.4240 N.am      1 EZL        -0.2548
      2 C2         36.6040    8.9220   20.7360 C.ar      1 EZL         0.0296
      3 C3         36.9790   10.2680   20.3000 C.ar      1 EZL         0.0510
      4 C4         38.2630   10.7380   20.5290 C.ar      1 EZL        -0.0189
      5 C5         39.2010    9.9130   21.1520 C.ar      1 EZL         0.0844
      6 C8         41.2230   11.2390   20.6100 C.3       1 EZL         0.0670
      7 O1         32.7880   10.9950   18.7310 O.2       1 EZL        -0.1431
      8 O2         32.3230    9.4870   20.4550 O.2       1 EZL        -0.1431
      9 S1         33.1670    9.7430   19.3210 S.o2      1 EZL         0.1041
     10 C1         34.7640    9.7850   19.7990 C.2       1 EZL         0.2500
     11 N2         35.3140    8.7090   20.4050 N.2       1 EZL        -0.2771
     12 S2         35.7760   11.1910   19.5750 S.3       1 EZL         0.0259
     13 C6         38.8570    8.6210   21.5550 C.ar      1 EZL        -0.0391
     14 C7         37.5750    8.1380   21.3550 C.ar      1 EZL        -0.0596
     15 O3         40.4930   10.3040   21.4100 O.3       1 EZL        -0.3212
     16 C9         42.5900   10.6700   20.2760 C.3       1 EZL        -0.0372
     17 H1         33.4771    8.3614   17.5561 H         1 EZL         0.1640
     18 H2         32.3838    7.7046   18.7280 H         1 EZL         0.1640
     19 H3         38.5374   11.7418   20.2256 H         1 EZL         0.0487
     20 H4         41.3448   12.1797   21.1669 H         1 EZL         0.0610
     21 H5         40.6705   11.4330   19.6789 H         1 EZL         0.0610
     22 H6         39.6006    7.9904   22.0288 H         1 EZL         0.0502
     23 H7         37.3235    7.1364   21.6845 H         1 EZL         0.0565
     24 H8         43.1474   11.3920   19.6611 H         1 EZL         0.0255
     25 H9         42.4695    9.7295   19.7183 H         1 EZL         0.0255
     26 H10        43.1438   10.4762   21.2064 H         1 EZL         0.0255
@<TRIPOS>BOND
     1    9    1 am 
     2    2    3 ar 
     3   11    2 1  
     4    2   14 ar 
     5    3    4 ar 
     6    3   12 1  
     7    4    5 ar 
     8    5   13 ar 
     9    5   15 1  
    10   15    6 1  
    11    6   16 1  
    12    9    7 2  
    13    9    8 2  
    14   10    9 1  
    15   10   11 2  
    16   10   12 1  
    17   13   14 ar 
    18    1   17 1  
    19    1   18 1  
    20    4   19 1  
    21    6   20 1  
    22    6   21 1  
    23   13   22 1  
    24   14   23 1  
    25   16   24 1  
    26   16   25 1  
    27   16   26 1  
@<TRIPOS>SUBSTRUCTURE
     1 EZL         1

