### 
### Created by X-TOOL on Fri Nov  2 10:55:23 2018
### 

@<TRIPOS>MOLECULE
5jna_ligand
   43    45     1     0     0
SMALL
GAST_HUCK


@<TRIPOS>ATOM
      1 CAT        39.7870   10.5550   20.8730 C.3       1 TOR        -0.0107
      2 CAU        38.4970   10.6980   20.0720 C.3       1 TOR         0.1686
      3 CAV        37.7980   11.9950   20.4640 C.3       1 TOR        -0.0107
      4 OAR        37.6660    9.5360   20.2210 O.3       1 TOR        -0.3130
      5 OAQ        38.7700   10.7540   18.6670 O.3       1 TOR        -0.3378
      6 CAK        37.7400   10.0340   17.9800 C.3       1 TOR         0.1466
      7 CAG        38.2750    9.5610   16.6390 C.3       1 TOR         0.1215
      8 OAF        37.2080    9.0560   15.8550 O.3       1 TOR        -0.3406
      9 CAE        37.7000    8.0400   15.0150 C.3       1 TOR         0.1656
     10 CAD        38.0310    8.6280   13.6430 C.3       1 TOR        -0.0108
     11 CAJ        36.6170    6.9670   14.8990 C.3       1 TOR        -0.0108
     12 OAA        38.8850    7.5460   15.6620 O.3       1 TOR        -0.3410
     13 CAB        39.2920    8.4370   16.7100 C.3       1 TOR         0.1140
     14 CAC        39.3190    7.7790   18.0900 C.3       1 TOR         0.0799
     15 OAH        38.0180    7.7140   18.6980 O.3       1 TOR        -0.3418
     16 CAL        37.3150    8.9400   18.9560 C.3       1 TOR         0.2280
     17 CAM        35.8220    8.6070   18.8990 C.3       1 TOR         0.1347
     18 OAN        34.9830    9.7540   19.0170 O.3       1 TOR        -0.2173
     19 SAO        33.4510    9.6040   19.1680 S.o2      1 TOR         0.1598
     20 OAS        33.1370    9.1430   20.5260 O.2       1 TOR        -0.1270
     21 OAI        32.8400   10.8940   18.8210 O.2       1 TOR        -0.1270
     22 NAP        32.9150    8.5070   18.2600 N.am      1 TOR        -0.2415
     23 H1         39.5495   10.5144   21.9463 H         1 TOR         0.0281
     24 H2         40.4396   11.4179   20.6743 H         1 TOR         0.0281
     25 H3         40.3022    9.6295   20.5763 H         1 TOR         0.0281
     26 H4         36.8674   12.0989   19.8867 H         1 TOR         0.0281
     27 H5         38.4595   12.8473   20.2497 H         1 TOR         0.0281
     28 H6         37.5626   11.9745   21.5383 H         1 TOR         0.0281
     29 H7         36.8792   10.6916   17.7886 H         1 TOR         0.0679
     30 H8         38.7355   10.4230   16.1342 H         1 TOR         0.0652
     31 H9         37.1091    8.9979   13.1705 H         1 TOR         0.0281
     32 H10        38.4809    7.8496   13.0093 H         1 TOR         0.0281
     33 H11        38.7411    9.4596   13.7621 H         1 TOR         0.0281
     34 H12        36.9727    6.1561   14.2464 H         1 TOR         0.0281
     35 H13        35.7062    7.4101   14.4699 H         1 TOR         0.0281
     36 H14        36.3930    6.5627   15.8972 H         1 TOR         0.0281
     37 H15        40.2987    8.8256   16.4967 H         1 TOR         0.0647
     38 H16        39.9848    8.3606   18.7445 H         1 TOR         0.0588
     39 H17        39.7100    6.7562   17.9849 H         1 TOR         0.0588
     40 H18        35.5867    7.9163   19.7221 H         1 TOR         0.0639
     41 H19        35.6101    8.1170   17.9372 H         1 TOR         0.0639
     42 H20        31.9371    8.2978   18.2521 H         1 TOR         0.1654
     43 H21        33.5406    7.9952   17.6712 H         1 TOR         0.1654
@<TRIPOS>BOND
     1    1    2 1  
     2    2    3 1  
     3    2    4 1  
     4    2    5 1  
     5    4   16 1  
     6    5    6 1  
     7    6    7 1  
     8    6   16 1  
     9    7    8 1  
    10    7   13 1  
    11    8    9 1  
    12    9   10 1  
    13    9   11 1  
    14    9   12 1  
    15   12   13 1  
    16   13   14 1  
    17   14   15 1  
    18   15   16 1  
    19   16   17 1  
    20   17   18 1  
    21   18   19 1  
    22   19   20 2  
    23   19   21 2  
    24   19   22 am 
    25    1   23 1  
    26    1   24 1  
    27    1   25 1  
    28    3   26 1  
    29    3   27 1  
    30    3   28 1  
    31    6   29 1  
    32    7   30 1  
    33   10   31 1  
    34   10   32 1  
    35   10   33 1  
    36   11   34 1  
    37   11   35 1  
    38   11   36 1  
    39   13   37 1  
    40   14   38 1  
    41   14   39 1  
    42   17   40 1  
    43   17   41 1  
    44   22   42 1  
    45   22   43 1  
@<TRIPOS>SUBSTRUCTURE
     1 TOR         1

