### 
### Created by X-TOOL on Fri Nov  2 10:55:23 2018
### 

@<TRIPOS>MOLECULE
5jnc_ligand
   23    23     1     0     0
SMALL
GAST_HUCK


@<TRIPOS>ATOM
      1 S1         33.1030    9.6660   19.2360 S.o2      1 MOL         0.0628
      2 N1         39.6730    9.7890   19.2520 N.4       1 MOL         0.2308
      3 C10        38.9120   10.1630   20.4520 C.3       1 MOL        -0.0016
      4 C11        37.4410   10.0420   20.1390 C.ar      1 MOL         0.0014
      5 N2         32.8180    8.5150   18.2340 N.am      1 MOL        -0.2617
      6 O5         32.5860   10.9720   18.7910 O.2       1 MOL        -0.1514
      7 C12        36.7170   11.1580   19.7300 C.ar      1 MOL        -0.0534
      8 O6         32.4160    9.3750   20.5020 O.2       1 MOL        -0.1514
      9 C13        35.3590   11.0410   19.4390 C.ar      1 MOL        -0.0418
     10 C14        34.6960    9.8080   19.5400 C.ar      1 MOL         0.1009
     11 C15        35.4450    8.7040   19.9350 C.ar      1 MOL        -0.0418
     12 C16        36.7970    8.8300   20.2380 C.ar      1 MOL        -0.0534
     13 H1         40.6599    9.8641   19.4431 H         1 MOL         0.2008
     14 H2         39.4296   10.4068   18.4937 H         1 MOL         0.2008
     15 H3         39.4517    8.8395   18.9961 H         1 MOL         0.2008
     16 H4         39.1479   11.1998   20.7336 H         1 MOL         0.0979
     17 H5         39.1720    9.4894   21.2819 H         1 MOL         0.0979
     18 H6         33.2084    8.5450   17.3139 H         1 MOL         0.1634
     19 H7         32.2440    7.7436   18.5087 H         1 MOL         0.1634
     20 H8         37.2097   12.1191   19.6377 H         1 MOL         0.0559
     21 H9         34.8042   11.9191   19.1287 H         1 MOL         0.0619
     22 H10        34.9688    7.7329   20.0076 H         1 MOL         0.0619
     23 H11        37.3537    7.9567   20.5582 H         1 MOL         0.0559
@<TRIPOS>BOND
     1    1    5 am 
     2    1    6 2  
     3    1    8 2  
     4   10    1 1  
     5    3    2 1  
     6    4    3 1  
     7    7    4 ar 
     8    4   12 ar 
     9    9    7 ar 
    10    9   10 ar 
    11   10   11 ar 
    12   11   12 ar 
    13    2   13 1  
    14    2   14 1  
    15    2   15 1  
    16    3   16 1  
    17    3   17 1  
    18    5   18 1  
    19    5   19 1  
    20    7   20 1  
    21    9   21 1  
    22   11   22 1  
    23   12   23 1  
@<TRIPOS>SUBSTRUCTURE
     1 MOL         1

