### 
### Created by X-TOOL on Mon Sep 10 21:13:29 2018
### 

@<TRIPOS>MOLECULE
5jog_ligand
   66    70     1     0     0
SMALL
GAST_HUCK


@<TRIPOS>ATOM
      1 C1         28.1670  -28.4150   19.0010 C.2       1 6LT         0.0567
      2 C3         27.5950  -27.5270   17.1360 C.2       1 6LT         0.0921
      3 C11        28.9580  -29.4870   13.1940 C.ar      1 6LT        -0.0394
      4 C12        28.9880  -29.7110   14.5780 C.ar      1 6LT        -0.0252
      5 C14        28.3470  -30.9650   15.0780 C.ar      1 6LT        -0.0248
      6 C15        28.9040  -29.1660   20.1040 C.3       1 6LT         0.0026
      7 C16        30.4230  -28.9110   20.2160 C.3       1 6LT        -0.0390
      8 C17        31.2030  -29.4480   18.9780 C.3       1 6LT        -0.0204
      9 C18        30.9710  -28.6540   17.6520 C.3       1 6LT         0.0941
     10 C20        27.1040  -30.9000   15.7460 C.ar      1 6LT        -0.0560
     11 C21        26.5380  -32.0970   16.1850 C.ar      1 6LT        -0.0623
     12 C22        27.1800  -33.3430   16.0050 C.ar      1 6LT        -0.0627
     13 C23        28.4220  -33.4070   15.3600 C.ar      1 6LT        -0.0623
     14 C24        29.0080  -32.2080   14.9090 C.ar      1 6LT        -0.0560
     15 C25        29.5330  -28.9470   10.2140 C.2       1 6LT         0.2571
     16 C26        29.4410  -28.4400    8.8270 C.2       1 6LT         0.1606
     17 C28        30.4500  -27.7120    8.3270 C.2       1 6LT        -0.0172
     18 C29        30.0400  -27.3340    6.9750 C.2       1 6LT         0.0824
     19 N2         28.4710  -28.3280   17.7120 N.pl3     1 6LT        -0.2332
     20 N4         26.7700  -27.0910   17.9650 N.2       1 6LT        -0.3435
     21 C5         27.0930  -27.6320   19.2690 C.2       1 6LT        -0.0274
     22 C6         29.5800  -28.9740   16.9740 C.3       1 6LT         0.1233
     23 C7         29.5490  -28.7360   15.4350 C.ar      1 6LT        -0.0120
     24 C8         30.0390  -27.5300   14.8600 C.ar      1 6LT        -0.0683
     25 C9         30.0520  -27.3340   13.4750 C.ar      1 6LT        -0.0465
     26 C10        29.5160  -28.3190   12.6280 C.ar      1 6LT         0.0600
     27 N13        29.4300  -28.0530   11.2280 N.am      1 6LT        -0.2351
     28 O19        31.1190  -27.2280   17.8710 O.3       1 6LT        -0.3868
     29 O27        29.8050  -30.1290   10.3680 O.2       1 6LT        -0.3718
     30 N30        28.8890  -27.8280    6.8190 N.2       1 6LT        -0.2115
     31 N31        28.4750  -28.5010    7.9220 N.pl3     1 6LT        -0.1956
     32 C32        27.1640  -29.1520    7.9420 C.3       1 6LT         0.0744
     33 C33        30.7900  -26.5170    5.9590 C.3       1 6LT         0.2788
     34 C34        26.1590  -28.2410    7.1830 C.3       1 6LT        -0.0331
     35 C35        27.2660  -30.5060    7.1980 C.3       1 6LT        -0.0331
     36 F36        30.0160  -26.3370    4.8390 F         1 6LT        -0.1949
     37 F37        31.1040  -25.3190    6.5260 F         1 6LT        -0.1949
     38 H1         27.5921  -27.2787   16.0757 H         1 6LT         0.1152
     39 H2         28.4978  -30.2242   12.5460 H         1 6LT         0.0487
     40 H3         28.7579  -30.2423   19.9305 H         1 6LT         0.0443
     41 H4         28.4463  -28.8838   21.0636 H         1 6LT         0.0443
     42 H5         30.8011  -29.4139   21.1183 H         1 6LT         0.0288
     43 H6         30.5951  -27.8279   20.3005 H         1 6LT         0.0288
     44 H7         30.8969  -30.4909   18.8086 H         1 6LT         0.0294
     45 H8         32.2774  -29.4145   19.2115 H         1 6LT         0.0294
     46 H9         31.7553  -28.9653   16.9464 H         1 6LT         0.0646
     47 H10        26.6065  -29.9513   15.9120 H         1 6LT         0.0614
     48 H11        25.5742  -32.0705   16.6804 H         1 6LT         0.0615
     49 H12        26.7107  -34.2508   16.3666 H         1 6LT         0.0609
     50 H13        28.9209  -34.3578   15.2113 H         1 6LT         0.0615
     51 H14        29.9780  -32.2360   14.4259 H         1 6LT         0.0614
     52 H15        31.3835  -27.4549    8.8255 H         1 6LT         0.0407
     53 H16        26.5986  -27.4548   20.2230 H         1 6LT         0.0324
     54 H17        29.4299  -30.0565   17.0988 H         1 6LT         0.0826
     55 H18        30.4104  -26.7458   15.5097 H         1 6LT         0.0523
     56 H19        30.4734  -26.4269   13.0572 H         1 6LT         0.0494
     57 H20        29.2766  -27.1002   10.9658 H         1 6LT         0.2229
     58 H21        30.4222  -26.9221   18.4397 H         1 6LT         0.2101
     59 H22        26.8309  -29.3107    8.9783 H         1 6LT         0.0665
     60 H23        31.7150  -27.0406    5.6756 H         1 6LT         0.1173
     61 H24        25.1644  -28.7109    7.1850 H         1 6LT         0.0260
     62 H25        26.4983  -28.1054    6.1455 H         1 6LT         0.0260
     63 H26        26.1029  -27.2620    7.6814 H         1 6LT         0.0260
     64 H27        26.2853  -31.0041    7.2071 H         1 6LT         0.0260
     65 H28        28.0067  -31.1455    7.7003 H         1 6LT         0.0260
     66 H29        27.5784  -30.3303    6.1580 H         1 6LT         0.0260
@<TRIPOS>BOND
     1    1    6 1  
     2   19    1 1  
     3    1   21 2  
     4   19    2 1  
     5    2   20 2  
     6    3    4 ar 
     7   26    3 ar 
     8    4    5 1  
     9    4   23 ar 
    10    5   10 ar 
    11    5   14 ar 
    12    6    7 1  
    13    8    7 1  
    14    9    8 1  
    15   22    9 1  
    16    9   28 1  
    17   10   11 ar 
    18   11   12 ar 
    19   13   12 ar 
    20   14   13 ar 
    21   15   16 1  
    22   27   15 am 
    23   15   29 2  
    24   16   17 2  
    25   16   31 1  
    26   17   18 1  
    27   18   30 2  
    28   18   33 1  
    29   22   19 1  
    30   20   21 1  
    31   23   22 1  
    32   24   23 ar 
    33   25   24 ar 
    34   26   25 ar 
    35   26   27 1  
    36   30   31 1  
    37   31   32 1  
    38   32   34 1  
    39   32   35 1  
    40   33   36 1  
    41   33   37 1  
    42    2   38 1  
    43    3   39 1  
    44    6   40 1  
    45    6   41 1  
    46    7   42 1  
    47    7   43 1  
    48    8   44 1  
    49    8   45 1  
    50    9   46 1  
    51   10   47 1  
    52   11   48 1  
    53   12   49 1  
    54   13   50 1  
    55   14   51 1  
    56   17   52 1  
    57   21   53 1  
    58   22   54 1  
    59   24   55 1  
    60   25   56 1  
    61   27   57 1  
    62   28   58 1  
    63   32   59 1  
    64   33   60 1  
    65   34   61 1  
    66   34   62 1  
    67   34   63 1  
    68   35   64 1  
    69   35   65 1  
    70   35   66 1  
@<TRIPOS>SUBSTRUCTURE
     1 6LT         1

