### 
### Created by X-TOOL on Mon Sep 10 21:13:29 2018
### 

@<TRIPOS>MOLECULE
5joh_ligand
   44    47     1     0     0
SMALL
GAST_HUCK


@<TRIPOS>ATOM
      1 C1         28.4840  -28.6140   18.7060 C.2       1 6M3         0.0572
      2 C3         27.8600  -27.7630   16.8460 C.2       1 6M3         0.0926
      3 C11        29.1890  -29.9740   12.9210 C.ar      1 6M3        -0.0247
      4 C12        29.2590  -30.1520   14.2980 C.ar      1 6M3        -0.0001
      5 C13        29.1060  -31.5450   14.8620 C.ar      1 6M3        -0.0053
      6 C14        29.3370  -28.6290   10.8830 C.1       1 6M3         0.0938
      7 C16        27.8680  -31.9580   15.3940 C.ar      1 6M3         0.0465
      8 C17        27.6390  -33.2670   15.8480 C.ar      1 6M3        -0.0485
      9 C18        28.6610  -34.2150   15.6810 C.ar      1 6M3        -0.0623
     10 C19        29.8740  -33.8390   15.0620 C.ar      1 6M3        -0.0623
     11 C20        30.0990  -32.5140   14.6220 C.ar      1 6M3        -0.0553
     12 C21        29.2600  -29.3770   19.7740 C.3       1 6M3         0.0027
     13 C22        30.7840  -29.0700   19.7970 C.3       1 6M3        -0.0390
     14 C23        31.5590  -29.6100   18.5490 C.3       1 6M3        -0.0199
     15 C24        31.2680  -28.8990   17.1800 C.3       1 6M3         0.0974
     16 N2         28.7510  -28.5590   17.4060 N.pl3     1 6M3        -0.2299
     17 N4         27.0490  -27.3020   17.6690 N.2       1 6M3        -0.3434
     18 C5         27.4160  -27.8110   18.9930 C.2       1 6M3        -0.0274
     19 C6         29.8310  -29.2650   16.6670 C.3       1 6M3         0.1339
     20 C7         29.7210  -29.1000   15.1250 C.ar      1 6M3         0.0116
     21 C8         30.0080  -27.8390   14.4830 C.ar      1 6M3        -0.0444
     22 C9         29.9130  -27.6660   13.0820 C.ar      1 6M3        -0.0331
     23 C10        29.4980  -28.7700   12.2990 C.ar      1 6M3         0.0894
     24 N15        29.2080  -28.5150    9.7430 N.1       1 6M3        -0.3335
     25 O25        31.3060  -27.4550   17.3210 O.3       1 6M3        -0.3863
     26 CL1        26.6650  -30.7840   15.6910 Cl        1 6M3        -0.0706
     27 H1         27.8371  -27.5349   15.7814 H         1 6M3         0.1152
     28 H2         28.8799  -30.8109   12.3054 H         1 6M3         0.0710
     29 H3         26.6989  -33.5381   16.3146 H         1 6M3         0.0621
     30 H4         28.5197  -35.2328   16.0261 H         1 6M3         0.0609
     31 H5         30.6497  -34.5829   14.9211 H         1 6M3         0.0616
     32 H6         31.0174  -32.2497   14.1103 H         1 6M3         0.0613
     33 H7         29.1279  -30.4539   19.5929 H         1 6M3         0.0443
     34 H8         28.8409  -29.1163   20.7571 H         1 6M3         0.0443
     35 H9         31.2162  -29.5292   20.6983 H         1 6M3         0.0288
     36 H10        30.9168  -27.9790   19.8416 H         1 6M3         0.0288
     37 H11        31.3053  -30.6740   18.4331 H         1 6M3         0.0294
     38 H12        32.6349  -29.5099   18.7551 H         1 6M3         0.0294
     39 H13        32.0200  -29.2194   16.4439 H         1 6M3         0.0651
     40 H14        26.9560  -27.6029   19.9579 H         1 6M3         0.0324
     41 H15        29.6913  -30.3361   16.8748 H         1 6M3         0.0874
     42 H16        30.3065  -26.9959   15.0954 H         1 6M3         0.0584
     43 H17        30.1514  -26.7144   12.6209 H         1 6M3         0.0702
     44 H18        30.6441  -27.1813   17.9452 H         1 6M3         0.2102
@<TRIPOS>BOND
     1    1   12 1  
     2   16    1 1  
     3    1   18 2  
     4   16    2 1  
     5    2   17 2  
     6    4    3 ar 
     7    3   23 ar 
     8    4    5 1  
     9   20    4 ar 
    10    5    7 ar 
    11    5   11 ar 
    12   23    6 1  
    13    6   24 3  
    14    7    8 ar 
    15    7   26 1  
    16    8    9 ar 
    17   10    9 ar 
    18   11   10 ar 
    19   12   13 1  
    20   14   13 1  
    21   15   14 1  
    22   19   15 1  
    23   15   25 1  
    24   19   16 1  
    25   17   18 1  
    26   19   20 1  
    27   20   21 ar 
    28   21   22 ar 
    29   22   23 ar 
    30    2   27 1  
    31    3   28 1  
    32    8   29 1  
    33    9   30 1  
    34   10   31 1  
    35   11   32 1  
    36   12   33 1  
    37   12   34 1  
    38   13   35 1  
    39   13   36 1  
    40   14   37 1  
    41   14   38 1  
    42   15   39 1  
    43   18   40 1  
    44   19   41 1  
    45   21   42 1  
    46   22   43 1  
    47   25   44 1  
@<TRIPOS>SUBSTRUCTURE
     1 6M3         1

