### 
### Created by X-TOOL on Sun Sep  9 21:54:29 2018
### 

@<TRIPOS>MOLECULE
5jop_ligand
   93    96     1     0     0
SMALL
GAST_HUCK


@<TRIPOS>ATOM
      1 C1        -28.0560   74.2880   45.2710 C.3       1 NON         0.1884
      2 C2        -29.2390   74.8070   44.4590 C.3       1 NON         0.1341
      3 C3        -29.9620   75.9010   45.2690 C.3       1 NON         0.1141
      4 C4        -30.4980   75.4270   46.6380 C.3       1 NON         0.1119
      5 C5        -29.3880   74.7840   47.4370 C.3       1 NON         0.1130
      6 C6        -30.3470   74.0390   48.3960 C.3       1 NON         0.0730
      7 O1        -27.5850   73.1850   44.4560 O.3       1 NON        -0.3401
      8 O2        -28.7160   75.4250   43.2760 O.3       1 NON        -0.3841
      9 O3        -30.9870   76.5110   44.4710 O.3       1 NON        -0.3864
     10 O4        -31.4950   74.3600   46.8470 O.3       1 NON        -0.3865
     11 O5        -28.5070   73.8700   46.6170 O.3       1 NON        -0.3405
     12 O6        -29.3410   73.5290   49.3100 O.3       1 NON        -0.3924
     13 C2        -25.3720   70.2240   45.3000 C.3       1 NON         0.1341
     14 C3        -26.6910   70.9570   44.9980 C.3       1 NON         0.1144
     15 C4        -26.4230   72.4690   44.9290 C.3       1 NON         0.1184
     16 C5        -25.3570   72.8290   43.8820 C.3       1 NON         0.1134
     17 C6        -24.8880   74.2900   43.9670 C.3       1 NON         0.0730
     18 C1        -24.3050   70.6090   44.2770 C.3       1 NON         0.1880
     19 O1        -22.9960   70.2050   44.7070 O.3       1 NON        -0.3460
     20 O2        -25.5250   68.7990   45.2450 O.3       1 NON        -0.3841
     21 O3        -27.6730   70.7620   46.0160 O.3       1 NON        -0.3864
     22 O5        -24.1950   72.0640   44.2600 O.3       1 NON        -0.3405
     23 O6        -24.9650   74.6750   42.5950 O.3       1 NON        -0.3924
     24 C1        -19.0660   70.0180   45.8380 C.3       1 NON         0.1823
     25 C2        -19.2390   68.6560   46.5670 C.3       1 NON         0.1208
     26 C3        -19.7250   67.5380   45.6040 C.3       1 NON         0.1114
     27 C4        -21.0190   68.0740   44.9700 C.3       1 NON         0.1182
     28 C5        -20.7780   69.3970   44.2130 C.3       1 NON         0.1137
     29 C6        -22.0220   70.0420   43.6040 C.3       1 NON         0.0796
     30 C7        -16.8000   68.0810   46.4510 C.2       1 NON         0.1733
     31 C8        -15.5910   67.7450   47.3480 C.3       1 NON         0.0257
     32 N2        -17.9320   68.3060   47.1520 N.am      1 NON        -0.2766
     33 O1        -18.7110   71.0320   46.7850 O.3       1 NON        -0.3651
     34 O3        -19.9950   66.3740   46.4340 O.3       1 NON        -0.3867
     35 O4        -21.4930   67.1360   43.9420 O.3       1 NON        -0.3401
     36 O5        -20.3290   70.4030   45.2060 O.3       1 NON        -0.3409
     37 O7        -16.7230   68.0850   45.2100 O.2       1 NON        -0.3974
     38 C1        -22.8450   66.6850   44.1510 C.3       1 NON         0.1884
     39 C2        -23.1740   65.8740   42.8780 C.3       1 NON         0.1341
     40 C3        -24.4090   64.9640   43.0980 C.3       1 NON         0.1141
     41 C4        -24.3950   64.1340   44.4090 C.3       1 NON         0.1119
     42 C5        -24.1170   65.0880   45.5870 C.3       1 NON         0.1130
     43 C6        -24.0120   64.4050   46.9540 C.3       1 NON         0.0730
     44 O2        -23.4790   66.8480   41.8410 O.3       1 NON        -0.3841
     45 O3        -24.4610   64.0920   41.9600 O.3       1 NON        -0.3864
     46 O4        -23.3220   63.1760   44.3780 O.3       1 NON        -0.3865
     47 O5        -22.8520   65.8050   45.3200 O.3       1 NON        -0.3405
     48 O6        -23.9450   65.4500   47.9240 O.3       1 NON        -0.3924
     49 H1        -27.2746   75.0552   45.3749 H         1 NON         0.0938
     50 H2        -29.9281   73.9878   44.2062 H         1 NON         0.0671
     51 H3        -29.2147   76.6790   45.4837 H         1 NON         0.0648
     52 H4        -30.8696   76.3351   47.1352 H         1 NON         0.0647
     53 H5        -28.7559   75.5194   47.9563 H         1 NON         0.0647
     54 H6        -30.9016   73.2339   47.8919 H         1 NON         0.0584
     55 H7        -31.0563   74.7188   48.8907 H         1 NON         0.0584
     56 H8        -28.2628   74.7736   42.7537 H         1 NON         0.2101
     57 H9        -30.6177   76.7875   43.6405 H         1 NON         0.2100
     58 H10       -32.3013   74.5897   46.4004 H         1 NON         0.2100
     59 H11       -29.7637   73.0243   49.9948 H         1 NON         0.2095
     60 H12       -25.0347   70.5113   46.3068 H         1 NON         0.0671
     61 H13       -27.0859   70.5986   44.0359 H         1 NON         0.0648
     62 H14       -26.1225   72.8242   45.9257 H         1 NON         0.0651
     63 H15       -25.7104   72.5893   42.8683 H         1 NON         0.0647
     64 H16       -23.8599   74.3636   44.3511 H         1 NON         0.0584
     65 H17       -25.5584   74.8946   44.5954 H         1 NON         0.0584
     66 H18       -24.5525   70.1968   43.2877 H         1 NON         0.0937
     67 H19       -25.7947   68.5441   44.3705 H         1 NON         0.2101
     68 H20       -27.3375   71.0849   46.8440 H         1 NON         0.2100
     69 H21       -24.6945   75.5813   42.5059 H         1 NON         0.2095
     70 H22       -18.2790   69.9290   45.0747 H         1 NON         0.0932
     71 H23       -19.9807   68.7693   47.3713 H         1 NON         0.0633
     72 H24       -18.9758   67.3042   44.8333 H         1 NON         0.0645
     73 H25       -21.7794   68.2130   45.7526 H         1 NON         0.0650
     74 H26       -20.0207   69.2323   43.4324 H         1 NON         0.0647
     75 H27       -21.7691   71.0219   43.1728 H         1 NON         0.0587
     76 H28       -22.4408   69.3936   42.8203 H         1 NON         0.0587
     77 H29       -14.7046   67.5735   46.7195 H         1 NON         0.0467
     78 H30       -15.8080   66.8380   47.9313 H         1 NON         0.0467
     79 H31       -15.3981   68.5839   48.0328 H         1 NON         0.0467
     80 H32       -17.8795   68.2290   48.1477 H         1 NON         0.1857
     81 H33       -18.6113   71.8629   46.3352 H         1 NON         0.2126
     82 H34       -20.3804   65.6888   45.9007 H         1 NON         0.2100
     83 H35       -23.5431   67.5239   44.2885 H         1 NON         0.0938
     84 H36       -22.3099   65.2585   42.5874 H         1 NON         0.0671
     85 H37       -25.3083   65.5972   43.1154 H         1 NON         0.0648
     86 H38       -25.3598   63.6229   44.5424 H         1 NON         0.0647
     87 H39       -24.9408   65.8153   45.6351 H         1 NON         0.0647
     88 H40       -23.1049   63.7846   47.0004 H         1 NON         0.0584
     89 H41       -24.8962   63.7758   47.1336 H         1 NON         0.0584
     90 H42       -23.6899   66.3938   41.0337 H         1 NON         0.2101
     91 H43       -24.4691   64.6114   41.1646 H         1 NON         0.2100
     92 H44       -22.4969   63.6303   44.2542 H         1 NON         0.2100
     93 H45       -23.1821   65.9900   47.7539 H         1 NON         0.2095
@<TRIPOS>BOND
     1    1    2 1  
     2    7    1 1  
     3    1   11 1  
     4    2    3 1  
     5    2    8 1  
     6    3    4 1  
     7    3    9 1  
     8    5    4 1  
     9    4   10 1  
    10    5    6 1  
    11   11    5 1  
    12    6   12 1  
    13   15    7 1  
    14   13   14 1  
    15   18   13 1  
    16   13   20 1  
    17   14   15 1  
    18   14   21 1  
    19   16   15 1  
    20   16   17 1  
    21   22   16 1  
    22   17   23 1  
    23   19   18 1  
    24   18   22 1  
    25   29   19 1  
    26   25   24 1  
    27   24   33 1  
    28   24   36 1  
    29   25   26 1  
    30   32   25 1  
    31   26   27 1  
    32   26   34 1  
    33   27   28 1  
    34   27   35 1  
    35   28   29 1  
    36   36   28 1  
    37   30   31 1  
    38   30   32 am 
    39   30   37 2  
    40   35   38 1  
    41   38   39 1  
    42   38   47 1  
    43   39   40 1  
    44   39   44 1  
    45   40   41 1  
    46   40   45 1  
    47   41   42 1  
    48   41   46 1  
    49   42   43 1  
    50   42   47 1  
    51   43   48 1  
    52    1   49 1  
    53    2   50 1  
    54    3   51 1  
    55    4   52 1  
    56    5   53 1  
    57    6   54 1  
    58    6   55 1  
    59    8   56 1  
    60    9   57 1  
    61   10   58 1  
    62   12   59 1  
    63   13   60 1  
    64   14   61 1  
    65   15   62 1  
    66   16   63 1  
    67   17   64 1  
    68   17   65 1  
    69   18   66 1  
    70   20   67 1  
    71   21   68 1  
    72   23   69 1  
    73   24   70 1  
    74   25   71 1  
    75   26   72 1  
    76   27   73 1  
    77   28   74 1  
    78   29   75 1  
    79   29   76 1  
    80   31   77 1  
    81   31   78 1  
    82   31   79 1  
    83   32   80 1  
    84   33   81 1  
    85   34   82 1  
    86   38   83 1  
    87   39   84 1  
    88   40   85 1  
    89   41   86 1  
    90   42   87 1  
    91   43   88 1  
    92   43   89 1  
    93   44   90 1  
    94   45   91 1  
    95   46   92 1  
    96   48   93 1  
@<TRIPOS>SUBSTRUCTURE
     1 NON         1

