### 
### Created by X-TOOL on Mon Sep 10 21:13:27 2018
### 

@<TRIPOS>MOLECULE
5jox_ligand
   21    21     1     0     0
SMALL
GAST_HUCK


@<TRIPOS>ATOM
      1 O2'       306.0500  219.8570  329.5000 O.3       1 EDG        -0.3837
      2 C2'       305.1480  220.1800  330.5350 C.3       1 EDG         0.1258
      3 C1'       304.3600  218.9280  330.9110 C.3       1 EDG        -0.0039
      4 N4'       304.4610  218.8340  332.3560 N.4       1 EDG         0.2346
      5 C3'       305.8660  220.5960  331.8230 C.3       1 EDG         0.1303
      6 O3'       306.0680  221.9960  331.9270 O.3       1 EDG        -0.3833
      7 C4'       304.9140  220.1200  332.9170 C.3       1 EDG         0.0302
      8 C5'       305.5420  219.9870  334.2890 C.3       1 EDG         0.0893
      9 O5'       306.4780  218.9190  334.3550 O.3       1 EDG        -0.3894
     10 H1        306.5450  220.6314  329.2597 H         1 EDG         0.2101
     11 H2        304.4750  220.9823  330.1982 H         1 EDG         0.0675
     12 H3        304.7988  218.0387  330.4351 H         1 EDG         0.0840
     13 H4        303.3085  219.0272  330.6036 H         1 EDG         0.0840
     14 H5        305.1229  218.1132  332.5978 H         1 EDG         0.2019
     15 H6        303.5577  218.6029  332.7390 H         1 EDG         0.2019
     16 H7        306.8389  220.0883  331.8990 H         1 EDG         0.0679
     17 H8        306.5963  222.2938  331.1958 H         1 EDG         0.2102
     18 H9        304.0668  220.8159  333.0057 H         1 EDG         0.0900
     19 H10       304.7458  219.8050  335.0259 H         1 EDG         0.0614
     20 H11       306.0599  220.9262  334.5331 H         1 EDG         0.0614
     21 H12       307.1741  219.0702  333.7264 H         1 EDG         0.2097
@<TRIPOS>BOND
     1    1    2 1  
     2    2    3 1  
     3    2    5 1  
     4    3    4 1  
     5    4    7 1  
     6    5    6 1  
     7    5    7 1  
     8    7    8 1  
     9    8    9 1  
    10    1   10 1  
    11    2   11 1  
    12    3   12 1  
    13    3   13 1  
    14    4   14 1  
    15    4   15 1  
    16    5   16 1  
    17    6   17 1  
    18    7   18 1  
    19    8   19 1  
    20    8   20 1  
    21    9   21 1  
@<TRIPOS>SUBSTRUCTURE
     1 EDG         1

