### 
### Created by X-TOOL on Mon Sep 10 21:13:32 2018
### 

@<TRIPOS>MOLECULE
5jq5_ligand
   60    63     1     0     0
SMALL
GAST_HUCK


@<TRIPOS>ATOM
      1 O1          0.2680  -11.2240  -24.7900 O.3       1 I74        -0.3862
      2 C42        -0.8390  -10.3830  -24.5500 C.3       1 I74         0.0996
      3 C43        -0.6800   -9.7690  -23.1590 C.3       1 I74        -0.0067
      4 N44        -1.5670   -8.6010  -23.0700 N.4       1 I74         0.2288
      5 C45        -1.4990   -7.5600  -24.0730 C.3       1 I74        -0.0332
      6 C46        -1.5270   -8.0470  -25.5270 C.3       1 I74        -0.0054
      7 C41        -0.7070   -9.3540  -25.6580 C.3       1 I74         0.0150
      8 C40        -0.8260   -9.9410  -27.0550 C.3       1 I74         0.0342
      9 N18         0.4970   -9.7550  -27.6230 N.pl3     1 I74        -0.3068
     10 C5          0.9460   -8.5600  -28.1540 C.2       1 I74         0.0846
     11 C4          2.2050   -8.4690  -28.7810 C.2       1 I74         0.0368
     12 C3          2.6010   -7.2160  -29.3140 C.2       1 I74         0.2158
     13 N2          1.7230   -6.1660  -29.2550 N.pl3     1 I74        -0.1275
     14 N1          1.9790   -4.8730  -29.6900 N.2       1 I74        -0.2274
     15 C9          0.8900   -4.1330  -29.3280 C.2       1 I74        -0.0250
     16 C8         -0.0060   -5.0130  -28.6980 C.2       1 I74        -0.0307
     17 C26        -1.3370   -4.5360  -28.1640 C.3       1 I74        -0.0357
     18 C28        -2.5370   -5.4560  -28.4440 C.3       1 I74        -0.0607
     19 C27        -1.2940   -4.4060  -26.6170 C.3       1 I74        -0.0607
     20 C7          0.5750   -6.2890  -28.6280 C.2       1 I74         0.1315
     21 N6          0.1420   -7.4640  -28.1030 N.2       1 I74        -0.2990
     22 N10         3.7740   -7.0460  -29.9140 N.pl3     1 I74        -0.2612
     23 C11         4.9130   -7.8980  -29.5650 C.3       1 I74         0.0691
     24 C12         5.0170   -8.9480  -30.6350 C.ar      1 I74        -0.0199
     25 C17         4.9420  -10.2850  -30.2710 C.ar      1 I74        -0.0583
     26 C16         5.0260  -11.2410  -31.2690 C.ar      1 I74        -0.0685
     27 C15         5.1900  -10.8780  -32.6250 C.ar      1 I74        -0.0687
     28 C14         5.2500   -9.5260  -32.9960 C.ar      1 I74        -0.0685
     29 C13         5.1770   -8.5720  -31.9820 C.ar      1 I74        -0.0583
     30 H1          0.1861  -11.6152  -25.6518 H         1 I74         0.2100
     31 H2         -1.7946  -10.9236  -24.6184 H         1 I74         0.0650
     32 H3          0.3637   -9.4567  -23.0066 H         1 I74         0.0839
     33 H4         -0.9577  -10.5070  -22.3920 H         1 I74         0.0839
     34 H5         -1.3807   -8.1616  -22.1822 H         1 I74         0.2014
     35 H6         -2.5118   -8.9522  -23.0794 H         1 I74         0.2014
     36 H7         -0.5639   -7.0013  -23.9199 H         1 I74         0.0814
     37 H8         -2.3566   -6.8876  -23.9234 H         1 I74         0.0814
     38 H9         -1.0913   -7.2756  -26.1790 H         1 I74         0.0321
     39 H10        -2.5676   -8.2370  -25.8286 H         1 I74         0.0321
     40 H11         0.3389   -9.0224  -25.5798 H         1 I74         0.0349
     41 H12        -1.5840   -9.4027  -27.6429 H         1 I74         0.0524
     42 H13        -1.0867  -11.0087  -27.0105 H         1 I74         0.0524
     43 H14         1.1388  -10.5605  -27.6309 H         1 I74         0.1831
     44 H15         2.8567   -9.3384  -28.8542 H         1 I74         0.0368
     45 H16         0.7442   -3.0668  -29.4953 H         1 I74         0.0579
     46 H17        -1.5379   -3.5516  -28.6118 H         1 I74         0.0344
     47 H18        -3.4470   -5.0131  -28.0130 H         1 I74         0.0242
     48 H19        -2.3578   -6.4412  -27.9888 H         1 I74         0.0242
     49 H20        -2.6647   -5.5717  -29.5304 H         1 I74         0.0242
     50 H21        -0.4548   -3.7567  -26.3268 H         1 I74         0.0242
     51 H22        -1.1592   -5.4015  -26.1690 H         1 I74         0.0242
     52 H23        -2.2374   -3.9676  -26.2595 H         1 I74         0.0242
     53 H24         3.8829   -6.3116  -30.6279 H         1 I74         0.1964
     54 H25         4.7457   -8.3709  -28.5861 H         1 I74         0.0697
     55 H26         5.8359   -7.3004  -29.5306 H         1 I74         0.0697
     56 H27         4.8209  -10.5732  -29.2331 H         1 I74         0.0557
     57 H28         4.9647  -12.2905  -31.0046 H         1 I74         0.0599
     58 H29         5.2699  -11.6487  -33.3831 H         1 I74         0.0559
     59 H30         5.3497   -9.2335  -34.0350 H         1 I74         0.0599
     60 H31         5.2448   -7.5203  -32.2358 H         1 I74         0.0557
@<TRIPOS>BOND
     1    1    2 1  
     2    2    3 1  
     3    2    7 1  
     4    3    4 1  
     5    4    5 1  
     6    5    6 1  
     7    6    7 1  
     8    7    8 1  
     9    8    9 1  
    10    9   10 1  
    11   10   11 1  
    12   10   21 2  
    13   11   12 2  
    14   12   13 1  
    15   12   22 1  
    16   13   14 1  
    17   13   20 1  
    18   14   15 2  
    19   15   16 1  
    20   16   17 1  
    21   16   20 2  
    22   17   18 1  
    23   17   19 1  
    24   20   21 1  
    25   22   23 1  
    26   23   24 1  
    27   24   25 ar 
    28   24   29 ar 
    29   25   26 ar 
    30   26   27 ar 
    31   27   28 ar 
    32   28   29 ar 
    33    1   30 1  
    34    2   31 1  
    35    3   32 1  
    36    3   33 1  
    37    4   34 1  
    38    4   35 1  
    39    5   36 1  
    40    5   37 1  
    41    6   38 1  
    42    6   39 1  
    43    7   40 1  
    44    8   41 1  
    45    8   42 1  
    46    9   43 1  
    47   11   44 1  
    48   15   45 1  
    49   17   46 1  
    50   18   47 1  
    51   18   48 1  
    52   18   49 1  
    53   19   50 1  
    54   19   51 1  
    55   19   52 1  
    56   22   53 1  
    57   23   54 1  
    58   23   55 1  
    59   25   56 1  
    60   26   57 1  
    61   27   58 1  
    62   28   59 1  
    63   29   60 1  
@<TRIPOS>SUBSTRUCTURE
     1 I74         1

