### 
### Created by X-TOOL on Mon Sep 10 21:13:29 2018
### 

@<TRIPOS>MOLECULE
5jq7_ligand
   58    60     1     0     0
SMALL
GAST_HUCK


@<TRIPOS>ATOM
      1 C11       -43.4020   16.1750   -8.9080 C.ar      1 T0R        -0.0340
      2 C14       -47.5330   11.8160   -8.9550 C.ar      1 T0R        -0.0594
      3 CL        -47.2800   11.8800   -5.1730 Cl        1 T0R        -0.1227
      4 C9        -46.4430   10.5210   -5.9650 C.3       1 T0R         0.0335
      5 C4        -45.2490   10.9200   -6.8340 C.3       1 T0R        -0.0023
      6 C2        -44.9820   12.3960   -7.1270 C.2       1 T0R        -0.0245
      7 C6        -44.0870   13.0980   -6.1380 C.ar      1 T0R        -0.0151
      8 C16       -42.7220   12.8040   -6.1340 C.ar      1 T0R        -0.0530
      9 C22       -41.8600   13.4400   -5.2390 C.ar      1 T0R        -0.0608
     10 C24       -42.3620   14.3790   -4.3410 C.ar      1 T0R        -0.0615
     11 C21       -43.7240   14.6750   -4.3440 C.ar      1 T0R        -0.0608
     12 C15       -44.5870   14.0400   -5.2390 C.ar      1 T0R        -0.0530
     13 C1        -45.4430   13.0510   -8.2270 C.2       1 T0R        -0.0180
     14 C5        -46.3100   12.4050   -9.2760 C.ar      1 T0R        -0.0291
     15 C20       -48.3140   11.2330   -9.9530 C.ar      1 T0R        -0.0650
     16 C23       -47.8890   11.2440  -11.2840 C.ar      1 T0R        -0.0652
     17 C19       -46.6720   11.8360  -11.6120 C.ar      1 T0R        -0.0650
     18 C13       -45.8890   12.4170  -10.6100 C.ar      1 T0R        -0.0594
     19 C3        -45.1010   14.4970   -8.5140 C.ar      1 T0R        -0.0367
     20 C8        -46.0820   15.4680   -8.7360 C.ar      1 T0R        -0.0658
     21 C12       -45.7230   16.7920   -9.0270 C.ar      1 T0R        -0.0340
     22 C10       -44.3720   17.1510   -9.1150 C.ar      1 T0R         0.0907
     23 C7        -43.7590   14.8650   -8.6280 C.ar      1 T0R        -0.0658
     24 O         -43.8950   18.4150   -9.3840 O.3       1 T0R        -0.3130
     25 C18       -44.6310   19.5510   -9.8220 C.3       1 T0R         0.1101
     26 C17       -43.7650   20.7880   -9.5930 C.3       1 T0R        -0.0039
     27 N         -44.2120   21.8780  -10.4830 N.4       1 T0R         0.2328
     28 C26       -43.0880   22.7650  -10.8380 C.3       1 T0R        -0.0433
     29 C25       -45.2960   22.6590   -9.8570 C.3       1 T0R        -0.0433
     30 H1        -42.3532   16.4426   -8.9665 H         1 T0R         0.0543
     31 H2        -47.8775   11.8113   -7.9272 H         1 T0R         0.0591
     32 H3        -47.1699    9.9966   -6.6027 H         1 T0R         0.0456
     33 H4        -46.0826    9.8381   -5.1816 H         1 T0R         0.0456
     34 H5        -45.3815   10.4214   -7.8055 H         1 T0R         0.0461
     35 H6        -44.3491   10.5258   -6.3392 H         1 T0R         0.0461
     36 H7        -42.3279   12.0749   -6.8326 H         1 T0R         0.0629
     37 H8        -40.8021   13.2036   -5.2428 H         1 T0R         0.0618
     38 H9        -41.6974   14.8766   -3.6440 H         1 T0R         0.0619
     39 H10       -44.1167   15.4047   -3.6452 H         1 T0R         0.0618
     40 H11       -45.6444   14.2787   -5.2353 H         1 T0R         0.0629
     41 H12       -49.2582   10.7677   -9.6939 H         1 T0R         0.0608
     42 H13       -48.5027   10.7946  -12.0563 H         1 T0R         0.0589
     43 H14       -46.3326   11.8463  -12.6415 H         1 T0R         0.0608
     44 H15       -44.9449   12.8821  -10.8698 H         1 T0R         0.0591
     45 H16       -47.1297   15.1950   -8.6827 H         1 T0R         0.0573
     46 H17       -46.4926   17.5391   -9.1841 H         1 T0R         0.0543
     47 H18       -42.9861   14.1166   -8.4958 H         1 T0R         0.0573
     48 H19       -45.5644   19.6364   -9.2462 H         1 T0R         0.0668
     49 H20       -44.8677   19.4533  -10.8918 H         1 T0R         0.0668
     50 H21       -42.7146   20.5449   -9.8112 H         1 T0R         0.0841
     51 H22       -43.8568   21.1102   -8.5453 H         1 T0R         0.0841
     52 H23       -44.5685   21.4646  -11.3304 H         1 T0R         0.2029
     53 H24       -43.4482   23.5662  -11.5001 H         1 T0R         0.0777
     54 H25       -42.3111   22.1832  -11.3556 H         1 T0R         0.0777
     55 H26       -42.6666   23.2071   -9.9231 H         1 T0R         0.0777
     56 H27       -46.1280   21.9882   -9.5967 H         1 T0R         0.0777
     57 H28       -45.6499   23.4256  -10.5620 H         1 T0R         0.0777
     58 H29       -44.9183   23.1454   -8.9456 H         1 T0R         0.0777
@<TRIPOS>BOND
     1    1   22 ar 
     2   23    1 ar 
     3   14    2 ar 
     4    2   15 ar 
     5    4    3 1  
     6    5    4 1  
     7    6    5 1  
     8    6    7 1  
     9   13    6 2  
    10    7    8 ar 
    11    7   12 ar 
    12    8    9 ar 
    13    9   10 ar 
    14   11   10 ar 
    15   12   11 ar 
    16   13   14 1  
    17   19   13 1  
    18   14   18 ar 
    19   15   16 ar 
    20   17   16 ar 
    21   18   17 ar 
    22   19   20 ar 
    23   19   23 ar 
    24   20   21 ar 
    25   21   22 ar 
    26   22   24 1  
    27   24   25 1  
    28   25   26 1  
    29   26   27 1  
    30   27   28 1  
    31   27   29 1  
    32    1   30 1  
    33    2   31 1  
    34    4   32 1  
    35    4   33 1  
    36    5   34 1  
    37    5   35 1  
    38    8   36 1  
    39    9   37 1  
    40   10   38 1  
    41   11   39 1  
    42   12   40 1  
    43   15   41 1  
    44   16   42 1  
    45   17   43 1  
    46   18   44 1  
    47   20   45 1  
    48   21   46 1  
    49   23   47 1  
    50   25   48 1  
    51   25   49 1  
    52   26   50 1  
    53   26   51 1  
    54   27   52 1  
    55   28   53 1  
    56   28   54 1  
    57   28   55 1  
    58   29   56 1  
    59   29   57 1  
    60   29   58 1  
@<TRIPOS>SUBSTRUCTURE
     1 T0R         1

