### 
### Created by X-TOOL on Mon Sep 10 21:13:33 2018
### 

@<TRIPOS>MOLECULE
5jq8_ligand
   60    63     1     0     0
SMALL
GAST_HUCK


@<TRIPOS>ATOM
      1 O1         -0.6310   -9.5640  -22.1670 O.3       1 I73        -0.3862
      2 C42        -0.6600   -8.9500  -23.5110 C.3       1 I73         0.0996
      3 C43        -1.6080   -7.7540  -23.4660 C.3       1 I73        -0.0067
      4 N44        -2.9860   -8.2180  -23.2050 N.4       1 I73         0.2288
      5 C45        -3.5510   -9.1970  -24.1320 C.3       1 I73        -0.0332
      6 C46        -2.5660  -10.3800  -24.3320 C.3       1 I73        -0.0054
      7 C41        -1.1130   -9.9560  -24.5960 C.3       1 I73         0.0150
      8 C40        -1.0530   -9.4500  -26.0550 C.3       1 I73         0.0342
      9 N18         0.2790   -9.2180  -26.6270 N.pl3     1 I73        -0.3068
     10 C5          0.6520   -8.0420  -27.2140 C.2       1 I73         0.0846
     11 C4          1.8890   -7.8890  -27.8620 C.2       1 I73         0.0368
     12 C3          2.3070   -6.6650  -28.4750 C.2       1 I73         0.2158
     13 N2          1.4580   -5.6280  -28.4360 N.pl3     1 I73        -0.1275
     14 N1          1.6160   -4.3140  -28.9520 N.2       1 I73        -0.2274
     15 C9          0.4660   -3.6340  -28.6010 C.2       1 I73        -0.0250
     16 C8         -0.3200   -4.6080  -27.9450 C.2       1 I73        -0.0307
     17 C26        -1.6130   -4.6540  -27.1890 C.3       1 I73        -0.0357
     18 C28        -1.6650   -3.7970  -25.9140 C.3       1 I73        -0.0607
     19 C27        -2.9320   -4.9900  -27.8830 C.3       1 I73        -0.0607
     20 C7          0.3080   -5.8090  -27.8080 C.2       1 I73         0.1315
     21 N6         -0.1650   -6.9570  -27.1930 N.2       1 I73        -0.2990
     22 N10         3.5140   -6.5650  -29.0870 N.pl3     1 I73        -0.2612
     23 C11         4.5870   -7.5200  -28.6980 C.3       1 I73         0.0691
     24 C12         4.7020   -8.6660  -29.7080 C.ar      1 I73        -0.0199
     25 C17         4.4260   -9.9850  -29.3480 C.ar      1 I73        -0.0583
     26 C16         4.5190  -11.0330  -30.2940 C.ar      1 I73        -0.0685
     27 C15         4.8850  -10.7490  -31.6320 C.ar      1 I73        -0.0687
     28 C14         5.1460   -9.4210  -31.9780 C.ar      1 I73        -0.0685
     29 C13         5.0520   -8.4030  -31.0240 C.ar      1 I73        -0.0583
     30 H1         -0.0452  -10.3119  -22.1743 H         1 I73         0.2100
     31 H2          0.3516   -8.5994  -23.7634 H         1 I73         0.0650
     32 H3         -1.5768   -7.2266  -24.4308 H         1 I73         0.0839
     33 H4         -1.2949   -7.0697  -22.6637 H         1 I73         0.0839
     34 H5         -3.5857   -7.4079  -23.2177 H         1 I73         0.2014
     35 H6         -2.9975   -8.6303  -22.2853 H         1 I73         0.2014
     36 H7         -3.7382   -8.7127  -25.1017 H         1 I73         0.0814
     37 H8         -4.4984   -9.5787  -23.7238 H         1 I73         0.0814
     38 H9         -2.9123  -10.9752  -25.1898 H         1 I73         0.0321
     39 H10        -2.5840  -11.0005  -23.4239 H         1 I73         0.0321
     40 H11        -0.4601  -10.8378  -24.5179 H         1 I73         0.0349
     41 H12        -1.6030   -8.4984  -26.0988 H         1 I73         0.0524
     42 H13        -1.5594  -10.1956  -26.6856 H         1 I73         0.0524
     43 H14         0.9685   -9.9819  -26.5835 H         1 I73         0.1831
     44 H15         2.5629   -8.7436  -27.8998 H         1 I73         0.0368
     45 H16         0.2217   -2.5892  -28.7868 H         1 I73         0.0579
     46 H17        -1.4623   -5.6330  -26.7107 H         1 I73         0.0344
     47 H18        -2.6521   -3.9037  -25.4405 H         1 I73         0.0242
     48 H19        -1.4953   -2.7418  -26.1743 H         1 I73         0.0242
     49 H20        -0.8849   -4.1323  -25.2148 H         1 I73         0.0242
     50 H21        -2.7318   -5.6043  -28.7733 H         1 I73         0.0242
     51 H22        -3.4348   -4.0595  -28.1851 H         1 I73         0.0242
     52 H23        -3.5790   -5.5482  -27.1904 H         1 I73         0.0242
     53 H24         3.6835   -5.8451  -29.8039 H         1 I73         0.1964
     54 H25         4.3541   -7.9371  -27.7072 H         1 I73         0.0697
     55 H26         5.5462   -6.9833  -28.6537 H         1 I73         0.0697
     56 H27         4.1359  -10.2105  -28.3282 H         1 I73         0.0557
     57 H28         4.3100  -12.0536  -29.9944 H         1 I73         0.0599
     58 H29         4.9607  -11.5410  -32.3683 H         1 I73         0.0559
     59 H30         5.4244   -9.1771  -32.9969 H         1 I73         0.0599
     60 H31         5.2582   -7.3810  -31.3209 H         1 I73         0.0557
@<TRIPOS>BOND
     1    1    2 1  
     2    2    3 1  
     3    2    7 1  
     4    3    4 1  
     5    4    5 1  
     6    5    6 1  
     7    6    7 1  
     8    7    8 1  
     9    8    9 1  
    10    9   10 1  
    11   10   11 1  
    12   10   21 2  
    13   11   12 2  
    14   12   13 1  
    15   12   22 1  
    16   13   14 1  
    17   13   20 1  
    18   14   15 2  
    19   15   16 1  
    20   16   17 1  
    21   16   20 2  
    22   17   18 1  
    23   17   19 1  
    24   20   21 1  
    25   22   23 1  
    26   23   24 1  
    27   24   25 ar 
    28   24   29 ar 
    29   25   26 ar 
    30   26   27 ar 
    31   27   28 ar 
    32   28   29 ar 
    33    1   30 1  
    34    2   31 1  
    35    3   32 1  
    36    3   33 1  
    37    4   34 1  
    38    4   35 1  
    39    5   36 1  
    40    5   37 1  
    41    6   38 1  
    42    6   39 1  
    43    7   40 1  
    44    8   41 1  
    45    8   42 1  
    46    9   43 1  
    47   11   44 1  
    48   15   45 1  
    49   17   46 1  
    50   18   47 1  
    51   18   48 1  
    52   18   49 1  
    53   19   50 1  
    54   19   51 1  
    55   19   52 1  
    56   22   53 1  
    57   23   54 1  
    58   23   55 1  
    59   25   56 1  
    60   26   57 1  
    61   27   58 1  
    62   28   59 1  
    63   29   60 1  
@<TRIPOS>SUBSTRUCTURE
     1 I73         1

