### 
### Created by X-TOOL on Mon Sep 10 21:13:29 2018
### 

@<TRIPOS>MOLECULE
5jq9_ligand
   49    52     1     0     0
SMALL
GAST_HUCK


@<TRIPOS>ATOM
      1 C01        15.4460   16.0960  115.3170 C.ar      1 6MB         0.1482
      2 C02        16.3390   16.6690  116.2650 C.ar      1 6MB         0.0962
      3 N01        16.4820   16.0330  117.5020 N.ar      1 6MB        -0.2812
      4 C03        15.7750   14.9440  117.6920 C.ar      1 6MB         0.0345
      5 C04        14.8750   14.3660  116.7230 C.ar      1 6MB         0.0728
      6 N02        14.7160   14.9510  115.5460 N.ar      1 6MB        -0.2646
      7 C05        14.1160   13.1070  117.0790 C.3       1 6MB         0.0752
      8 C06        15.3740   16.8270  114.0890 C.2       1 6MB         0.2597
      9 N03        17.0850   17.8110  116.0750 N.2       1 6MB        -0.2823
     10 N04        16.0650   17.9430  113.8250 N.am      1 6MB        -0.1727
     11 C07        16.9110   18.3990  114.8500 C.2       1 6MB         0.2384
     12 O01        14.5650   16.3780  113.1260 O.2       1 6MB        -0.3771
     13 N05        17.6150   19.5420  114.5740 N.pl3     1 6MB        -0.2777
     14 N06        12.7050   13.2740  117.3470 N.pl3     1 6MB        -0.3096
     15 C08        11.6640   12.5560  116.7240 C.ar      1 6MB         0.0398
     16 C09        11.7140   11.1770  116.5140 C.ar      1 6MB        -0.0425
     17 C10        10.6650   10.5040  115.9000 C.ar      1 6MB        -0.0465
     18 C11         9.5290   11.1470  115.4510 C.ar      1 6MB         0.1011
     19 C12         9.4650   12.5150  115.6690 C.ar      1 6MB        -0.0465
     20 C13        10.4990   13.2140  116.2810 C.ar      1 6MB        -0.0425
     21 S01         8.1720   10.3280  114.6950 S.o2      1 6MB         0.0869
     22 N07         6.8890    9.5020  115.5040 N.am      1 6MB        -0.1544
     23 C14         6.8060    9.1650  116.8490 C.2       1 6MB         0.2356
     24 O02         7.6970   11.1090  113.3780 O.2       1 6MB        -0.1459
     25 O03         8.9010    9.1300  113.8670 O.2       1 6MB        -0.1459
     26 C15         5.9600    9.5200  117.9020 C.2       1 6MB        -0.0076
     27 C16         6.4980    8.8050  119.0310 C.2       1 6MB        -0.0052
     28 N08         7.5790    8.1050  118.6430 N.2       1 6MB        -0.1983
     29 O04         7.7780    8.3190  117.3370 O.3       1 6MB        -0.1749
     30 C17         4.7950   10.4020  117.8650 C.3       1 6MB        -0.0545
     31 C18         6.0070    8.7850  120.4290 C.3       1 6MB        -0.0338
     32 H1         15.8742   14.4414  118.6473 H         1 6MB         0.0871
     33 H2         14.5809   12.6761  117.9780 H         1 6MB         0.0700
     34 H3         14.2185   12.4031  116.2399 H         1 6MB         0.0700
     35 H4         15.9839   18.4228  112.9514 H         1 6MB         0.2533
     36 H5         18.2553   19.9353  115.2785 H         1 6MB         0.1916
     37 H6         17.5038   20.0078  113.6621 H         1 6MB         0.1916
     38 H7         12.4382   13.9761  118.0519 H         1 6MB         0.1784
     39 H8         12.5871   10.6210  116.8358 H         1 6MB         0.0515
     40 H9         10.7417    9.4308  115.7682 H         1 6MB         0.0602
     41 H10         8.5808   13.0563  115.3522 H         1 6MB         0.0602
     42 H11        10.4076   14.2851  116.4201 H         1 6MB         0.0515
     43 H12         6.1115    9.2338  114.9351 H         1 6MB         0.2220
     44 H13         4.6587   10.7867  116.8435 H         1 6MB         0.0263
     45 H14         4.9502   11.2436  118.5560 H         1 6MB         0.0263
     46 H15         3.8994    9.8395  118.1675 H         1 6MB         0.0263
     47 H16         6.6535    8.1336  121.0354 H         1 6MB         0.0364
     48 H17         4.9764    8.4010  120.4502 H         1 6MB         0.0364
     49 H18         6.0267    9.8055  120.8392 H         1 6MB         0.0364
@<TRIPOS>BOND
     1    1    2 ar 
     2    1    6 ar 
     3    1    8 1  
     4    2    3 ar 
     5    2    9 1  
     6    3    4 ar 
     7    4    5 ar 
     8    5    6 ar 
     9    5    7 1  
    10    7   14 1  
    11    8   10 am 
    12    8   12 2  
    13    9   11 2  
    14   10   11 am 
    15   11   13 1  
    16   14   15 1  
    17   15   16 ar 
    18   15   20 ar 
    19   16   17 ar 
    20   17   18 ar 
    21   18   19 ar 
    22   18   21 1  
    23   19   20 ar 
    24   21   22 1  
    25   21   24 2  
    26   21   25 2  
    27   22   23 1  
    28   23   26 2  
    29   23   29 1  
    30   26   27 1  
    31   26   30 1  
    32   27   28 2  
    33   27   31 1  
    34   28   29 1  
    35    4   32 1  
    36    7   33 1  
    37    7   34 1  
    38   10   35 1  
    39   13   36 1  
    40   13   37 1  
    41   14   38 1  
    42   16   39 1  
    43   17   40 1  
    44   19   41 1  
    45   20   42 1  
    46   22   43 1  
    47   30   44 1  
    48   30   45 1  
    49   30   46 1  
    50   31   47 1  
    51   31   48 1  
    52   31   49 1  
@<TRIPOS>SUBSTRUCTURE
     1 6MB         1

