### 
### Created by X-TOOL on Mon Sep 10 21:13:28 2018
### 

@<TRIPOS>MOLECULE
5jqb_ligand
   32    32     1     0     0
SMALL
GAST_HUCK


@<TRIPOS>ATOM
      1 C1        -44.2350   15.9020   -8.1560 C.2       1 IBP         0.0481
      2 C2        -47.9180   11.1120   -5.8210 C.3       1 IBP        -0.0199
      3 C3        -47.9090   10.8310   -4.3150 C.3       1 IBP        -0.0379
      4 C4        -49.1760   10.0840   -3.9110 C.3       1 IBP        -0.0610
      5 C5        -46.6820   10.0320   -3.8920 C.3       1 IBP        -0.0610
      6 C6        -43.7710   14.4710   -8.1680 C.3       1 IBP         0.0390
      7 C7        -42.4210   14.2780   -7.4610 C.3       1 IBP        -0.0419
      8 C8        -44.8240   13.6260   -7.5450 C.ar      1 IBP        -0.0341
      9 C9        -45.5950   12.7710   -8.3340 C.ar      1 IBP        -0.0649
     10 C10       -46.5830   11.9780   -7.7460 C.ar      1 IBP        -0.0665
     11 C11       -46.8230   12.0200   -6.3670 C.ar      1 IBP        -0.0493
     12 C12       -46.0500   12.8850   -5.5810 C.ar      1 IBP        -0.0665
     13 C13       -45.0610   13.6770   -6.1670 C.ar      1 IBP        -0.0649
     14 O1        -43.7930   16.7110   -7.3070 O.co2     1 IBP        -0.5663
     15 O2        -45.0750   16.2280   -9.0210 O.co2     1 IBP        -0.5663
     16 H1        -48.8849   11.5762   -6.0652 H         1 IBP         0.0416
     17 H2        -47.8344   10.1449   -6.3385 H         1 IBP         0.0416
     18 H3        -47.8888   11.7960   -3.7874 H         1 IBP         0.0316
     19 H4        -49.1571    9.8886   -2.8287 H         1 IBP         0.0234
     20 H5        -49.2281    9.1294   -4.4550 H         1 IBP         0.0234
     21 H6        -50.0566   10.6953   -4.1579 H         1 IBP         0.0234
     22 H7        -45.7717   10.5751   -4.1857 H         1 IBP         0.0234
     23 H8        -46.6971    9.0485   -4.3845 H         1 IBP         0.0234
     24 H9        -46.6915    9.8957   -2.8005 H         1 IBP         0.0234
     25 H10       -43.6474   14.1593   -9.2156 H         1 IBP         0.0608
     26 H11       -41.6618   14.9132   -7.9407 H         1 IBP         0.0270
     27 H12       -42.1162   13.2236   -7.5340 H         1 IBP         0.0270
     28 H13       -42.5182   14.5591   -6.4020 H         1 IBP         0.0270
     29 H14       -45.4269   12.7224   -9.4038 H         1 IBP         0.0542
     30 H15       -47.1753   11.3175   -8.3689 H         1 IBP         0.0540
     31 H16       -46.2209   12.9395   -4.5119 H         1 IBP         0.0540
     32 H17       -44.4690   14.3400   -5.5465 H         1 IBP         0.0542
@<TRIPOS>BOND
     1    6    1 1  
     2    1   14 ar 
     3    1   15 ar 
     4    2    3 1  
     5   11    2 1  
     6    3    4 1  
     7    3    5 1  
     8    6    7 1  
     9    8    6 1  
    10    9    8 ar 
    11    8   13 ar 
    12   10    9 ar 
    13   10   11 ar 
    14   11   12 ar 
    15   12   13 ar 
    16    2   16 1  
    17    2   17 1  
    18    3   18 1  
    19    4   19 1  
    20    4   20 1  
    21    4   21 1  
    22    5   22 1  
    23    5   23 1  
    24    5   24 1  
    25    6   25 1  
    26    7   26 1  
    27    7   27 1  
    28    7   28 1  
    29    9   29 1  
    30   10   30 1  
    31   12   31 1  
    32   13   32 1  
@<TRIPOS>SUBSTRUCTURE
     1 IBP         1

