### 
### Created by X-TOOL on Mon Sep 10 21:13:28 2018
### 

@<TRIPOS>MOLECULE
5jr6_ligand
   67    69     1     0     0
SMALL
GAST_HUCK


@<TRIPOS>ATOM
      1 C1        -38.4050   72.1810  241.4610 C.3       1 01B         0.0291
      2 C2        -37.1010   71.8890  242.1430 C.3       1 01B         0.1884
      3 N2        -38.4890   73.5750  241.3590 N.4       1 01B         0.2258
      4 O2        -36.2700   73.0170  242.0060 O.3       1 01B        -0.3664
      5 C3        -36.3990   70.7650  241.4720 C.2       1 01B         0.2155
      6 C6        -39.5180   71.6460  242.3530 C.3       1 01B         0.0287
      7 C7        -40.7810   71.2550  241.5050 C.ar      1 01B        -0.0374
      8 C8        -40.9430   71.7670  240.2640 C.ar      1 01B        -0.0601
      9 C9        -42.1710   71.3960  239.4230 C.ar      1 01B        -0.0686
     10 C10       -43.1150   70.5420  239.9290 C.ar      1 01B        -0.0687
     11 C11       -42.9400   69.9670  241.3230 C.ar      1 01B        -0.0686
     12 C12       -41.8430   70.2950  242.0720 C.ar      1 01B        -0.0601
     13 O3        -36.4820   70.6290  240.2560 O.2       1 01B        -0.3936
     14 N         -35.5980   69.8610  242.2970 N.am      1 PRO        -0.2494
     15 CA        -34.8150   68.7050  241.8510 C.3       1 PRO         0.1340
     16 C         -35.4400   67.8670  240.8080 C.2       1 PRO         0.2066
     17 O         -36.6360   67.5630  240.8750 O.2       1 PRO        -0.3942
     18 CB        -34.6480   67.8900  243.1150 C.3       1 PRO        -0.0104
     19 CG        -34.6420   68.8820  244.2240 C.3       1 PRO        -0.0281
     20 CD        -35.4780   70.0100  243.7070 C.3       1 PRO         0.0370
     21 N         -34.5870   67.3720  239.6850 N.am      1 PRO        -0.2498
     22 CA        -35.0550   66.5160  238.5920 C.3       1 PRO         0.1338
     23 C         -35.4390   65.1560  239.1350 C.2       1 PRO         0.2041
     24 O         -36.3490   64.5310  238.6330 O.2       1 PRO        -0.3944
     25 CB        -33.9060   66.4500  237.6090 C.3       1 PRO        -0.0104
     26 CG        -32.7180   67.0260  238.3110 C.3       1 PRO        -0.0281
     27 CD        -33.1870   67.6590  239.5340 C.3       1 PRO         0.0369
     28 N         -34.6610   64.6370  240.3070 N.am      1 ALA        -0.2640
     29 CA        -34.9380   63.3440  240.9240 C.3       1 ALA         0.1279
     30 C         -34.6860   62.2330  239.9270 C.2       1 ALA         0.1989
     31 O         -35.6200   61.7800  239.2360 O.2       1 ALA        -0.3947
     32 CB        -36.3530   63.2930  241.4630 C.3       1 ALA        -0.0244
     33 N         -33.3330   61.6870  239.7770 N.am      1 NH2        -0.2990
     34 H1        -38.4503   71.7138  240.4662 H         1 01B         0.0926
     35 H2        -37.2738   71.6550  243.2038 H         1 01B         0.0898
     36 H3        -39.3528   73.8272  240.9048 H         1 01B         0.2001
     37 H4        -37.7117   73.9198  240.8178 H         1 01B         0.2001
     38 H5        -38.4631   73.9816  242.2810 H         1 01B         0.2001
     39 H6        -36.6887   73.7683  242.4094 H         1 01B         0.2136
     40 H7        -39.7995   72.4212  243.0808 H         1 01B         0.0484
     41 H8        -39.1541   70.7561  242.8874 H         1 01B         0.0484
     42 H9        -40.1994   72.4447  239.8604 H         1 01B         0.0557
     43 H10       -42.2918   71.8096  238.4283 H         1 01B         0.0599
     44 H11       -43.9834   70.2779  239.3364 H         1 01B         0.0559
     45 H12       -43.6874   69.2936  241.7268 H         1 01B         0.0599
     46 H13       -41.7214   69.8787  243.0655 H         1 01B         0.0557
     47 H14       -33.8390   69.0479  241.4772 H         1 PRO         0.0802
     48 H15       -33.7000   67.3326  243.0916 H         1 PRO         0.0313
     49 H16       -35.4847   67.1857  243.2327 H         1 PRO         0.0313
     50 H17       -33.6180   69.2213  244.4393 H         1 PRO         0.0287
     51 H18       -35.0851   68.4527  245.1347 H         1 PRO         0.0287
     52 H19       -36.4746   69.9787  244.1714 H         1 PRO         0.0524
     53 H20       -34.9945   70.9700  243.9407 H         1 PRO         0.0524
     54 H21       -35.9333   66.9651  238.1053 H         1 PRO         0.0802
     55 H22       -34.1397   67.0394  236.7101 H         1 PRO         0.0313
     56 H23       -33.7097   65.4063  237.3224 H         1 PRO         0.0313
     57 H24       -32.2287   67.7720  237.6676 H         1 PRO         0.0287
     58 H25       -32.0031   66.2262  238.5542 H         1 PRO         0.0287
     59 H26       -32.6310   67.2605  240.3954 H         1 PRO         0.0524
     60 H27       -33.0354   68.7467  239.4711 H         1 PRO         0.0524
     61 H28       -33.9232   65.1992  240.6806 H         1 ALA         0.1883
     62 H29       -34.2474   63.2099  241.7696 H         1 ALA         0.0797
     63 H30       -36.5354   62.3100  241.9217 H         1 ALA         0.0277
     64 H31       -37.0650   63.4511  240.6396 H         1 ALA         0.0277
     65 H32       -36.4860   64.0808  242.2191 H         1 ALA         0.0277
     66 H33       -33.1600   60.9531  239.1202 H         1 NH2         0.1815
     67 H34       -32.5835   62.0487  240.3315 H         1 NH2         0.1815
@<TRIPOS>BOND
     1    1    2 1  
     2    1    3 1  
     3    1    6 1  
     4    2    4 1  
     5    2    5 1  
     6    5   13 2  
     7    5   14 am 
     8    6    7 1  
     9    7    8 ar 
    10    7   12 ar 
    11    8    9 ar 
    12    9   10 ar 
    13   10   11 ar 
    14   11   12 ar 
    15   14   15 1  
    16   14   20 1  
    17   15   16 1  
    18   15   18 1  
    19   16   17 2  
    20   16   21 am 
    21   18   19 1  
    22   19   20 1  
    23   21   22 1  
    24   21   27 1  
    25   22   23 1  
    26   22   25 1  
    27   23   24 2  
    28   23   28 am 
    29   25   26 1  
    30   26   27 1  
    31   28   29 1  
    32   29   30 1  
    33   29   32 1  
    34   30   31 2  
    35   30   33 am 
    36    1   34 1  
    37    2   35 1  
    38    3   36 1  
    39    3   37 1  
    40    3   38 1  
    41    4   39 1  
    42    6   40 1  
    43    6   41 1  
    44    8   42 1  
    45    9   43 1  
    46   10   44 1  
    47   11   45 1  
    48   12   46 1  
    49   15   47 1  
    50   18   48 1  
    51   18   49 1  
    52   19   50 1  
    53   19   51 1  
    54   20   52 1  
    55   20   53 1  
    56   22   54 1  
    57   25   55 1  
    58   25   56 1  
    59   26   57 1  
    60   26   58 1  
    61   27   59 1  
    62   27   60 1  
    63   28   61 1  
    64   29   62 1  
    65   32   63 1  
    66   32   64 1  
    67   32   65 1  
    68   33   66 1  
    69   33   67 1  
@<TRIPOS>SUBSTRUCTURE
     1 01B         1

