### 
### Created by X-TOOL on Mon Sep 10 21:13:28 2018
### 

@<TRIPOS>MOLECULE
5jrq_ligand
   55    58     1     0     0
SMALL
GAST_HUCK


@<TRIPOS>ATOM
      1 C10       -10.4450   -6.8120  -32.5600 C.ar      1 6N9        -0.0421
      2 C13       -11.6020   -4.3180  -32.1300 C.ar      1 6N9         0.1647
      3 C17       -10.7510   -4.5200  -28.6820 C.2       1 6N9         0.0411
      4 C20        -9.4930   -4.0680  -26.8730 C.ar      1 6N9         0.1409
      5 C22        -9.4010   -4.4060  -29.0450 C.2       1 6N9         0.0538
      6 C24       -11.5200   -4.0230  -24.9390 C.ar      1 6N9        -0.0127
      7 C28       -12.3340   -4.4380  -22.4930 C.ar      1 6N9        -0.0626
      8 C01        -7.0830   -2.9590  -36.1460 C.3       1 6N9        -0.0637
      9 C02        -8.5340   -2.8410  -35.6770 C.3       1 6N9        -0.0342
     10 C03        -9.3020   -3.9630  -36.3470 C.3       1 6N9         0.0894
     11 S04       -11.0330   -3.9550  -35.9640 S.o2      1 6N9         0.0588
     12 N05       -11.3920   -3.6890  -34.3760 N.am      1 6N9        -0.1922
     13 O06       -11.7500   -3.0430  -36.8050 O.2       1 6N9        -0.1502
     14 O07       -11.5480   -5.2340  -36.3940 O.2       1 6N9        -0.1502
     15 C08       -11.1820   -4.6790  -33.4000 C.ar      1 6N9         0.0978
     16 C09       -10.6020   -5.9130  -33.6320 C.ar      1 6N9        -0.0439
     17 C11       -10.8850   -6.4370  -31.2720 C.ar      1 6N9         0.1310
     18 C12       -11.4700   -5.2020  -31.0720 C.ar      1 6N9         0.0790
     19 F14       -12.1520   -3.1060  -31.9980 F         1 6N9        -0.1907
     20 F15       -10.7640   -7.2570  -30.2190 F         1 6N9        -0.1929
     21 C16       -11.9080   -4.8170  -29.6620 C.2       1 6N9         0.1305
     22 O18       -13.0870   -4.7550  -29.3270 O.2       1 6N9        -0.3915
     23 C19       -10.8220   -4.3070  -27.2680 C.ar      1 6N9         0.0167
     24 N21        -8.6980   -4.1380  -27.9410 N.pl3     1 6N9        -0.2554
     25 C23       -11.7750   -4.2610  -26.2900 C.ar      1 6N9        -0.0484
     26 C25       -10.1860   -3.8010  -24.6010 C.ar      1 6N9         0.0012
     27 N26        -9.2330   -3.8340  -25.5570 N.ar      1 6N9        -0.2844
     28 C27       -12.5700   -3.9790  -23.8710 C.ar      1 6N9        -0.0286
     29 C29       -13.2940   -4.3790  -21.5160 C.ar      1 6N9        -0.0319
     30 C30       -14.4620   -3.9060  -21.7340 C.ar      1 6N9         0.0918
     31 C31       -14.8100   -3.4510  -22.9050 C.ar      1 6N9        -0.0319
     32 C32       -13.9350   -3.4550  -23.9840 C.ar      1 6N9        -0.0626
     33 O33       -15.3610   -3.8810  -20.6460 O.3       1 6N9        -0.3205
     34 C34       -16.7080   -4.2480  -20.9400 C.3       1 6N9         0.0597
     35 H1         -9.9907   -7.7828  -32.7220 H         1 6N9         0.0539
     36 H2         -8.9969   -4.5165  -30.0502 H         1 6N9         0.1098
     37 H3        -11.3597   -4.8399  -22.2396 H         1 6N9         0.0594
     38 H4         -6.4824   -2.1616  -35.6841 H         1 6N9         0.0230
     39 H5         -7.0424   -2.8611  -37.2409 H         1 6N9         0.0230
     40 H6         -6.6806   -3.9391  -35.8503 H         1 6N9         0.0230
     41 H7         -8.9502   -1.8670  -35.9739 H         1 6N9         0.0279
     42 H8         -8.5884   -2.9450  -34.5833 H         1 6N9         0.0279
     43 H9         -8.8762   -4.9224  -36.0181 H         1 6N9         0.0523
     44 H10        -9.1851   -3.8641  -37.4363 H         1 6N9         0.0523
     45 H11       -11.7674   -2.8038  -34.1014 H         1 6N9         0.2130
     46 H12       -10.2720   -6.1849  -34.6281 H         1 6N9         0.0496
     47 H13        -7.6771   -4.0033  -27.9180 H         1 6N9         0.2359
     48 H14       -12.8055   -4.4213  -26.5856 H         1 6N9         0.0658
     49 H15        -9.9137   -3.6019  -23.5708 H         1 6N9         0.0749
     50 H16       -13.0547   -4.7460  -20.5245 H         1 6N9         0.0546
     51 H17       -15.8112   -3.0581  -23.0407 H         1 6N9         0.0546
     52 H18       -14.2706   -3.0598  -24.9360 H         1 6N9         0.0594
     53 H19       -17.3119   -4.1919  -20.0223 H         1 6N9         0.0578
     54 H20       -16.7309   -5.2756  -21.3318 H         1 6N9         0.0578
     55 H21       -17.1198   -3.5594  -21.6925 H         1 6N9         0.0578
@<TRIPOS>BOND
     1    1   16 ar 
     2   17    1 ar 
     3    2   15 ar 
     4   18    2 ar 
     5    2   19 1  
     6    3    5 2  
     7    3   21 1  
     8   23    3 1  
     9   23    4 ar 
    10    4   24 1  
    11    4   27 ar 
    12   24    5 1  
    13   25    6 ar 
    14    6   26 ar 
    15    6   28 1  
    16   28    7 ar 
    17    7   29 ar 
    18    9    8 1  
    19   10    9 1  
    20   11   10 1  
    21   12   11 am 
    22   11   13 2  
    23   11   14 2  
    24   15   12 1  
    25   15   16 ar 
    26   18   17 ar 
    27   17   20 1  
    28   21   18 1  
    29   21   22 2  
    30   23   25 ar 
    31   26   27 ar 
    32   28   32 ar 
    33   29   30 ar 
    34   30   31 ar 
    35   30   33 1  
    36   31   32 ar 
    37   33   34 1  
    38    1   35 1  
    39    5   36 1  
    40    7   37 1  
    41    8   38 1  
    42    8   39 1  
    43    8   40 1  
    44    9   41 1  
    45    9   42 1  
    46   10   43 1  
    47   10   44 1  
    48   12   45 1  
    49   16   46 1  
    50   24   47 1  
    51   25   48 1  
    52   26   49 1  
    53   29   50 1  
    54   31   51 1  
    55   32   52 1  
    56   34   53 1  
    57   34   54 1  
    58   34   55 1  
@<TRIPOS>SUBSTRUCTURE
     1 6N9         1

