### 
### Created by X-TOOL on Mon Sep 10 21:13:29 2018
### 

@<TRIPOS>MOLECULE
5jrs_ligand
   61    66     1     0     0
SMALL
GAST_HUCK


@<TRIPOS>ATOM
      1 C13        11.1070   10.9160    1.6330 C.ar      1 6MV        -0.0423
      2 C17        11.0070   14.1780   -0.3920 C.3       1 6MV         0.0405
      3 C19        11.4930   14.0810   -1.8270 C.3       1 6MV        -0.0652
      4 C20        11.3820   15.5220    0.2080 C.3       1 6MV        -0.0652
      5 C21        11.0540    7.8760    4.6870 C.ar      1 6MV        -0.0640
      6 C22         9.8590    7.1820    4.8040 C.ar      1 6MV        -0.0715
      7 C23         9.2340    6.6530    3.6870 C.ar      1 6MV        -0.0285
      8 C24         9.8150    6.8300    2.4290 C.ar      1 6MV         0.1476
      9 C11        11.5290   13.0070    0.4450 C.ar      1 6MV        -0.0400
     10 C12        10.6660   11.9900    0.8690 C.ar      1 6MV        -0.0545
     11 C34         7.3880    4.4180   -1.9500 C.ar      1 6MV        -0.0494
     12 C33         8.6130    7.1610    0.3170 C.2       1 6MV         0.2617
     13 C1         14.5870   10.4180    2.7490 C.ar      1 6MV         0.0956
     14 C2         13.2740    9.8880    2.7410 C.ar      1 6MV         0.0282
     15 C3         13.0130    8.6740    3.4110 C.ar      1 6MV        -0.0132
     16 C4         14.0650    8.0330    4.0710 C.ar      1 6MV        -0.0563
     17 C5         15.3440    8.5690    4.0740 C.ar      1 6MV        -0.0475
     18 C6         15.6420    9.7610    3.4070 C.ar      1 6MV         0.0759
     19 N7         14.6020   11.5900    2.0200 N.pl3     1 6MV        -0.2615
     20 C8         13.3230   11.8520    1.5530 C.ar      1 6MV         0.0972
     21 C9         12.4570   10.8260    1.9760 C.ar      1 6MV         0.0256
     22 C10        12.8750   12.9360    0.7900 C.ar      1 6MV        -0.0145
     23 C14        16.9950   10.3950    3.4830 C.2       1 6MV         0.1965
     24 O15        17.1310   11.5590    3.1540 O.2       1 6MV        -0.3914
     25 N16        18.0070    9.6930    3.9970 N.am      1 6MV        -0.3021
     26 O18         9.5670   14.1250   -0.4960 O.3       1 6MV        -0.4306
     27 C25        11.0540    7.5170    2.3200 C.ar      1 6MV         0.1754
     28 C26        11.6650    8.0350    3.4470 C.ar      1 6MV         0.0120
     29 F27        11.6290    7.6780    1.1160 F         1 6MV        -0.1855
     30 N28         9.1700    6.2930    1.2560 N.am      1 6MV        -0.1362
     31 C29         9.1070    4.9310    1.1040 C.2       1 6MV         0.1482
     32 N30         8.5850    4.2990    0.1190 N.2       1 6MV        -0.2906
     33 C31         7.9820    5.0720   -0.8710 C.ar      1 6MV         0.0265
     34 C32         7.9630    6.4710   -0.8160 C.ar      1 6MV         0.0694
     35 C35         6.7940    5.1480   -2.9650 C.ar      1 6MV        -0.0641
     36 C36         6.7660    6.5300   -2.9080 C.ar      1 6MV        -0.0632
     37 C37         7.3480    7.2000   -1.8380 C.ar      1 6MV        -0.0474
     38 O38         8.6990    8.3660    0.4220 O.2       1 6MV        -0.3755
     39 H1         10.4082   10.1544    1.9598 H         1 6MV         0.0647
     40 H2         11.1040   14.9328   -2.4042 H         1 6MV         0.0145
     41 H3         11.1344   13.1416   -2.2729 H         1 6MV         0.0145
     42 H4         12.5927   14.0985   -1.8437 H         1 6MV         0.0145
     43 H5         11.0220   15.5733    1.2462 H         1 6MV         0.0145
     44 H6         10.9197   16.3281   -0.3806 H         1 6MV         0.0145
     45 H7         12.4758   15.6379    0.1931 H         1 6MV         0.0145
     46 H8         11.5171    8.2991    5.5711 H         1 6MV         0.0535
     47 H9          9.4087    7.0520    5.7815 H         1 6MV         0.0562
     48 H10         8.3030    6.1069    3.7879 H         1 6MV         0.0554
     49 H11         9.6192   12.0417    0.5924 H         1 6MV         0.0710
     50 H12         7.3915    3.3349   -1.9940 H         1 6MV         0.0576
     51 H13        13.8778    7.0999    4.5900 H         1 6MV         0.0549
     52 H14        16.1328    8.0506    4.6071 H         1 6MV         0.0667
     53 H15        15.4314   12.1766    1.8500 H         1 6MV         0.2200
     54 H16        13.5660   13.7086    0.4726 H         1 6MV         0.0794
     55 H17        18.9186   10.0998    4.0561 H         1 6MV         0.1803
     56 H18        17.8537    8.7602    4.3230 H         1 6MV         0.1803
     57 H19         9.1845   14.2181    0.3686 H         1 6MV         0.1938
     58 H20         9.5435    4.3276    1.8985 H         1 6MV         0.1537
     59 H21         6.3484    4.6341   -3.8090 H         1 6MV         0.0632
     60 H22         6.2880    7.0931   -3.7014 H         1 6MV         0.0571
     61 H23         7.3250    8.2830   -1.7963 H         1 6MV         0.0649
@<TRIPOS>BOND
     1    1   10 ar 
     2   21    1 ar 
     3    2    3 1  
     4    2    4 1  
     5    9    2 1  
     6    2   26 1  
     7    6    5 ar 
     8   28    5 ar 
     9    7    6 ar 
    10    8    7 ar 
    11    8   27 ar 
    12   30    8 1  
    13   10    9 ar 
    14   22    9 ar 
    15   33   11 ar 
    16   11   35 ar 
    17   30   12 am 
    18   12   34 1  
    19   12   38 2  
    20   14   13 ar 
    21   13   18 ar 
    22   13   19 1  
    23   15   14 ar 
    24   14   21 1  
    25   15   16 ar 
    26   28   15 1  
    27   16   17 ar 
    28   17   18 ar 
    29   18   23 1  
    30   20   19 1  
    31   21   20 ar 
    32   20   22 ar 
    33   23   24 2  
    34   23   25 am 
    35   27   28 ar 
    36   27   29 1  
    37   31   30 1  
    38   32   31 2  
    39   32   33 1  
    40   33   34 ar 
    41   34   37 ar 
    42   35   36 ar 
    43   36   37 ar 
    44    1   39 1  
    45    3   40 1  
    46    3   41 1  
    47    3   42 1  
    48    4   43 1  
    49    4   44 1  
    50    4   45 1  
    51    5   46 1  
    52    6   47 1  
    53    7   48 1  
    54   10   49 1  
    55   11   50 1  
    56   16   51 1  
    57   17   52 1  
    58   19   53 1  
    59   22   54 1  
    60   25   55 1  
    61   25   56 1  
    62   26   57 1  
    63   31   58 1  
    64   35   59 1  
    65   36   60 1  
    66   37   61 1  
@<TRIPOS>SUBSTRUCTURE
     1 6MV         1

