### 
### Created by X-TOOL on Mon Sep 10 21:13:32 2018
### 

@<TRIPOS>MOLECULE
5jsg_ligand
   96   101     1     0     0
SMALL
GAST_HUCK


@<TRIPOS>ATOM
      1 C15        11.4030   44.3780   20.1600 C.3       1 6P9         0.0334
      2 C12        13.0380   50.5570   15.7600 C.3       1 6P9        -0.0077
      3 C11        13.5370   50.4450   17.2000 C.3       1 6P9        -0.0077
      4 C10        13.3940   48.9690   17.5900 C.3       1 6P9        -0.0317
      5 C13        12.2500   49.2850   15.4800 C.3       1 6P9        -0.0317
      6 C14        12.5720   45.1460   19.5090 C.3       1 6P9        -0.0295
      7 O01         8.8480   42.4550   18.4840 O.2       1 6P9        -0.3898
      8 C02         9.7170   42.6930   19.2710 C.2       1 6P9         0.2028
      9 N03        10.3510   43.9680   19.2700 N.am      1 6P9        -0.2740
     10 C04         9.9910   45.0510   18.3470 C.3       1 6P9         0.0334
     11 C05        11.1280   45.3220   17.3610 C.3       1 6P9        -0.0295
     12 C06        12.5410   45.2330   17.9640 C.3       1 6P9        -0.0326
     13 C07        13.4270   46.3950   17.5320 C.3       1 6P9        -0.0096
     14 C08        12.8910   47.0870   16.2670 C.3       1 6P9        -0.0316
     15 N09        12.3180   48.4110   16.7150 N.4       1 6P9         0.2352
     16 C16        10.1680   41.6250   20.2690 C.ar      1 6P9         0.0754
     17 C17         9.4170   41.1920   21.4160 C.ar      1 6P9         0.0844
     18 N18         8.1290   41.7770   21.6910 N.pl3     1 6P9        -0.2702
     19 C19         7.2080   41.6120   22.8130 C.ar      1 6P9         0.0596
     20 C20         5.8090   41.5560   22.6250 C.ar      1 6P9        -0.0394
     21 C21         4.9180   41.4030   23.6940 C.ar      1 6P9        -0.0721
     22 C22         5.3690   41.2980   25.0030 C.ar      1 6P9        -0.0739
     23 C23         6.7390   41.3510   25.2210 C.ar      1 6P9        -0.0721
     24 C24         7.6370   41.5080   24.1630 C.ar      1 6P9        -0.0394
     25 C25         9.9930   40.1730   22.2490 C.ar      1 6P9        -0.0142
     26 C26        11.2630   39.5580   22.0440 C.ar      1 6P9         0.0439
     27 C27        11.8700   38.4470   22.9470 C.2       1 6P9         0.2074
     28 N28        11.6840   37.0500   22.7070 N.am      1 6P9        -0.2720
     29 C29        12.2630   35.9250   23.5450 C.3       1 6P9         0.0337
     30 C30        12.9980   34.8600   22.6750 C.3       1 6P9        -0.0295
     31 C31        12.1260   34.3080   21.5620 C.3       1 6P9        -0.0326
     32 C32        12.8470   33.3050   20.7160 C.3       1 6P9        -0.0096
     33 C33        11.8720   32.7390   19.6490 C.3       1 6P9        -0.0316
     34 N34        12.6640   31.9220   18.7320 N.4       1 6P9         0.2352
     35 C35        13.0670   30.7880   19.6010 C.3       1 6P9        -0.0317
     36 C36        13.0990   29.5550   18.6870 C.3       1 6P9        -0.0077
     37 C37        12.4210   29.9830   17.3820 C.3       1 6P9        -0.0077
     38 C38        11.7540   31.3020   17.7230 C.3       1 6P9        -0.0317
     39 C39        11.6470   35.4840   20.7300 C.3       1 6P9        -0.0295
     40 C40        10.8990   36.4810   21.6140 C.3       1 6P9         0.0337
     41 O41        12.5470   38.7670   23.8880 O.2       1 6P9        -0.3828
     42 C42        11.9150   40.0280   20.9180 C.ar      1 6P9        -0.0489
     43 C43        11.4100   41.0030   20.0750 C.ar      1 6P9        -0.0470
     44 H1         10.9600   45.0269   20.9298 H         1 6P9         0.0521
     45 H2         11.8149   43.4750   20.6342 H         1 6P9         0.0521
     46 H3         13.8887   50.6380   15.0674 H         1 6P9         0.0319
     47 H4         12.3896   51.4387   15.6492 H         1 6P9         0.0319
     48 H5         12.9280   51.0755   17.8645 H         1 6P9         0.0319
     49 H6         14.5903   50.7556   17.2636 H         1 6P9         0.0319
     50 H7         13.1095   48.8798   18.6488 H         1 6P9         0.0814
     51 H8         14.3405   48.4354   17.4184 H         1 6P9         0.0814
     52 H9         12.6898   48.7545   14.6226 H         1 6P9         0.0814
     53 H10        11.2024   49.5361   15.2577 H         1 6P9         0.0814
     54 H11        13.5080   44.6471   19.8005 H         1 6P9         0.0287
     55 H12        12.5645   46.1721   19.9053 H         1 6P9         0.0287
     56 H13         9.7885   45.9651   18.9244 H         1 6P9         0.0521
     57 H14         9.0888   44.7634   17.7873 H         1 6P9         0.0521
     58 H15        10.9932   46.3348   16.9534 H         1 6P9         0.0287
     59 H16        11.0569   44.5864   16.5463 H         1 6P9         0.0287
     60 H17        12.9897   44.3071   17.5751 H         1 6P9         0.0304
     61 H18        14.4383   46.0139   17.3271 H         1 6P9         0.0319
     62 H19        13.4709   47.1311   18.3482 H         1 6P9         0.0319
     63 H20        12.1076   46.4721   15.8000 H         1 6P9         0.0814
     64 H21        13.7071   47.2497   15.5476 H         1 6P9         0.0814
     65 H22        11.4282   48.3266   17.1810 H         1 6P9         0.2033
     66 H23         7.7980   42.4291   20.9656 H         1 6P9         0.2104
     67 H24         5.4121   41.6341   21.6193 H         1 6P9         0.0531
     68 H25         3.8530   41.3657   23.4955 H         1 6P9         0.0586
     69 H26         4.6748   41.1787   25.8269 H         1 6P9         0.0515
     70 H27         7.1194   41.2689   26.2327 H         1 6P9         0.0586
     71 H28         8.6982   41.5520   24.3796 H         1 6P9         0.0531
     72 H29         9.4140   39.8444   23.1045 H         1 6P9         0.0592
     73 H30        11.4447   35.4327   24.0909 H         1 6P9         0.0522
     74 H31        12.9790   36.3508   24.2633 H         1 6P9         0.0522
     75 H32        13.3076   34.0280   23.3246 H         1 6P9         0.0287
     76 H33        13.8879   35.3257   22.2264 H         1 6P9         0.0287
     77 H34        11.2543   33.8096   22.0111 H         1 6P9         0.0304
     78 H35        13.2138   32.4848   21.3506 H         1 6P9         0.0319
     79 H36        13.6980   33.7902   20.2156 H         1 6P9         0.0319
     80 H37        11.3925   33.5635   19.1011 H         1 6P9         0.0814
     81 H38        11.1002   32.1223   20.1327 H         1 6P9         0.0814
     82 H39        13.4334   32.4210   18.3137 H         1 6P9         0.2033
     83 H40        12.3358   30.6464   20.4105 H         1 6P9         0.0814
     84 H41        14.0618   30.9708   20.0333 H         1 6P9         0.0814
     85 H42        12.5488   28.7219   19.1487 H         1 6P9         0.0319
     86 H43        14.1376   29.2473   18.4956 H         1 6P9         0.0319
     87 H44        11.6747   29.2385   17.0679 H         1 6P9         0.0319
     88 H45        13.1642   30.1172   16.5822 H         1 6P9         0.0319
     89 H46        11.6696   31.9389   16.8301 H         1 6P9         0.0814
     90 H47        10.7541   31.1347   18.1499 H         1 6P9         0.0814
     91 H48        10.9730   35.1207   19.9402 H         1 6P9         0.0287
     92 H49        12.5137   35.9827   20.2717 H         1 6P9         0.0287
     93 H50        10.5521   37.3079   20.9770 H         1 6P9         0.0522
     94 H51        10.0309   35.9652   22.0503 H         1 6P9         0.0522
     95 H52        12.8845   39.6053   20.6804 H         1 6P9         0.0576
     96 H53        12.0058   41.3014   19.2200 H         1 6P9         0.0646
@<TRIPOS>BOND
     1    6    1 1  
     2    1    9 1  
     3    2    3 1  
     4    5    2 1  
     5    4    3 1  
     6   15    4 1  
     7   15    5 1  
     8   12    6 1  
     9    8    7 2  
    10    9    8 am 
    11    8   16 1  
    12   10    9 1  
    13   11   10 1  
    14   12   11 1  
    15   13   12 1  
    16   14   13 1  
    17   14   15 1  
    18   16   17 ar 
    19   16   43 ar 
    20   17   18 1  
    21   17   25 ar 
    22   18   19 1  
    23   19   20 ar 
    24   19   24 ar 
    25   20   21 ar 
    26   21   22 ar 
    27   22   23 ar 
    28   23   24 ar 
    29   25   26 ar 
    30   26   27 1  
    31   26   42 ar 
    32   27   28 am 
    33   27   41 2  
    34   28   29 1  
    35   28   40 1  
    36   29   30 1  
    37   30   31 1  
    38   31   32 1  
    39   31   39 1  
    40   32   33 1  
    41   33   34 1  
    42   34   35 1  
    43   34   38 1  
    44   35   36 1  
    45   36   37 1  
    46   37   38 1  
    47   39   40 1  
    48   42   43 ar 
    49    1   44 1  
    50    1   45 1  
    51    2   46 1  
    52    2   47 1  
    53    3   48 1  
    54    3   49 1  
    55    4   50 1  
    56    4   51 1  
    57    5   52 1  
    58    5   53 1  
    59    6   54 1  
    60    6   55 1  
    61   10   56 1  
    62   10   57 1  
    63   11   58 1  
    64   11   59 1  
    65   12   60 1  
    66   13   61 1  
    67   13   62 1  
    68   14   63 1  
    69   14   64 1  
    70   15   65 1  
    71   18   66 1  
    72   20   67 1  
    73   21   68 1  
    74   22   69 1  
    75   23   70 1  
    76   24   71 1  
    77   25   72 1  
    78   29   73 1  
    79   29   74 1  
    80   30   75 1  
    81   30   76 1  
    82   31   77 1  
    83   32   78 1  
    84   32   79 1  
    85   33   80 1  
    86   33   81 1  
    87   34   82 1  
    88   35   83 1  
    89   35   84 1  
    90   36   85 1  
    91   36   86 1  
    92   37   87 1  
    93   37   88 1  
    94   38   89 1  
    95   38   90 1  
    96   39   91 1  
    97   39   92 1  
    98   40   93 1  
    99   40   94 1  
   100   42   95 1  
   101   43   96 1  
@<TRIPOS>SUBSTRUCTURE
     1 6P9         1

