### 
### Created by X-TOOL on Mon Sep 10 21:13:33 2018
### 

@<TRIPOS>MOLECULE
5jsj_ligand
  113   119     1     0     0
SMALL
GAST_HUCK


@<TRIPOS>ATOM
      1 C13        12.7910   -6.2160    3.2750 C.3       1 6PD        -0.0326
      2 C15        12.2500   -4.6120    1.3840 C.3       1 6PD         0.0337
      3 C17        13.1810   -7.5710    5.3280 C.3       1 6PD        -0.0316
      4 C20        14.5930  -10.7380    4.1170 C.3       1 6PD        -0.0077
      5 C21        13.8220  -11.0820    5.3620 C.3       1 6PD        -0.0077
      6 C22        12.7580   -9.9850    5.5140 C.3       1 6PD        -0.0317
      7 C26        12.4080    0.0150    4.1390 C.ar      1 6PD        -0.0473
      8 C28        11.5590    1.4120    5.7100 C.ar      1 6PD         0.0848
      9 O01        12.6780    1.4890   -1.8150 O.2       1 6PD        -0.3900
     10 C02        11.9680    1.5980   -0.8170 C.2       1 6PD         0.2025
     11 C03        11.5030    0.3590   -0.1510 C.ar      1 6PD         0.0747
     12 C04        11.9350   -0.0830    1.1020 C.ar      1 6PD         0.0822
     13 C05        11.3830   -1.3180    1.6150 C.ar      1 6PD        -0.0148
     14 C06        10.4730   -2.1180    0.9720 C.ar      1 6PD         0.0436
     15 C07        10.0740   -1.6740   -0.2880 C.ar      1 6PD        -0.0493
     16 C08        10.5930   -0.4720   -0.8030 C.ar      1 6PD        -0.0473
     17 C09        10.0450   -3.3960    1.6700 C.2       1 6PD         0.2073
     18 N10        10.8780   -4.4820    1.8530 N.am      1 6PD        -0.2720
     19 C11        10.4060   -5.6610    2.5960 C.3       1 6PD         0.0337
     20 C12        11.3610   -5.9480    3.7820 C.3       1 6PD        -0.0295
     21 C14        13.2450   -5.0450    2.4490 C.3       1 6PD        -0.0295
     22 C16        13.8030   -6.5510    4.3940 C.3       1 6PD        -0.0096
     23 N18        13.0440   -8.8850    4.5690 N.4       1 6PD         0.2352
     24 C19        14.2830   -9.2810    3.8180 C.3       1 6PD        -0.0317
     25 O23         8.9330   -3.4980    2.1760 O.2       1 6PD        -0.3828
     26 N24        12.8250    0.6370    1.9050 N.pl3     1 6PD        -0.2761
     27 C25        12.4680    0.9560    3.1770 C.ar      1 6PD         0.0491
     28 C27        11.9530    0.2310    5.3870 C.ar      1 6PD        -0.0423
     29 C29        11.5980    2.3750    4.7640 C.ar      1 6PD        -0.0423
     30 C30        12.0240    2.1240    3.5100 C.ar      1 6PD        -0.0473
     31 O31        11.1180    1.6030    6.9290 O.3       1 6PD        -0.2847
     32 C32         9.6360    1.3420    6.8710 C.3       1 6PD         0.0937
     33 N33         8.8150    2.7050    6.6440 N.4       1 6PD         0.2581
     34 C34         8.7320    3.2370    5.2300 C.3       1 6PD        -0.0291
     35 C35         7.6880    4.3800    5.2520 C.3       1 6PD        -0.0076
     36 C36         6.6880    3.9010    6.3080 C.3       1 6PD        -0.0076
     37 C37         7.3630    2.6720    7.0150 C.3       1 6PD        -0.0291
     38 N38        11.7150    2.9120   -0.3950 N.am      1 6PD        -0.2741
     39 C39        12.2540    4.0700   -1.1070 C.3       1 6PD         0.0334
     40 C40        13.2480    4.8230   -0.2220 C.3       1 6PD        -0.0295
     41 C41        12.7940    5.0450    1.2330 C.3       1 6PD        -0.0326
     42 C42        11.3390    4.6270    1.4360 C.3       1 6PD        -0.0295
     43 C43        10.9310    3.3200    0.7540 C.3       1 6PD         0.0334
     44 C44        12.8950    6.4730    1.6450 C.3       1 6PD        -0.0096
     45 C45        13.0940    6.6190    3.1400 C.3       1 6PD        -0.0316
     46 N46        14.1810    7.6680    3.3930 N.4       1 6PD         0.2352
     47 C47        14.6590    8.4460    2.2250 C.3       1 6PD        -0.0317
     48 C48        15.5640    9.5390    2.8360 C.3       1 6PD        -0.0077
     49 C49        15.0080    9.7510    4.2480 C.3       1 6PD        -0.0077
     50 C50        13.9040    8.6780    4.4420 C.3       1 6PD        -0.0317
     51 H1         12.7448   -7.0948    2.6150 H         1 6PD         0.0304
     52 H2         12.5718   -3.6366    0.9903 H         1 6PD         0.0522
     53 H3         12.2669   -5.3576    0.5754 H         1 6PD         0.0522
     54 H4         12.1895   -7.2231    5.6533 H         1 6PD         0.0814
     55 H5         13.8262   -7.7138    6.2074 H         1 6PD         0.0814
     56 H6         14.2717  -11.3760    3.2805 H         1 6PD         0.0319
     57 H7         15.6716  -10.8716    4.2868 H         1 6PD         0.0319
     58 H8         14.4901  -11.0908    6.2358 H         1 6PD         0.0319
     59 H9         13.3438  -12.0669    5.2562 H         1 6PD         0.0319
     60 H10        12.7756   -9.5976    6.5433 H         1 6PD         0.0814
     61 H11        11.7648  -10.4053    5.2973 H         1 6PD         0.0814
     62 H12        12.7492   -0.9836    3.8912 H         1 6PD         0.0506
     63 H13        11.7183   -1.6397    2.5944 H         1 6PD         0.0589
     64 H14         9.3658   -2.2534   -0.8693 H         1 6PD         0.0573
     65 H15        10.2578   -0.1669   -1.7877 H         1 6PD         0.0645
     66 H16        10.3850   -6.5320    1.9245 H         1 6PD         0.0522
     67 H17         9.3932   -5.4697    2.9802 H         1 6PD         0.0522
     68 H18        11.3732   -5.0779    4.4548 H         1 6PD         0.0287
     69 H19        11.0007   -6.8307    4.3306 H         1 6PD         0.0287
     70 H20        14.1868   -5.3184    1.9507 H         1 6PD         0.0287
     71 H21        13.4207   -4.1941    3.1236 H         1 6PD         0.0287
     72 H22        14.0488   -5.6376    4.9554 H         1 6PD         0.0319
     73 H23        14.7198   -6.9668    3.9507 H         1 6PD         0.0319
     74 H24        12.2821   -8.7930    3.9154 H         1 6PD         0.2033
     75 H25        14.1175   -9.1524    2.7382 H         1 6PD         0.0814
     76 H26        15.1260   -8.6507    4.1374 H         1 6PD         0.0814
     77 H27        13.7430    0.9231    1.5358 H         1 6PD         0.2075
     78 H28        11.9191   -0.5774    6.1084 H         1 6PD         0.0514
     79 H29        11.2776    3.3783    5.0204 H         1 6PD         0.0514
     80 H30        11.9939    2.9142    2.7685 H         1 6PD         0.0506
     81 H31         9.3150    0.8831    7.8178 H         1 6PD         0.1200
     82 H32         9.4251    0.6533    6.0396 H         1 6PD         0.1200
     83 H33         9.2770    3.3946    7.2159 H         1 6PD         0.2062
     84 H34         8.4097    2.4410    4.5426 H         1 6PD         0.0815
     85 H35         9.7114    3.6228    4.9108 H         1 6PD         0.0815
     86 H36         7.2044    4.4946    4.2707 H         1 6PD         0.0319
     87 H37         8.1500    5.3338    5.5468 H         1 6PD         0.0319
     88 H38         5.7444    3.5971    5.8312 H         1 6PD         0.0319
     89 H39         6.4896    4.7002    7.0373 H         1 6PD         0.0319
     90 H40         7.2486    2.7526    8.1061 H         1 6PD         0.0815
     91 H41         6.9039    1.7351    6.6664 H         1 6PD         0.0815
     92 H42        11.4288    4.7441   -1.3803 H         1 6PD         0.0521
     93 H43        12.7662    3.7290   -2.0188 H         1 6PD         0.0521
     94 H44        13.4290    5.8085   -0.6760 H         1 6PD         0.0287
     95 H45        14.1870    4.2505   -0.2017 H         1 6PD         0.0287
     96 H46        13.4375    4.4382    1.8870 H         1 6PD         0.0304
     97 H47        10.6973    5.4295    1.0432 H         1 6PD         0.0287
     98 H48        11.1657    4.5145    2.5164 H         1 6PD         0.0287
     99 H49        10.9970    2.5181    1.5041 H         1 6PD         0.0521
    100 H50         9.8873    3.4283    0.4238 H         1 6PD         0.0521
    101 H51        11.9688    6.9921    1.3576 H         1 6PD         0.0319
    102 H52        13.7491    6.9329    1.1264 H         1 6PD         0.0319
    103 H53        13.4046    5.6543    3.5676 H         1 6PD         0.0814
    104 H54        12.1526    6.9418    3.6085 H         1 6PD         0.0814
    105 H55        14.9698    7.1305    3.7169 H         1 6PD         0.2033
    106 H56        13.8134    8.8975    1.6855 H         1 6PD         0.0814
    107 H57        15.2318    7.8053    1.5385 H         1 6PD         0.0814
    108 H58        15.5019   10.4678    2.2500 H         1 6PD         0.0319
    109 H59        16.6098    9.2003    2.8766 H         1 6PD         0.0319
    110 H60        14.5802   10.7600    4.3423 H         1 6PD         0.0319
    111 H61        15.8041    9.6189    4.9955 H         1 6PD         0.0319
    112 H62        13.9712    8.2274    5.4432 H         1 6PD         0.0814
    113 H63        12.9054    9.1181    4.3042 H         1 6PD         0.0814
@<TRIPOS>BOND
     1   20    1 1  
     2   21    1 1  
     3    1   22 1  
     4   18    2 1  
     5    2   21 1  
     6   22    3 1  
     7    3   23 1  
     8    4    5 1  
     9   24    4 1  
    10    6    5 1  
    11   23    6 1  
    12   27    7 ar 
    13    7   28 ar 
    14   28    8 ar 
    15    8   29 ar 
    16    8   31 1  
    17   10    9 2  
    18   11   10 1  
    19   10   38 am 
    20   12   11 ar 
    21   11   16 ar 
    22   12   13 ar 
    23   26   12 1  
    24   13   14 ar 
    25   14   15 ar 
    26   14   17 1  
    27   16   15 ar 
    28   17   18 am 
    29   17   25 2  
    30   18   19 1  
    31   19   20 1  
    32   23   24 1  
    33   26   27 1  
    34   27   30 ar 
    35   29   30 ar 
    36   31   32 1  
    37   32   33 1  
    38   33   34 1  
    39   33   37 1  
    40   34   35 1  
    41   35   36 1  
    42   36   37 1  
    43   38   39 1  
    44   38   43 1  
    45   39   40 1  
    46   40   41 1  
    47   41   42 1  
    48   41   44 1  
    49   42   43 1  
    50   44   45 1  
    51   45   46 1  
    52   46   47 1  
    53   46   50 1  
    54   47   48 1  
    55   48   49 1  
    56   49   50 1  
    57    1   51 1  
    58    2   52 1  
    59    2   53 1  
    60    3   54 1  
    61    3   55 1  
    62    4   56 1  
    63    4   57 1  
    64    5   58 1  
    65    5   59 1  
    66    6   60 1  
    67    6   61 1  
    68    7   62 1  
    69   13   63 1  
    70   15   64 1  
    71   16   65 1  
    72   19   66 1  
    73   19   67 1  
    74   20   68 1  
    75   20   69 1  
    76   21   70 1  
    77   21   71 1  
    78   22   72 1  
    79   22   73 1  
    80   23   74 1  
    81   24   75 1  
    82   24   76 1  
    83   26   77 1  
    84   28   78 1  
    85   29   79 1  
    86   30   80 1  
    87   32   81 1  
    88   32   82 1  
    89   33   83 1  
    90   34   84 1  
    91   34   85 1  
    92   35   86 1  
    93   35   87 1  
    94   36   88 1  
    95   36   89 1  
    96   37   90 1  
    97   37   91 1  
    98   39   92 1  
    99   39   93 1  
   100   40   94 1  
   101   40   95 1  
   102   41   96 1  
   103   42   97 1  
   104   42   98 1  
   105   43   99 1  
   106   43  100 1  
   107   44  101 1  
   108   44  102 1  
   109   45  103 1  
   110   45  104 1  
   111   46  105 1  
   112   47  106 1  
   113   47  107 1  
   114   48  108 1  
   115   48  109 1  
   116   49  110 1  
   117   49  111 1  
   118   50  112 1  
   119   50  113 1  
@<TRIPOS>SUBSTRUCTURE
     1 6PD         1

