### 
### Created by X-TOOL on Mon Sep 10 21:13:32 2018
### 

@<TRIPOS>MOLECULE
5jur_ligand
   45    47     1     0     0
SMALL
GAST_HUCK


@<TRIPOS>ATOM
      1 F2        -52.7650   -4.4310    5.4410 F         1 6NS        -0.1819
      2 C9        -51.9650   -4.2630    4.3660 C.ar      1 6NS         0.1925
      3 C10       -52.4310   -3.5210    3.2870 C.ar      1 6NS         0.0374
      4 N2        -51.6820   -3.2950    2.2030 N.ar      1 6NS        -0.2961
      5 C11       -50.4960   -3.7960    2.2140 C.ar      1 6NS         0.0815
      6 N3        -49.9430   -4.5320    3.1740 N.ar      1 6NS        -0.2657
      7 C8        -50.6590   -4.7940    4.2730 C.ar      1 6NS         0.1541
      8 N1        -50.0210   -5.5640    5.1690 N.pl3     1 6NS        -0.2969
      9 C5        -48.6770   -6.1150    5.0330 C.3       1 6NS         0.0560
     10 C6        -48.8540   -7.6520    5.0660 C.3       1 6NS         0.0238
     11 C7        -49.7350   -8.0600    3.9160 C.2       1 6NS         0.0370
     12 O2        -50.9920   -8.1530    4.2300 O.co2     1 6NS        -0.5689
     13 O1        -49.3060   -8.2760    2.8060 O.co2     1 6NS        -0.5689
     14 C2        -47.7310   -5.6280    6.1520 C.3       1 6NS        -0.0131
     15 C4        -46.4030   -6.3780    6.0760 C.3       1 6NS        -0.0578
     16 C3        -47.4650   -4.1320    5.9930 C.3       1 6NS        -0.0578
     17 C1        -48.3650   -5.8780    7.5190 C.3       1 6NS        -0.0578
     18 C12       -49.6940   -3.5310    1.0660 C.2       1 6NS         0.0280
     19 C15       -48.3100   -3.9240    0.7720 C.ar      1 6NS         0.0158
     20 C16       -47.3540   -4.6130    1.5120 C.ar      1 6NS        -0.0198
     21 C17       -46.1230   -4.7880    0.9410 C.ar      1 6NS         0.1437
     22 F1        -45.1720   -5.4450    1.6520 F         1 6NS        -0.1848
     23 C18       -45.8560   -4.2820   -0.3700 C.ar      1 6NS         0.0297
     24 N5        -46.7860   -3.6260   -1.0700 N.ar      1 6NS        -0.2849
     25 C14       -47.9830   -3.4570   -0.4910 C.ar      1 6NS         0.1395
     26 N4        -49.0630   -2.8030   -1.0040 N.pl3     1 6NS        -0.2551
     27 C13       -50.0750   -2.8450   -0.0830 C.2       1 6NS         0.0541
     28 H1        -53.4343   -3.1123    3.3257 H         1 6NS         0.0844
     29 H2        -50.5297   -5.7873    6.0363 H         1 6NS         0.1838
     30 H3        -48.2519   -5.8124    4.0646 H         1 6NS         0.0581
     31 H4        -49.3225   -7.9506    6.0154 H         1 6NS         0.0453
     32 H5        -47.8726   -8.1399    4.9719 H         1 6NS         0.0453
     33 H6        -45.7361   -6.0247    6.8763 H         1 6NS         0.0236
     34 H7        -45.9329   -6.1933    5.0988 H         1 6NS         0.0236
     35 H8        -46.5833   -7.4562    6.1982 H         1 6NS         0.0236
     36 H9        -48.4165   -3.5827    6.0464 H         1 6NS         0.0236
     37 H10       -46.9883   -3.9458    5.0193 H         1 6NS         0.0236
     38 H11       -46.7987   -3.7903    6.7988 H         1 6NS         0.0236
     39 H12       -48.5599   -6.9536    7.6416 H         1 6NS         0.0236
     40 H13       -49.3121   -5.3233    7.5909 H         1 6NS         0.0236
     41 H14       -47.6796   -5.5372    8.3090 H         1 6NS         0.0236
     42 H15       -47.5757   -4.9959    2.5016 H         1 6NS         0.0652
     43 H16       -44.8754   -4.4344   -0.8062 H         1 6NS         0.0748
     44 H17       -49.1100   -2.3528   -1.9292 H         1 6NS         0.2362
     45 H18       -51.0565   -2.3971   -0.2313 H         1 6NS         0.1113
@<TRIPOS>BOND
     1    1    2 1  
     2    2    3 ar 
     3    2    7 ar 
     4    3    4 ar 
     5    4    5 ar 
     6    5    6 ar 
     7    5   18 1  
     8    6    7 ar 
     9    7    8 1  
    10    8    9 1  
    11    9   10 1  
    12    9   14 1  
    13   10   11 1  
    14   11   12 ar 
    15   11   13 ar 
    16   14   15 1  
    17   14   16 1  
    18   14   17 1  
    19   18   19 1  
    20   18   27 2  
    21   19   20 ar 
    22   19   25 ar 
    23   20   21 ar 
    24   21   22 1  
    25   21   23 ar 
    26   23   24 ar 
    27   24   25 ar 
    28   25   26 1  
    29   26   27 1  
    30    3   28 1  
    31    8   29 1  
    32    9   30 1  
    33   10   31 1  
    34   10   32 1  
    35   15   33 1  
    36   15   34 1  
    37   15   35 1  
    38   16   36 1  
    39   16   37 1  
    40   16   38 1  
    41   17   39 1  
    42   17   40 1  
    43   17   41 1  
    44   20   42 1  
    45   23   43 1  
    46   26   44 1  
    47   27   45 1  
@<TRIPOS>SUBSTRUCTURE
     1 6NS         1

