### 
### Created by X-TOOL on Mon Sep 10 21:13:25 2018
### 

@<TRIPOS>MOLECULE
5jxq_ligand
   48    51     1     0     0
SMALL
GAST_HUCK


@<TRIPOS>ATOM
      1 C2        108.6260   19.6780   20.5880 C.ar      1 6OK         0.0409
      2 C4        107.0640   19.2030   18.8010 C.ar      1 6OK         0.1079
      3 C5        106.0940   18.8140   19.7210 C.ar      1 6OK         0.0149
      4 C6        106.3970   18.8730   21.0790 C.ar      1 6OK         0.1196
      5 C1        107.6530   19.3030   21.4990 C.ar      1 6OK         0.1272
      6 C3        108.3270   19.6350   19.2330 C.ar      1 6OK         0.1563
      7 C7        107.9210   19.3690   22.9550 C.2       1 6OK         0.2371
      8 N8        105.4780   18.5050   22.0050 N.pl3     1 6OK        -0.2648
      9 C9        105.7320   18.5930   23.3270 C.cat     1 6OK         0.1776
     10 N10       104.7650   18.2450   24.2020 N.pl3     1 6OK        -0.3388
     11 N11       106.9260   19.0230   23.7880 N.am      1 6OK        -0.2547
     12 N12       109.0730   19.9550   18.1440 N.pl3     1 6OK        -0.1692
     13 N13       107.0360   19.2760   17.4480 N.2       1 6OK        -0.2054
     14 C14       108.2580   19.7260   17.1060 C.2       1 6OK         0.2985
     15 N15       108.6580   19.9400   15.8290 N.pl3     1 6OK        -0.2333
     16 C16       107.6950   20.0590   14.7320 C.3       1 6OK         0.0601
     17 O18       109.0210   19.7530   23.4170 O.2       1 6OK        -0.3637
     18 C17       108.2530   20.9210   13.5940 C.3       1 6OK         0.0028
     19 C19       106.4500   20.5210    9.6550 C.ar      1 6OK        -0.0475
     20 C20       105.8400   20.3110    8.2690 C.3       1 6OK         0.0010
     21 C21       106.1320   21.3600    7.1950 C.3       1 6OK         0.0528
     22 O22       105.5580   20.9590    5.9240 O.3       1 6OK        -0.3931
     23 C23       106.0930   21.5770   10.4950 C.ar      1 6OK        -0.0667
     24 C24       106.6750   21.7050   11.7610 C.ar      1 6OK        -0.0667
     25 C25       107.6030   20.7720   12.2230 C.ar      1 6OK        -0.0473
     26 C26       107.9550   19.7190   11.3850 C.ar      1 6OK        -0.0667
     27 C27       107.3730   19.5910   10.1250 C.ar      1 6OK        -0.0667
     28 H1        109.6042   19.9995   20.9269 H         1 6OK         0.0748
     29 H2        105.1214   18.4717   19.3865 H         1 6OK         0.0565
     30 H3        104.5635   18.1495   21.6916 H         1 6OK         0.2175
     31 H4        104.9410   18.3057   25.2150 H         1 6OK         0.1746
     32 H5        103.8511   17.9187   23.8567 H         1 6OK         0.1746
     33 H6        107.0732   19.0854   24.7751 H         1 6OK         0.1814
     34 H7        110.0446   20.2962   18.1215 H         1 6OK         0.2490
     35 H8        109.6643   20.0210   15.6248 H         1 6OK         0.2238
     36 H9        106.7727   20.5217   15.1131 H         1 6OK         0.0602
     37 H10       107.4683   19.0552   14.3434 H         1 6OK         0.0602
     38 H11       109.3190   20.6731   13.4833 H         1 6OK         0.0437
     39 H12       108.1508   21.9738   13.8958 H         1 6OK         0.0437
     40 H13       104.7482   20.2652    8.3946 H         1 6OK         0.0435
     41 H14       106.2066   19.3448    7.8921 H         1 6OK         0.0435
     42 H15       107.2207   21.4693    7.0821 H         1 6OK         0.0578
     43 H16       105.6966   22.3226    7.5012 H         1 6OK         0.0578
     44 H17       105.7482   21.6204    5.2691 H         1 6OK         0.2096
     45 H18       105.3595   22.3033   10.1642 H         1 6OK         0.0540
     46 H19       106.4004   22.5422   12.3924 H         1 6OK         0.0540
     47 H20       108.6882   18.9918   11.7147 H         1 6OK         0.0540
     48 H21       107.6448   18.7496    9.4979 H         1 6OK         0.0540
@<TRIPOS>BOND
     1    1    5 ar 
     2    6    1 ar 
     3    2    3 ar 
     4    2    6 ar 
     5   13    2 1  
     6    3    4 ar 
     7    4    5 ar 
     8    4    8 1  
     9    5    7 1  
    10   12    6 1  
    11    7   11 am 
    12    7   17 2  
    13    8    9 ar 
    14    9   10 ar 
    15    9   11 ar 
    16   14   12 1  
    17   14   13 2  
    18   15   14 1  
    19   16   15 1  
    20   18   16 1  
    21   25   18 1  
    22   19   20 1  
    23   23   19 ar 
    24   19   27 ar 
    25   20   21 1  
    26   21   22 1  
    27   24   23 ar 
    28   24   25 ar 
    29   25   26 ar 
    30   26   27 ar 
    31    1   28 1  
    32    3   29 1  
    33    8   30 1  
    34   10   31 1  
    35   10   32 1  
    36   11   33 1  
    37   12   34 1  
    38   15   35 1  
    39   16   36 1  
    40   16   37 1  
    41   18   38 1  
    42   18   39 1  
    43   20   40 1  
    44   20   41 1  
    45   21   42 1  
    46   21   43 1  
    47   22   44 1  
    48   23   45 1  
    49   24   46 1  
    50   26   47 1  
    51   27   48 1  
@<TRIPOS>SUBSTRUCTURE
     1 6OK         1

