### 
### Created by X-TOOL on Mon Sep 10 21:13:34 2018
### 

@<TRIPOS>MOLECULE
5jy0_ligand
   50    49     1     0     0
SMALL
GAST_HUCK


@<TRIPOS>ATOM
      1 N          13.3510    4.1640   11.9480 N.4       1 LEU         0.2379
      2 CA         14.6560    3.6430   12.3110 C.3       1 LEU         0.0652
      3 C          14.7470    3.4820   13.8000 C.2       1 LEU         0.2268
      4 O          14.3870    4.3740   14.5330 O.2       1 LEU        -0.3907
      5 CB         15.7570    4.5500   11.7980 C.3       1 LEU         0.0102
      6 CG         15.9070    4.5130   10.2890 C.3       1 LEU        -0.0394
      7 CD1        17.0280    5.4120    9.8870 C.3       1 LEU        -0.0623
      8 CD2        16.1780    3.1090    9.8480 C.3       1 LEU        -0.0623
      9 N          15.2210    2.3230   14.2350 N.am      1 ASP        -0.2595
     10 CA         15.3780    2.0320   15.6470 C.3       1 ASP         0.1424
     11 C          16.7670    2.3800   16.1370 C.2       1 ASP         0.2051
     12 O          17.3440    1.6670   16.9430 O.2       1 ASP        -0.3943
     13 CB         15.0920    0.5780   15.9320 C.3       1 ASP         0.0406
     14 CG         13.7050    0.3610   16.4200 C.2       1 ASP         0.0393
     15 OD1        13.0580    1.3370   16.8420 O.co2     1 ASP        -0.5688
     16 OD2        13.2790   -0.8040   16.4020 O.co2     1 ASP        -0.5688
     17 N          17.2740    3.4780   15.5930 N.am      1 VAL        -0.2691
     18 CA         18.3800    4.2600   16.1240 C.3       1 VAL         0.0967
     19 C          18.6480    4.0660   17.6170 C.2       1 VAL         0.0603
     20 O          19.7860    4.2010   18.0840 O.co2     1 VAL        -0.5666
     21 CB         18.1310    5.7600   15.8980 C.3       1 VAL        -0.0118
     22 CG1        17.0100    6.2580   16.8090 C.3       1 VAL        -0.0590
     23 CG2        19.4090    6.5310   16.1220 C.3       1 VAL        -0.0590
     24 OXT        17.7340    3.7690   18.3960 O.co2     1 VAL        -0.5666
     25 H1         13.2978    4.2692   10.9469 H         1 LEU         0.2015
     26 H2         13.2128    5.0604   12.3878 H         1 LEU         0.2015
     27 H3         12.6359    3.5243   12.2570 H         1 LEU         0.2015
     28 H4         14.7784    2.6538   11.8456 H         1 LEU         0.1098
     29 H5         16.7086    4.2359   12.2517 H         1 LEU         0.0348
     30 H6         15.5292    5.5825   12.1014 H         1 LEU         0.0348
     31 H7         14.9758    4.8643    9.8206 H         1 LEU         0.0299
     32 H8         17.1418    5.3895    8.7931 H         1 LEU         0.0232
     33 H9         17.9603    5.0695   10.3598 H         1 LEU         0.0232
     34 H10        16.8083    6.4398   10.2116 H         1 LEU         0.0232
     35 H11        15.3426    2.4614   10.1523 H         1 LEU         0.0232
     36 H12        17.1079    2.7512   10.3142 H         1 LEU         0.0232
     37 H13        16.2827    3.0822    8.7533 H         1 LEU         0.0232
     38 H14        15.4792    1.6254   13.5666 H         1 ASP         0.1886
     39 H15        14.6527    2.6442   16.2030 H         1 ASP         0.0819
     40 H16        15.7963    0.2226   16.6986 H         1 ASP         0.0478
     41 H17        15.2356    0.0012   15.0064 H         1 ASP         0.0478
     42 H18        16.8588    3.7972   14.7411 H         1 VAL         0.1875
     43 H19        19.2857    3.9626   15.5752 H         1 VAL         0.0729
     44 H20        17.8166    5.9084   14.8544 H         1 VAL         0.0336
     45 H21        16.8453    7.3315   16.6344 H         1 VAL         0.0234
     46 H22        17.2924    6.0965   17.8598 H         1 VAL         0.0234
     47 H23        16.0852    5.7046   16.5886 H         1 VAL         0.0234
     48 H24        20.1915    6.1465   15.4513 H         1 VAL         0.0234
     49 H25        19.7308    6.4118   17.1671 H         1 VAL         0.0234
     50 H26        19.2362    7.5966   15.9108 H         1 VAL         0.0234
@<TRIPOS>BOND
     1    1    2 1  
     2    2    3 1  
     3    2    5 1  
     4    3    4 2  
     5    3    9 am 
     6    5    6 1  
     7    6    7 1  
     8    6    8 1  
     9    9   10 1  
    10   10   11 1  
    11   10   13 1  
    12   11   12 2  
    13   11   17 am 
    14   13   14 1  
    15   14   15 ar 
    16   14   16 ar 
    17   17   18 1  
    18   18   19 1  
    19   18   21 1  
    20   19   20 ar 
    21   19   24 ar 
    22   21   22 1  
    23   21   23 1  
    24    1   25 1  
    25    1   26 1  
    26    1   27 1  
    27    2   28 1  
    28    5   29 1  
    29    5   30 1  
    30    6   31 1  
    31    7   32 1  
    32    7   33 1  
    33    7   34 1  
    34    8   35 1  
    35    8   36 1  
    36    8   37 1  
    37    9   38 1  
    38   10   39 1  
    39   13   40 1  
    40   13   41 1  
    41   17   42 1  
    42   18   43 1  
    43   21   44 1  
    44   22   45 1  
    45   22   46 1  
    46   22   47 1  
    47   23   48 1  
    48   23   49 1  
    49   23   50 1  
@<TRIPOS>SUBSTRUCTURE
     1 LEU         1

