### 
### Created by X-TOOL on Mon Sep 10 21:13:29 2018
### 

@<TRIPOS>MOLECULE
5jy3_ligand
   68    71     1     0     0
SMALL
GAST_HUCK


@<TRIPOS>ATOM
      1 C1         33.6910   21.3290   21.4940 C.ar      1 6OX        -0.0390
      2 C2         34.0140   21.7020   20.1990 C.ar      1 6OX        -0.0248
      3 C3         35.1790   23.0350   22.3740 C.ar      1 6OX         0.0554
      4 C4         35.5190   23.4220   21.0640 C.ar      1 6OX        -0.0384
      5 C5         36.5350   24.6060   20.8610 C.3       1 6OX         0.0059
      6 C6         34.9160   22.7400   19.9970 C.ar      1 6OX         0.0554
      7 C10        37.5390   16.9260   21.0310 C.ar      1 6OX        -0.0399
      8 C12        37.2860   19.2940   20.8530 C.ar      1 6OX        -0.0283
      9 C13        37.8380   24.3220   21.6450 C.2       1 6OX         0.1288
     10 C14        38.0510   21.8770   21.6620 C.ar      1 6OX         0.1536
     11 C15        38.1230   21.4660   20.3270 C.ar      1 6OX        -0.0219
     12 C16        39.6150   24.8350   22.6330 C.2       1 6OX         0.0740
     13 C17        39.6020   23.4970   22.5940 C.2       1 6OX         0.1309
     14 C24        35.9310   14.0840   18.8010 C.3       1 6OX         0.0811
     15 C25        38.3820   14.8690   22.9700 C.3       1 6OX         0.0585
     16 S1         37.9300   14.3390   21.3950 S.o2      1 6OX        -0.0089
     17 O1         37.0010   13.1990   21.4520 O.2       1 6OX        -0.1707
     18 O2         39.2320   13.8700   20.7210 O.2       1 6OX        -0.1707
     19 C22        37.2320   15.6350   20.5840 C.ar      1 6OX         0.0909
     20 C23        36.3670   15.4220   19.4620 C.ar      1 6OX         0.0414
     21 O4         36.9240   13.6080   17.8230 O.3       1 6OX        -0.3829
     22 C9         35.8630   16.5580   18.9130 C.ar      1 6OX         0.1379
     23 F1         35.0950   16.3270   17.9000 F         1 6OX        -0.1888
     24 C8         36.1130   17.8450   19.3560 C.ar      1 6OX        -0.0273
     25 C7         36.9690   18.0260   20.4190 C.ar      1 6OX        -0.0275
     26 C26        37.2360   19.6580   22.2050 C.ar      1 6OX        -0.0221
     27 C27        37.6170   20.9510   22.6010 C.ar      1 6OX         0.1731
     28 F2         37.4980   21.3130   23.8950 F         1 6OX        -0.1828
     29 C11        37.7410   20.1980   19.9130 C.ar      1 6OX        -0.0598
     30 N2         38.4570   23.1500   21.9760 N.pl3     1 6OX        -0.1593
     31 C18        40.6260   25.7990   23.1900 C.3       1 6OX         0.0521
     32 C19        41.0690   25.2770   24.5520 C.3       1 6OX        -0.0679
     33 C20        41.7900   25.9750   22.2050 C.3       1 6OX        -0.0679
     34 O3         39.9120   27.0210   23.2140 O.3       1 6OX        -0.4345
     35 N1         38.5570   25.3410   22.0650 N.2       1 6OX        -0.2615
     36 C28        36.9860   24.9150   19.4040 C.3       1 6OX        -0.0926
     37 C29        35.8260   25.8450   21.4240 C.3       1 6OX        -0.0926
     38 CL1        35.8990   23.8080   23.7650 Cl        1 6OX        -0.0487
     39 C21        34.2690   21.9920   22.5690 C.ar      1 6OX        -0.0248
     40 CL2        35.3130   23.1430   18.3660 Cl        1 6OX        -0.0487
     41 H1         32.9888   20.5216   21.6676 H         1 6OX         0.0804
     42 H2         33.5685   21.1903   19.3536 H         1 6OX         0.0688
     43 H3         38.2253   17.0628   21.8589 H         1 6OX         0.0590
     44 H4         38.4920   22.1661   19.5862 H         1 6OX         0.0600
     45 H5         40.3644   22.8242   22.9838 H         1 6OX         0.1636
     46 H6         34.9704   14.2370   18.2873 H         1 6OX         0.0717
     47 H7         35.8102   13.3222   19.5852 H         1 6OX         0.0717
     48 H8         37.4896   15.2199   23.5089 H         1 6OX         0.0467
     49 H9         39.1068   15.6921   22.8860 H         1 6OX         0.0467
     50 H10        38.8382   14.0335   23.5212 H         1 6OX         0.0467
     51 H11        36.6245   12.7913   17.4412 H         1 6OX         0.2125
     52 H12        35.6433   18.6952   18.8747 H         1 6OX         0.0588
     53 H13        36.9029   18.9410   22.9466 H         1 6OX         0.0591
     54 H14        37.7988   19.9207   18.8667 H         1 6OX         0.0576
     55 H15        41.8109   25.9644   24.9845 H         1 6OX         0.0134
     56 H16        41.5180   24.2798   24.4342 H         1 6OX         0.0134
     57 H17        40.1978   25.2102   25.2202 H         1 6OX         0.0134
     58 H18        41.4050   26.3524   21.2462 H         1 6OX         0.0134
     59 H19        42.2850   25.0057   22.0453 H         1 6OX         0.0134
     60 H20        42.5141   26.6930   22.6175 H         1 6OX         0.0134
     61 H21        39.6783   27.2674   22.3267 H         1 6OX         0.1922
     62 H22        36.1026   25.1283   18.7842 H         1 6OX         0.0081
     63 H23        37.5206   24.0457   18.9935 H         1 6OX         0.0081
     64 H24        37.6534   25.7894   19.4044 H         1 6OX         0.0081
     65 H25        35.4999   25.6439   22.4551 H         1 6OX         0.0081
     66 H26        34.9500   26.0806   20.8018 H         1 6OX         0.0081
     67 H27        36.5198   26.6986   21.4188 H         1 6OX         0.0081
     68 H28        34.0094   21.6949   23.5786 H         1 6OX         0.0688
@<TRIPOS>BOND
     1    2    1 ar 
     2   39    1 ar 
     3    6    2 ar 
     4    4    3 ar 
     5    3   38 1  
     6    3   39 ar 
     7    5    4 1  
     8    4    6 ar 
     9    9    5 1  
    10    5   36 1  
    11    5   37 1  
    12    6   40 1  
    13   19    7 ar 
    14    7   25 ar 
    15   25    8 1  
    16    8   26 ar 
    17    8   29 ar 
    18   30    9 1  
    19    9   35 2  
    20   11   10 ar 
    21   10   27 ar 
    22   10   30 1  
    23   29   11 ar 
    24   13   12 2  
    25   12   31 1  
    26   12   35 1  
    27   30   13 1  
    28   20   14 1  
    29   14   21 1  
    30   16   15 1  
    31   16   17 2  
    32   16   18 2  
    33   19   16 1  
    34   19   20 ar 
    35   20   22 ar 
    36   22   23 1  
    37   22   24 ar 
    38   24   25 ar 
    39   26   27 ar 
    40   27   28 1  
    41   31   32 1  
    42   31   33 1  
    43   31   34 1  
    44    1   41 1  
    45    2   42 1  
    46    7   43 1  
    47   11   44 1  
    48   13   45 1  
    49   14   46 1  
    50   14   47 1  
    51   15   48 1  
    52   15   49 1  
    53   15   50 1  
    54   21   51 1  
    55   24   52 1  
    56   26   53 1  
    57   29   54 1  
    58   32   55 1  
    59   32   56 1  
    60   32   57 1  
    61   33   58 1  
    62   33   59 1  
    63   33   60 1  
    64   34   61 1  
    65   36   62 1  
    66   36   63 1  
    67   36   64 1  
    68   37   65 1  
    69   37   66 1  
    70   37   67 1  
    71   39   68 1  
@<TRIPOS>SUBSTRUCTURE
     1 6OX         1

