### 
### Created by X-TOOL on Mon Sep 10 21:13:28 2018
### 

@<TRIPOS>MOLECULE
5jyo_ligand
   64    67     1     0     0
SMALL
GAST_HUCK


@<TRIPOS>ATOM
      1 C10        -4.8600  -68.2910   26.8770 C.3       1 63J         0.0935
      2 C13        -8.4630  -68.8440   27.9700 C.ar      1 63J        -0.0484
      3 C15        -7.5220  -70.9000   27.1660 C.ar      1 63J         0.0033
      4 C20        -3.2060  -72.5800   17.1920 C.ar      1 63J         0.0416
      5 C21        -3.4780  -73.7020   17.9600 C.ar      1 63J         0.0010
      6 C22        -4.6520  -74.3840   17.7220 C.ar      1 63J         0.0244
      7 C26        -8.4730  -76.5130   16.5370 C.3       1 63J         0.0767
      8 C28       -10.6740  -75.9210   17.6390 C.ar      1 63J        -0.0690
      9 C01        -1.8710  -71.0420   18.7250 C.3       1 63J        -0.0352
     10 C02        -2.9090  -69.9510   18.7820 C.3       1 63J        -0.0350
     11 C03        -2.4020  -68.7250   19.5210 C.3       1 63J         0.0147
     12 C04        -2.4910  -68.8610   21.0340 C.2       1 63J         0.0977
     13 N05        -1.5060  -69.3410   21.8050 N.2       1 63J        -0.2882
     14 N06        -1.7560  -69.3810   23.1250 N.2       1 63J        -0.2759
     15 C07        -2.9590  -68.9390   23.5370 C.2       1 63J         0.2169
     16 N08        -3.3690  -68.9080   24.9040 N.am      1 63J        -0.1937
     17 C09        -4.5510  -68.2690   25.3850 C.2       1 63J         0.2277
     18 C11        -6.1890  -68.9560   27.1710 C.ar      1 63J         0.0475
     19 C12        -7.2460  -68.2290   27.7040 C.ar      1 63J        -0.0300
     20 C14        -8.5980  -70.2020   27.6950 C.ar      1 63J        -0.0407
     21 N16        -6.3580  -70.2650   26.9250 N.ar      1 63J        -0.2954
     22 O17        -5.3040  -67.7030   24.6190 O.2       1 63J        -0.3772
     23 S18        -3.7950  -68.4450   22.1020 S.3       1 63J         0.0620
     24 C19        -1.9210  -71.7910   17.4040 C.3       1 63J         0.0067
     25 C23        -5.5200  -73.9440   16.7270 C.ar      1 63J         0.1517
     26 N24        -6.7670  -74.6020   16.4450 N.am      1 63J        -0.2029
     27 C25        -7.1110  -75.9250   16.8770 C.2       1 63J         0.2280
     28 C27        -9.3840  -76.4210   17.7530 C.ar      1 63J        -0.0324
     29 C29       -11.4980  -75.8340   18.7600 C.ar      1 63J        -0.0768
     30 C30       -11.0360  -76.2390   20.0050 C.ar      1 63J        -0.0395
     31 C31        -9.7450  -76.7400   20.1250 C.ar      1 63J         0.0942
     32 C32        -8.9310  -76.8270   18.9990 C.ar      1 63J        -0.0295
     33 O33        -9.2590  -77.1470   21.3820 O.3       1 63J        -0.2273
     34 C34        -8.4740  -76.1580   22.0080 C.3       1 63J         0.5463
     35 F35        -9.1920  -75.0270   22.1290 F         1 63J        -0.1400
     36 F36        -7.3660  -75.9180   21.2810 F         1 63J        -0.1400
     37 F37        -8.1250  -76.5910   23.2260 F         1 63J        -0.1400
     38 O38        -6.3380  -76.5970   17.5310 O.2       1 63J        -0.3748
     39 N39        -5.2160  -72.8450   16.0200 N.ar      1 63J        -0.2855
     40 N40        -4.0710  -72.1740   16.2460 N.ar      1 63J        -0.2891
     41 H1         -4.8907  -67.2562   27.2487 H         1 63J         0.0696
     42 H2         -4.0636  -68.8438   27.3966 H         1 63J         0.0696
     43 H3         -9.2902  -68.2782   28.3831 H         1 63J         0.0720
     44 H4         -7.6177  -71.9572   26.9463 H         1 63J         0.0804
     45 H5         -2.7866  -74.0336   18.7262 H         1 63J         0.0847
     46 H6         -4.8987  -75.2614   18.3087 H         1 63J         0.0879
     47 H7         -8.3549  -77.5673   16.2465 H         1 63J         0.0666
     48 H8         -8.9173  -75.9503   15.7028 H         1 63J         0.0666
     49 H9        -11.0427  -75.5964   16.6727 H         1 63J         0.0468
     50 H10        -2.0534  -71.7519   19.5452 H         1 63J         0.0298
     51 H11        -0.8738  -70.5930   18.8435 H         1 63J         0.0298
     52 H12        -3.8004  -70.3349   19.2997 H         1 63J         0.0296
     53 H13        -3.1775  -69.6615   17.7553 H         1 63J         0.0296
     54 H14        -3.0022  -67.8566   19.2117 H         1 63J         0.0502
     55 H15        -1.3498  -68.5604   19.2456 H         1 63J         0.0502
     56 H16        -2.7854  -69.3676   25.5735 H         1 63J         0.2394
     57 H17        -7.1201  -67.1730   27.9141 H         1 63J         0.0655
     58 H18        -9.5353  -70.7095   27.8924 H         1 63J         0.0655
     59 H19        -1.8241  -71.0604   16.5874 H         1 63J         0.0507
     60 H20        -1.0742  -72.4923   17.3710 H         1 63J         0.0507
     61 H21        -7.4445  -74.0996   15.9078 H         1 63J         0.2430
     62 H22       -12.5058  -75.4477   18.6590 H         1 63J         0.0573
     63 H23       -11.6767  -76.1651   20.8762 H         1 63J         0.0488
     64 H24        -7.9253  -77.2191   19.0981 H         1 63J         0.0483
@<TRIPOS>BOND
     1   17    1 1  
     2    1   18 1  
     3   19    2 ar 
     4    2   20 ar 
     5    3   20 ar 
     6   21    3 ar 
     7    5    4 ar 
     8    4   24 1  
     9    4   40 ar 
    10    6    5 ar 
    11   25    6 ar 
    12   27    7 1  
    13    7   28 1  
    14   28    8 ar 
    15    8   29 ar 
    16    9   10 1  
    17   24    9 1  
    18   10   11 1  
    19   11   12 1  
    20   12   13 2  
    21   12   23 1  
    22   13   14 1  
    23   15   14 2  
    24   15   16 1  
    25   23   15 1  
    26   16   17 am 
    27   17   22 2  
    28   18   19 ar 
    29   18   21 ar 
    30   26   25 1  
    31   25   39 ar 
    32   26   27 am 
    33   27   38 2  
    34   28   32 ar 
    35   29   30 ar 
    36   30   31 ar 
    37   31   32 ar 
    38   31   33 1  
    39   33   34 1  
    40   34   35 1  
    41   34   36 1  
    42   34   37 1  
    43   39   40 ar 
    44    1   41 1  
    45    1   42 1  
    46    2   43 1  
    47    3   44 1  
    48    5   45 1  
    49    6   46 1  
    50    7   47 1  
    51    7   48 1  
    52    8   49 1  
    53    9   50 1  
    54    9   51 1  
    55   10   52 1  
    56   10   53 1  
    57   11   54 1  
    58   11   55 1  
    59   16   56 1  
    60   19   57 1  
    61   20   58 1  
    62   24   59 1  
    63   24   60 1  
    64   26   61 1  
    65   29   62 1  
    66   30   63 1  
    67   32   64 1  
@<TRIPOS>SUBSTRUCTURE
     1 63J         1

