### 
### Created by X-TOOL on Mon Sep 10 21:13:29 2018
### 

@<TRIPOS>MOLECULE
5jyp_ligand
   62    66     1     0     0
SMALL
GAST_HUCK


@<TRIPOS>ATOM
      1 C01        -0.2920   -5.2600   76.7500 C.ar      1 ZBS        -0.0681
      2 C02        -1.4870   -4.9130   76.1420 C.ar      1 ZBS        -0.0684
      3 C03        -2.2570   -5.8900   75.5190 C.ar      1 ZBS        -0.0681
      4 C04        -1.8360   -7.2150   75.5000 C.ar      1 ZBS        -0.0579
      5 C05        -0.6390   -7.5680   76.1070 C.ar      1 ZBS        -0.0236
      6 C06         0.1290   -6.5860   76.7300 C.ar      1 ZBS        -0.0579
      7 C07        -0.1600   -9.0120   76.0980 C.3       1 ZBS         0.0781
      8 C08         1.2100   -9.1460   76.7430 C.2       1 ZBS         0.2252
      9 C09         3.7090   -8.9100   76.4760 C.2       1 ZBS         0.2169
     10 C10         5.9300   -9.0350   77.7170 C.2       1 ZBS         0.1009
     11 C11         7.0970   -9.1720   78.6920 C.3       1 ZBS         0.0287
     12 C12         8.3480   -9.6090   77.9450 C.3       1 ZBS        -0.0344
     13 C13         9.0310   -8.4900   77.1790 C.3       1 ZBS        -0.0477
     14 C14         9.3160   -7.2850   78.0390 C.3       1 ZBS        -0.0344
     15 C15         8.0210   -6.7930   78.6380 C.3       1 ZBS         0.0287
     16 C16         7.2910   -7.8620   79.4410 C.3       1 ZBS        -0.0165
     17 C17         8.3300   -5.5990   79.5320 C.2       1 ZBS         0.1009
     18 C18         8.6140   -3.2930   80.6380 C.2       1 ZBS         0.2169
     19 C19         8.9570   -0.8960   80.0750 C.2       1 ZBS         0.2252
     20 C20         8.9100    0.5580   80.5220 C.3       1 ZBS         0.0781
     21 C21         7.4660    0.9390   80.7880 C.ar      1 ZBS        -0.0236
     22 C22         6.5430    0.9050   79.7440 C.ar      1 ZBS        -0.0579
     23 C23         5.2130    1.2350   79.9660 C.ar      1 ZBS        -0.0681
     24 C24         4.8080    1.5980   81.2410 C.ar      1 ZBS        -0.0684
     25 C25         5.7240    1.6280   82.2870 C.ar      1 ZBS        -0.0681
     26 C26         7.0530    1.2960   82.0640 C.ar      1 ZBS        -0.0579
     27 N01         2.3720   -8.8500   75.9750 N.am      1 ZBS        -0.1939
     28 N02         5.9950   -8.7610   76.4000 N.2       1 ZBS        -0.2880
     29 N03         4.8160   -8.6870   75.7440 N.2       1 ZBS        -0.2759
     30 N04         9.0750   -4.3540   81.3290 N.2       1 ZBS        -0.2759
     31 N05         8.9280   -5.5670   80.7380 N.2       1 ZBS        -0.2880
     32 N06         8.6140   -1.9190   81.0030 N.am      1 ZBS        -0.1939
     33 O01         1.3010   -9.5080   77.9000 O.2       1 ZBS        -0.3778
     34 O02         9.2810   -1.1860   78.9370 O.2       1 ZBS        -0.3778
     35 S01         4.2650   -9.2070   78.0750 S.3       1 ZBS         0.0623
     36 S02         7.9800   -3.9670   79.1960 S.3       1 ZBS         0.0623
     37 H1          0.3114   -4.5034   77.2383 H         1 ZBS         0.0600
     38 H2         -1.8218   -3.8820   76.1515 H         1 ZBS         0.0561
     39 H3         -3.1925   -5.6161   75.0447 H         1 ZBS         0.0600
     40 H4         -2.4413   -7.9705   75.0122 H         1 ZBS         0.0561
     41 H5          1.0649   -6.8583   77.2043 H         1 ZBS         0.0561
     42 H6         -0.1014   -9.3632   75.0572 H         1 ZBS         0.0666
     43 H7         -0.8794   -9.6312   76.6540 H         1 ZBS         0.0666
     44 H8          6.8503   -9.9521   79.4273 H         1 ZBS         0.0539
     45 H9          8.0670  -10.3964   77.2302 H         1 ZBS         0.0297
     46 H10         9.0632  -10.0151   78.6754 H         1 ZBS         0.0297
     47 H11         8.3785   -8.1829   76.3484 H         1 ZBS         0.0269
     48 H12         9.9825   -8.8684   76.7773 H         1 ZBS         0.0269
     49 H13         9.7635   -6.4903   77.4241 H         1 ZBS         0.0297
     50 H14        10.0128   -7.5624   78.8437 H         1 ZBS         0.0297
     51 H15         7.3609   -6.4686   77.8201 H         1 ZBS         0.0539
     52 H16         7.8717   -8.0671   80.3525 H         1 ZBS         0.0329
     53 H17         6.3006   -7.4713   79.7173 H         1 ZBS         0.0329
     54 H18         9.3229    1.2018   79.7314 H         1 ZBS         0.0666
     55 H19         9.5008    0.6818   81.4416 H         1 ZBS         0.0666
     56 H20         6.8666    0.6183   78.7499 H         1 ZBS         0.0561
     57 H21         4.4988    1.2091   79.1510 H         1 ZBS         0.0600
     58 H22         3.7721    1.8598   81.4237 H         1 ZBS         0.0561
     59 H23         5.3984    1.9120   83.2812 H         1 ZBS         0.0600
     60 H24         7.7643    1.3154   82.8817 H         1 ZBS         0.0561
     61 H25         2.2437   -8.5819   75.0202 H         1 ZBS         0.2394
     62 H26         8.3661   -1.6643   81.9377 H         1 ZBS         0.2394
@<TRIPOS>BOND
     1    1    2 ar 
     2    6    1 ar 
     3    3    2 ar 
     4    4    3 ar 
     5    5    4 ar 
     6    5    6 ar 
     7    7    5 1  
     8    8    7 1  
     9   27    8 am 
    10    8   33 2  
    11    9   27 1  
    12    9   29 2  
    13   35    9 1  
    14   11   10 1  
    15   10   28 2  
    16   10   35 1  
    17   11   12 1  
    18   16   11 1  
    19   13   12 1  
    20   14   13 1  
    21   15   14 1  
    22   15   16 1  
    23   17   15 1  
    24   17   31 2  
    25   36   17 1  
    26   18   30 2  
    27   32   18 1  
    28   18   36 1  
    29   19   20 1  
    30   19   32 am 
    31   19   34 2  
    32   20   21 1  
    33   21   22 ar 
    34   21   26 ar 
    35   22   23 ar 
    36   23   24 ar 
    37   24   25 ar 
    38   25   26 ar 
    39   28   29 1  
    40   30   31 1  
    41    1   37 1  
    42    2   38 1  
    43    3   39 1  
    44    4   40 1  
    45    6   41 1  
    46    7   42 1  
    47    7   43 1  
    48   11   44 1  
    49   12   45 1  
    50   12   46 1  
    51   13   47 1  
    52   13   48 1  
    53   14   49 1  
    54   14   50 1  
    55   15   51 1  
    56   16   52 1  
    57   16   53 1  
    58   20   54 1  
    59   20   55 1  
    60   22   56 1  
    61   23   57 1  
    62   24   58 1  
    63   25   59 1  
    64   26   60 1  
    65   27   61 1  
    66   32   62 1  
@<TRIPOS>SUBSTRUCTURE
     1 ZBS         1

