### 
### Created by X-TOOL on Mon Sep 10 21:13:26 2018
### 

@<TRIPOS>MOLECULE
5jyy_ligand
   57    57     1     0     0
SMALL
GAST_HUCK


@<TRIPOS>ATOM
      1 N12       375.1520  155.9900   62.6370 N.pl3     1 6PY        -0.2592
      2 C17       377.9350  147.0360   67.0560 C.3       1 6PY         0.0365
      3 C20       375.6560  149.1920   65.4380 C.3       1 6PY         0.0562
      4 C21       376.7740  150.8280   63.9180 C.2       1 6PY         0.3200
      5 C28       373.8710  152.1390   60.4940 C.3       1 6PY         0.0257
      6 C01       378.0310  153.6720   62.4300 C.3       1 6PY         0.1378
      7 C02       376.5600  154.1130   62.4130 C.3       1 6PY         0.1165
      8 C03       376.4830  155.6390   62.3340 C.3       1 6PY         0.1182
      9 C04       377.4840  156.3120   63.3030 C.2       1 6PY        -0.0168
     10 C05       378.5560  155.6200   63.7560 C.2       1 6PY         0.1099
     11 O06       378.6810  154.2930   63.4720 O.3       1 6PY        -0.3184
     12 C07       378.1920  152.1830   62.6050 C.3       1 6PY         0.1482
     13 C08       379.6460  151.7510   62.5350 C.3       1 6PY         0.1114
     14 C09       379.7930  150.2760   62.7600 C.3       1 6PY         0.0730
     15 O10       379.2040  149.4680   61.7770 O.3       1 6PY        -0.3924
     16 O11       377.7250  151.8440   63.8380 O.3       1 6PY        -0.2548
     17 O13       380.1510  152.1260   61.3320 O.3       1 6PY        -0.3865
     18 C14       374.1720  156.1160   61.6020 C.cat     1 6PY         0.2902
     19 N15       372.8810  156.4010   62.0150 N.pl3     1 6PY        -0.2847
     20 N16       374.4620  155.9480   60.3510 N.pl3     1 6PY        -0.2847
     21 O18       377.5400  148.0800   66.2130 O.3       1 6PY        -0.3810
     22 C19       376.3690  147.8740   65.4770 C.3       1 6PY         0.0674
     23 N22       376.5870  150.2620   65.2140 N.am      1 6PY        -0.2603
     24 O23       376.1580  150.4530   62.9910 O.2       1 6PY        -0.3775
     25 N25       375.8360  153.4370   61.4020 N.am      1 6PY        -0.2758
     26 O26       374.0540  152.8460   62.6900 O.2       1 6PY        -0.3974
     27 C27       374.5780  152.8280   61.6410 C.2       1 6PY         0.1735
     28 C29       379.6400  156.2930   64.5650 C.2       1 6PY         0.0810
     29 O30       380.6330  155.6510   64.8860 O.co2     1 6PY        -0.5623
     30 O31       379.5730  157.4680   64.8410 O.co2     1 6PY        -0.5623
     31 H1        374.8812  156.1580   63.6164 H         1 6PY         0.2667
     32 H2        378.8626  147.3161   67.5766 H         1 6PY         0.0523
     33 H3        378.1092  146.1286   66.4591 H         1 6PY         0.0523
     34 H4        377.1439  146.8423   67.7953 H         1 6PY         0.0523
     35 H5        375.1425  149.3541   66.3972 H         1 6PY         0.0542
     36 H6        374.9166  149.1794   64.6237 H         1 6PY         0.0542
     37 H7        372.9161  151.7236   60.8484 H         1 6PY         0.0467
     38 H8        374.5039  151.3261   60.1084 H         1 6PY         0.0467
     39 H9        373.6790  152.8665   59.6915 H         1 6PY         0.0467
     40 H10       378.4957  153.9692   61.4783 H         1 6PY         0.0701
     41 H11       376.1121  153.8178   63.3733 H         1 6PY         0.0645
     42 H12       376.7213  155.9631   61.3102 H         1 6PY         0.0872
     43 H13       377.3264  157.3417   63.6205 H         1 6PY         0.0492
     44 H14       377.6177  151.6620   61.8248 H         1 6PY         0.0705
     45 H15       380.2045  152.2721   63.3265 H         1 6PY         0.0647
     46 H16       379.3303  150.0299   63.7271 H         1 6PY         0.0584
     47 H17       380.8670  150.0412   62.7970 H         1 6PY         0.0584
     48 H18       379.5997  149.6572   60.9343 H         1 6PY         0.2095
     49 H19       379.6886  151.6690   60.6394 H         1 6PY         0.2100
     50 H20       372.1287  156.5043   61.3191 H         1 6PY         0.2615
     51 H21       372.6733  156.5096   63.0180 H         1 6PY         0.2615
     52 H22       375.4304  155.7369   60.0707 H         1 6PY         0.2615
     53 H23       373.7243  156.0255   59.6364 H         1 6PY         0.2615
     54 H24       376.6141  147.5438   64.4568 H         1 6PY         0.0580
     55 H25       375.7404  147.1158   65.9668 H         1 6PY         0.0580
     56 H26       377.1163  150.6185   65.9839 H         1 6PY         0.1868
     57 H27       376.2271  153.3869   60.4830 H         1 6PY         0.1858
@<TRIPOS>BOND
     1    8    1 1  
     2    1   18 ar 
     3   21    2 1  
     4    3   22 1  
     5   23    3 1  
     6   16    4 1  
     7    4   23 am 
     8    4   24 2  
     9   27    5 1  
    10    7    6 1  
    11    6   11 1  
    12    6   12 1  
    13    7    8 1  
    14   25    7 1  
    15    8    9 1  
    16    9   10 2  
    17   11   10 1  
    18   10   28 1  
    19   12   13 1  
    20   12   16 1  
    21   13   14 1  
    22   13   17 1  
    23   14   15 1  
    24   18   19 ar 
    25   18   20 ar 
    26   22   21 1  
    27   25   27 am 
    28   27   26 2  
    29   28   29 ar 
    30   28   30 ar 
    31    1   31 1  
    32    2   32 1  
    33    2   33 1  
    34    2   34 1  
    35    3   35 1  
    36    3   36 1  
    37    5   37 1  
    38    5   38 1  
    39    5   39 1  
    40    6   40 1  
    41    7   41 1  
    42    8   42 1  
    43    9   43 1  
    44   12   44 1  
    45   13   45 1  
    46   14   46 1  
    47   14   47 1  
    48   15   48 1  
    49   17   49 1  
    50   19   50 1  
    51   19   51 1  
    52   20   52 1  
    53   20   53 1  
    54   22   54 1  
    55   22   55 1  
    56   23   56 1  
    57   25   57 1  
@<TRIPOS>SUBSTRUCTURE
     1 6PY         1

