### 
### Created by X-TOOL on Mon Sep 10 21:13:33 2018
### 

@<TRIPOS>MOLECULE
5jz9_ligand
   16    16     1     0     0
SMALL
GAST_HUCK


@<TRIPOS>ATOM
      1 C01        -8.1530   -1.1940  -12.7790 C.ar      1 6OR        -0.0346
      2 C02        -7.2830   -0.9030  -11.7390 C.ar      1 6OR         0.0412
      3 C03        -6.0620   -0.3090  -12.0190 C.ar      1 6OR        -0.0346
      4 C04        -5.7140   -0.0090  -13.3250 C.ar      1 6OR         0.0700
      5 C05        -6.5830   -0.3030  -14.3600 C.ar      1 6OR         0.1165
      6 C06        -7.8030   -0.8930  -14.0880 C.ar      1 6OR         0.0700
      7 CL7        -8.8700   -1.2480  -15.3980 Cl        1 6OR        -0.0788
      8 O08        -6.2410   -0.0050  -15.6610 O.3       1 6OR        -0.3313
      9 CL9        -4.1940    0.7320  -13.6680 Cl        1 6OR        -0.0788
     10 S10        -7.7370   -1.2930  -10.0730 S.o2      1 6OR        -0.1680
     11 O11        -7.8920   -0.0620   -9.2070 O.co2     1 6OR        -0.4811
     12 O12        -9.1380   -1.8540  -10.0080 O.co2     1 6OR        -0.4811
     13 O13        -6.7420   -2.2560   -9.4660 O.co2     1 6OR        -0.4811
     14 H1         -9.1098   -1.6582  -12.5689 H         1 6OR         0.0614
     15 H2         -5.3765   -0.0784  -11.2115 H         1 6OR         0.0614
     16 H3         -5.3785    0.3930  -15.6773 H         1 6OR         0.2489
@<TRIPOS>BOND
     1    1    2 ar 
     2    1    6 ar 
     3    2    3 ar 
     4    2   10 1  
     5    3    4 ar 
     6    4    5 ar 
     7    4    9 1  
     8    5    6 ar 
     9    5    8 1  
    10    6    7 1  
    11   10   11 ar 
    12   10   12 ar 
    13   10   13 ar 
    14    1   14 1  
    15    3   15 1  
    16    8   16 1  
@<TRIPOS>SUBSTRUCTURE
     1 6OR         1

