### 
### Created by X-TOOL on Mon Sep 10 21:13:33 2018
### 

@<TRIPOS>MOLECULE
5jzb_ligand
   17    17     1     0     0
SMALL
GAST_HUCK


@<TRIPOS>ATOM
      1 N12         2.8780   -2.5190   16.1880 N.am      1 6OT        -0.2610
      2 C01         4.5680    1.6570   14.3360 C.ar      1 6OT         0.0428
      3 C02         5.7160    1.2020   13.7030 C.ar      1 6OT        -0.0338
      4 C03         5.8680   -0.1470   13.4160 C.ar      1 6OT         0.0428
      5 C04         4.8670   -1.0380   13.7630 C.ar      1 6OT        -0.0211
      6 C05         3.7260   -0.5780   14.3980 C.ar      1 6OT         0.1089
      7 C06         3.5660    0.7660   14.6870 C.ar      1 6OT        -0.0211
      8 CL7         4.3970    3.3410   14.6820 Cl        1 6OT        -0.0706
      9 CL8         7.2960   -0.7110   12.6260 Cl        1 6OT        -0.0706
     10 S09         2.4660   -1.7210   14.8290 S.o2      1 6OT         0.0659
     11 O10         1.1930   -1.0530   14.9660 O.2       1 6OT        -0.1505
     12 O11         2.2220   -2.6120   13.7210 O.2       1 6OT        -0.1505
     13 H1          2.2629   -3.2097   16.5682 H         1 6OT         0.1635
     14 H2          3.7461   -2.3182   16.6421 H         1 6OT         0.1635
     15 H3          6.4970    1.9031   13.4317 H         1 6OT         0.0629
     16 H4          4.9762   -2.0928   13.5382 H         1 6OT         0.0644
     17 H5          2.6679    1.1176   15.1819 H         1 6OT         0.0644
@<TRIPOS>BOND
     1   10    1 am 
     2    2    3 ar 
     3    7    2 ar 
     4    2    8 1  
     5    4    3 ar 
     6    5    4 ar 
     7    4    9 1  
     8    6    5 ar 
     9    6    7 ar 
    10    6   10 1  
    11   10   11 2  
    12   10   12 2  
    13    1   13 1  
    14    1   14 1  
    15    3   15 1  
    16    5   16 1  
    17    7   17 1  
@<TRIPOS>SUBSTRUCTURE
     1 6OT         1

