### 
### Created by X-TOOL on Mon Sep 10 21:13:33 2018
### 

@<TRIPOS>MOLECULE
5jzi_ligand
  155   154     1     0     0
SMALL
GAST_HUCK


@<TRIPOS>ATOM
      1 N         -84.1530   73.5870   33.7230 N.4       1 LYS         0.2379
      2 CA        -83.5270   72.6370   32.7650 C.3       1 LYS         0.0650
      3 C         -84.3380   72.6150   31.4720 C.2       1 LYS         0.2267
      4 O         -85.5650   72.5520   31.5010 O.2       1 LYS        -0.3907
      5 CB        -83.4370   71.2400   33.3810 C.3       1 LYS         0.0080
      6 CG        -82.5110   70.2950   32.6440 C.3       1 LYS        -0.0410
      7 CD        -82.0580   69.1560   33.5400 C.3       1 LYS        -0.0123
      8 CE        -80.9870   68.3140   32.8690 C.3       1 LYS        -0.0354
      9 NZ        -80.5360   67.1860   33.7280 N.4       1 LYS         0.2185
     10 N         -83.6450   72.6680   30.3410 N.am      1 LEU        -0.2610
     11 CA        -84.2980   72.7730   29.0410 C.3       1 LEU         0.1313
     12 C         -85.0260   71.5050   28.6480 C.2       1 LEU         0.2039
     13 O         -84.8600   70.4570   29.2690 O.2       1 LEU        -0.3944
     14 CB        -83.2770   73.1140   27.9570 C.3       1 LEU        -0.0101
     15 CG        -82.6740   74.5140   28.0010 C.3       1 LEU        -0.0425
     16 CD1       -81.4990   74.5990   27.0490 C.3       1 LEU        -0.0625
     17 CD2       -83.7230   75.5480   27.6470 C.3       1 LEU        -0.0625
     18 N         -85.8350   71.6190   27.6030 N.am      1 VAL        -0.2635
     19 CA        -86.5320   70.4740   27.0490 C.3       1 VAL         0.1332
     20 C         -85.5320   69.5730   26.3500 C.2       1 VAL         0.2041
     21 O         -84.8180   70.0050   25.4470 O.2       1 VAL        -0.3944
     22 CB        -87.6230   70.9160   26.0520 C.3       1 VAL        -0.0063
     23 CG1       -88.1910   69.7220   25.2880 C.3       1 VAL        -0.0584
     24 CG2       -88.7240   71.6540   26.7770 C.3       1 VAL        -0.0584
     25 N         -85.4940   68.3150   26.7720 N.am      1 ALA        -0.2640
     26 CA        -84.6500   67.3180   26.1350 C.3       1 ALA         0.1282
     27 C         -85.4650   66.5670   25.0980 C.2       1 ALA         0.2036
     28 O         -84.9240   66.0600   24.1160 O.2       1 ALA        -0.3944
     29 CB        -84.0800   66.3660   27.1650 C.3       1 ALA        -0.0244
     30 N         -86.7740   66.5110   25.3270 N.am      1 LEU        -0.2637
     31 CA        -87.6880   65.8150   24.4340 C.3       1 LEU         0.1312
     32 C         -88.9860   66.6060   24.2800 C.2       1 LEU         0.2037
     33 O         -89.6860   66.8600   25.2580 O.2       1 LEU        -0.3944
     34 CB        -87.9660   64.4100   24.9660 C.3       1 LEU        -0.0101
     35 CG        -88.3630   63.3500   23.9410 C.3       1 LEU        -0.0425
     36 CD1       -87.6010   62.0570   24.1920 C.3       1 LEU        -0.0625
     37 CD2       -89.8570   63.1110   23.9840 C.3       1 LEU        -0.0625
     38 N         -89.3000   66.9930   23.0480 N.am      1 GLY        -0.2664
     39 CA        -90.5180   67.7290   22.7690 C.3       1 GLY         0.1201
     40 C         -90.3550   68.7850   21.6930 C.2       1 GLY         0.2008
     41 O         -91.3090   69.1130   20.9880 O.2       1 GLY        -0.3947
     42 N         -89.1510   69.3310   21.5720 N.am      1 ILE        -0.2637
     43 CA        -88.8870   70.3680   20.5830 C.3       1 ILE         0.1335
     44 C         -88.9510   69.8020   19.1670 C.2       1 ILE         0.2043
     45 O         -88.0910   69.0240   18.7520 O.2       1 ILE        -0.3944
     46 CB        -87.5150   71.0390   20.8000 C.3       1 ILE        -0.0037
     47 CG1       -87.3850   71.5670   22.2320 C.3       1 ILE        -0.0491
     48 CG2       -87.3120   72.1730   19.7960 C.3       1 ILE        -0.0582
     49 CD1       -88.4360   72.5970   22.6170 C.3       1 ILE        -0.0648
     50 N         -89.9870   70.2000   18.4390 N.am      1 ASN        -0.2616
     51 CA        -90.1430   69.8390   17.0410 C.3       1 ASN         0.1476
     52 C         -90.1730   71.1020   16.2070 C.2       1 ASN         0.2062
     53 O         -90.3190   72.2010   16.7410 O.2       1 ASN        -0.3942
     54 CB        -91.4240   69.0350   16.8240 C.3       1 ASN         0.0773
     55 CG        -91.3830   67.6770   17.4930 C.2       1 ASN         0.1780
     56 OD1       -91.2410   66.6490   16.8310 O.2       1 ASN        -0.3970
     57 ND2       -91.4990   67.6670   18.8130 N.am      1 ASN        -0.3007
     58 N         -90.0300   70.9470   14.8970 N.am      1 ALA        -0.2639
     59 CA        -90.1010   72.0800   13.9890 C.3       1 ALA         0.1282
     60 C         -91.5530   72.3310   13.5900 C.2       1 ALA         0.2031
     61 O         -92.4060   71.4600   13.7490 O.2       1 ALA        -0.3944
     62 CB        -89.2400   71.8310   12.7670 C.3       1 ALA        -0.0244
     63 N         -91.8240   73.5270   13.0760 N.am      1 VAL        -0.2692
     64 CA        -93.1770   73.9150   12.6840 C.3       1 VAL         0.0967
     65 C         -93.5750   73.3470   11.3220 C.2       1 VAL         0.0603
     66 O         -94.7520   73.3340   10.9560 O.co2     1 VAL        -0.5666
     67 CB        -93.3250   75.4500   12.6430 C.3       1 VAL        -0.0118
     68 CG1       -93.0660   76.0400   14.0170 C.3       1 VAL        -0.0590
     69 CG2       -92.3850   76.0580   11.6110 C.3       1 VAL        -0.0590
     70 OXT       -92.7300   72.8950   10.5520 O.co2     1 VAL        -0.5666
     71 H1        -83.6189   73.6030   34.5777 H         1 LYS         0.2015
     72 H2        -85.0960   73.2914   33.9216 H         1 LYS         0.2015
     73 H3        -84.1683   74.5104   33.3190 H         1 LYS         0.2015
     74 H4        -82.5083   72.9834   32.5363 H         1 LYS         0.1098
     75 H5        -84.4452   70.8001   33.3871 H         1 LYS         0.0346
     76 H6        -83.0749   71.3414   34.4147 H         1 LYS         0.0346
     77 H7        -81.6279   70.8538   32.3007 H         1 LYS         0.0270
     78 H8        -83.0417   69.8782   31.7753 H         1 LYS         0.0270
     79 H9        -82.9229   68.5168   33.7709 H         1 LYS         0.0317
     80 H10       -81.6518   69.5744   34.4727 H         1 LYS         0.0317
     81 H11       -80.1220   68.9552   32.6440 H         1 LYS         0.0813
     82 H12       -81.3936   67.9049   31.9324 H         1 LYS         0.0813
     83 H13       -79.8279   66.6570   33.2435 H         1 LYS         0.1994
     84 H14       -81.3199   66.5871   33.9352 H         1 LYS         0.1994
     85 H15       -80.1546   67.5496   34.5873 H         1 LYS         0.1994
     86 H16       -82.6464   72.6350   30.3815 H         1 LEU         0.1884
     87 H17       -85.0348   73.5877   29.0983 H         1 LEU         0.0800
     88 H18       -83.7731   72.9952   26.9824 H         1 LEU         0.0315
     89 H19       -82.4507   72.3924   28.0383 H         1 LEU         0.0315
     90 H20       -82.3156   74.7128   29.0218 H         1 LEU         0.0298
     91 H21       -81.0695   75.6110   27.0862 H         1 LEU         0.0232
     92 H22       -81.8397   74.3827   26.0257 H         1 LEU         0.0232
     93 H23       -80.7344   73.8652   27.3437 H         1 LEU         0.0232
     94 H24       -84.5664   75.4699   28.3489 H         1 LEU         0.0232
     95 H25       -84.0813   75.3709   26.6222 H         1 LEU         0.0232
     96 H26       -83.2831   76.5541   27.7130 H         1 LEU         0.0232
     97 H27       -85.9679   72.5182   27.1861 H         1 VAL         0.1883
     98 H28       -87.0079   69.9164   27.8691 H         1 VAL         0.0802
     99 H29       -87.1663   71.6029   25.3243 H         1 VAL         0.0343
    100 H30       -88.9644   70.0694   24.5871 H         1 VAL         0.0234
    101 H31       -88.6340   69.0089   25.9988 H         1 VAL         0.0234
    102 H32       -87.3838   69.2276   24.7276 H         1 VAL         0.0234
    103 H33       -88.2960   72.5092   27.3205 H         1 VAL         0.0234
    104 H34       -89.2133   70.9742   27.4900 H         1 VAL         0.0234
    105 H35       -89.4643   72.0160   26.0484 H         1 VAL         0.0234
    106 H36       -86.0619   68.0458   27.5498 H         1 ALA         0.1883
    107 H37       -83.8159   67.8275   25.6303 H         1 ALA         0.0797
    108 H38       -83.4453   65.6205   26.6636 H         1 ALA         0.0277
    109 H39       -84.9025   65.8554   27.6873 H         1 ALA         0.0277
    110 H40       -83.4780   66.9303   27.8924 H         1 ALA         0.0277
    111 H41       -87.1423   66.9622   26.1399 H         1 LEU         0.1883
    112 H42       -87.2146   65.7270   23.4450 H         1 LEU         0.0800
    113 H43       -88.7835   64.4873   25.6979 H         1 LEU         0.0315
    114 H44       -87.0538   64.0591   25.4708 H         1 LEU         0.0315
    115 H45       -88.0994   63.7186   22.9387 H         1 LEU         0.0298
    116 H46       -87.8985   61.3054   23.4460 H         1 LEU         0.0232
    117 H47       -87.8332   61.6844   25.2006 H         1 LEU         0.0232
    118 H48       -86.5205   62.2465   24.1108 H         1 LEU         0.0232
    119 H49       -90.3853   64.0582   23.8002 H         1 LEU         0.0232
    120 H50       -90.1376   62.7207   24.9734 H         1 LEU         0.0232
    121 H51       -90.1339   62.3805   23.2096 H         1 LEU         0.0232
    122 H52       -88.6810   66.7712   22.2946 H         1 GLY         0.1881
    123 H53       -90.8455   68.2238   23.6952 H         1 GLY         0.0763
    124 H54       -91.2887   67.0154   22.4422 H         1 GLY         0.0763
    125 H55       -88.4111   69.0248   22.1710 H         1 ILE         0.1883
    126 H56       -89.6661   71.1378   20.6851 H         1 ILE         0.0803
    127 H57       -86.7312   70.2848   20.6365 H         1 ILE         0.0345
    128 H58       -86.3931   72.0301   22.3398 H         1 ILE         0.0267
    129 H59       -87.4687   70.7148   22.9224 H         1 ILE         0.0267
    130 H60       -87.4081   71.7790   18.7735 H         1 ILE         0.0235
    131 H61       -86.3096   72.6058   19.9294 H         1 ILE         0.0235
    132 H62       -88.0722   72.9505   19.9623 H         1 ILE         0.0235
    133 H63       -88.2693   72.9205   23.6551 H         1 ILE         0.0230
    134 H64       -89.4372   72.1500   22.5286 H         1 ILE         0.0230
    135 H65       -88.3615   73.4654   21.9459 H         1 ILE         0.0230
    136 H66       -90.6867   70.7701   18.8695 H         1 ASN         0.1885
    137 H67       -89.2843   69.2244   16.7329 H         1 ASN         0.0826
    138 H68       -91.5698   68.8904   15.7433 H         1 ASN         0.0551
    139 H69       -92.2706   69.6043   17.2353 H         1 ASN         0.0551
    140 H70       -91.4790   66.7996   19.3101 H         1 ASN         0.1814
    141 H71       -91.6066   68.5269   19.3120 H         1 ASN         0.1814
    142 H72       -89.8701   70.0319   14.5267 H         1 ALA         0.1883
    143 H73       -89.7204   72.9722   14.5077 H         1 ALA         0.0797
    144 H74       -89.3043   72.6961   12.0907 H         1 ALA         0.0277
    145 H75       -89.5957   70.9304   12.2451 H         1 ALA         0.0277
    146 H76       -88.1950   71.6858   13.0781 H         1 ALA         0.0277
    147 H77       -91.0781   74.1817   12.9538 H         1 VAL         0.1875
    148 H78       -93.8718   73.5178   13.4386 H         1 VAL         0.0729
    149 H79       -94.3581   75.6903   12.3517 H         1 VAL         0.0336
    150 H80       -93.1749   77.1337   13.9728 H         1 VAL         0.0234
    151 H81       -92.0453   75.7859   14.3387 H         1 VAL         0.0234
    152 H82       -93.7901   75.6282   14.7353 H         1 VAL         0.0234
    153 H83       -92.5894   75.6172   10.6241 H         1 VAL         0.0234
    154 H84       -91.3432   75.8504   11.8966 H         1 VAL         0.0234
    155 H85       -92.5433   77.1456   11.5666 H         1 VAL         0.0234
@<TRIPOS>BOND
     1    1    2 1  
     2    2    3 1  
     3    2    5 1  
     4    3    4 2  
     5    3   10 am 
     6    5    6 1  
     7    6    7 1  
     8    7    8 1  
     9    8    9 1  
    10   10   11 1  
    11   11   12 1  
    12   11   14 1  
    13   12   13 2  
    14   12   18 am 
    15   14   15 1  
    16   15   16 1  
    17   15   17 1  
    18   18   19 1  
    19   19   20 1  
    20   19   22 1  
    21   20   21 2  
    22   20   25 am 
    23   22   23 1  
    24   22   24 1  
    25   25   26 1  
    26   26   27 1  
    27   26   29 1  
    28   27   28 2  
    29   27   30 am 
    30   30   31 1  
    31   31   32 1  
    32   31   34 1  
    33   32   33 2  
    34   32   38 am 
    35   34   35 1  
    36   35   36 1  
    37   35   37 1  
    38   38   39 1  
    39   39   40 1  
    40   40   41 2  
    41   40   42 am 
    42   42   43 1  
    43   43   44 1  
    44   43   46 1  
    45   44   45 2  
    46   44   50 am 
    47   46   47 1  
    48   46   48 1  
    49   47   49 1  
    50   50   51 1  
    51   51   52 1  
    52   51   54 1  
    53   52   53 2  
    54   52   58 am 
    55   54   55 1  
    56   55   56 2  
    57   55   57 am 
    58   58   59 1  
    59   59   60 1  
    60   59   62 1  
    61   60   61 2  
    62   60   63 am 
    63   63   64 1  
    64   64   65 1  
    65   64   67 1  
    66   65   66 ar 
    67   65   70 ar 
    68   67   68 1  
    69   67   69 1  
    70    1   71 1  
    71    1   72 1  
    72    1   73 1  
    73    2   74 1  
    74    5   75 1  
    75    5   76 1  
    76    6   77 1  
    77    6   78 1  
    78    7   79 1  
    79    7   80 1  
    80    8   81 1  
    81    8   82 1  
    82    9   83 1  
    83    9   84 1  
    84    9   85 1  
    85   10   86 1  
    86   11   87 1  
    87   14   88 1  
    88   14   89 1  
    89   15   90 1  
    90   16   91 1  
    91   16   92 1  
    92   16   93 1  
    93   17   94 1  
    94   17   95 1  
    95   17   96 1  
    96   18   97 1  
    97   19   98 1  
    98   22   99 1  
    99   23  100 1  
   100   23  101 1  
   101   23  102 1  
   102   24  103 1  
   103   24  104 1  
   104   24  105 1  
   105   25  106 1  
   106   26  107 1  
   107   29  108 1  
   108   29  109 1  
   109   29  110 1  
   110   30  111 1  
   111   31  112 1  
   112   34  113 1  
   113   34  114 1  
   114   35  115 1  
   115   36  116 1  
   116   36  117 1  
   117   36  118 1  
   118   37  119 1  
   119   37  120 1  
   120   37  121 1  
   121   38  122 1  
   122   39  123 1  
   123   39  124 1  
   124   42  125 1  
   125   43  126 1  
   126   46  127 1  
   127   47  128 1  
   128   47  129 1  
   129   48  130 1  
   130   48  131 1  
   131   48  132 1  
   132   49  133 1  
   133   49  134 1  
   134   49  135 1  
   135   50  136 1  
   136   51  137 1  
   137   54  138 1  
   138   54  139 1  
   139   57  140 1  
   140   57  141 1  
   141   58  142 1  
   142   59  143 1  
   143   62  144 1  
   144   62  145 1  
   145   62  146 1  
   146   63  147 1  
   147   64  148 1  
   148   67  149 1  
   149   68  150 1  
   150   68  151 1  
   151   68  152 1  
   152   69  153 1  
   153   69  154 1  
   154   69  155 1  
@<TRIPOS>SUBSTRUCTURE
     1 LYS         1

