### 
### Created by X-TOOL on Mon Sep 10 21:13:27 2018
### 

@<TRIPOS>MOLECULE
5jzn_ligand
   84    88     1     0     0
SMALL
GAST_HUCK


@<TRIPOS>ATOM
      1 C1         25.0550  134.0460  -31.3030 C.ar      1 GUI         0.0977
      2 C2         25.8650  132.8150  -31.2160 C.ar      1 GUI         0.1474
      3 N3         27.1890  132.9620  -31.0610 N.ar      1 GUI        -0.2355
      4 C4         27.7820  134.1730  -30.9830 C.ar      1 GUI         0.1902
      5 N5         27.0360  135.3020  -31.0730 N.ar      1 GUI        -0.2698
      6 C6         25.7060  135.2670  -31.2290 C.ar      1 GUI         0.0145
      7 N7         29.1320  134.2780  -30.8300 N.pl3     1 GUI        -0.2542
      8 C8         30.0110  133.2340  -30.7540 C.ar      1 GUI         0.0831
      9 C9         29.7330  132.0320  -30.1140 C.ar      1 GUI        -0.0568
     10 C10        30.6780  131.0140  -30.0680 C.ar      1 GUI        -0.0642
     11 C11        31.9400  131.1440  -30.6430 C.ar      1 GUI         0.0202
     12 C12        32.2800  132.3390  -31.2710 C.ar      1 GUI        -0.0241
     13 C13        31.3600  133.3840  -31.3510 C.ar      1 GUI         0.1048
     14 O14        31.6800  134.5620  -31.9740 O.3       1 GUI        -0.3280
     15 C15        32.2580  134.5330  -33.2770 C.3       1 GUI         0.0568
     16 N16        32.8600  130.0710  -30.5280 N.pl3     1 GUI        -0.3162
     17 C17        32.2430  128.7780  -30.8780 C.3       1 GUI         0.0297
     18 C18        33.1760  127.6460  -30.4610 C.3       1 GUI         0.0097
     19 C19        34.5620  127.7910  -31.0860 C.3       1 GUI        -0.0169
     20 C20        35.0860  129.2200  -30.9370 C.3       1 GUI         0.0097
     21 C21        34.0590  130.2660  -31.3550 C.3       1 GUI         0.0297
     22 N22        35.5260  126.9090  -30.4080 N.4       1 GUI         0.2449
     23 C23        36.7870  126.8800  -31.1680 C.3       1 GUI         0.0097
     24 C24        37.8240  126.1440  -30.3250 C.3       1 GUI         0.0092
     25 N25        37.3650  124.7780  -30.0080 N.4       1 GUI         0.2405
     26 C26        36.0300  124.7840  -29.3760 C.3       1 GUI         0.0092
     27 C27        35.0250  125.5310  -30.2540 C.3       1 GUI         0.0097
     28 C28        38.3310  124.1560  -29.0910 C.3       1 GUI        -0.0427
     29 N29        25.2560  131.6030  -31.2820 N.pl3     1 GUI        -0.2538
     30 C30        25.8450  130.3740  -31.1900 C.ar      1 GUI         0.0891
     31 C31        25.1050  129.2410  -30.5550 C.ar      1 GUI         0.1116
     32 C32        25.7260  127.9970  -30.4880 C.ar      1 GUI        -0.0464
     33 C33        27.0150  127.8010  -30.9770 C.ar      1 GUI        -0.0715
     34 C34        27.7130  128.8500  -31.5600 C.ar      1 GUI        -0.0713
     35 C35        27.1350  130.1160  -31.6660 C.ar      1 GUI        -0.0363
     36 S36        23.6210  129.4060  -29.9790 S.o2      1 GUI        -0.0030
     37 C37        23.5970  129.7170  -28.3260 C.3       1 GUI         0.0748
     38 C38        24.3580  130.9880  -27.9580 C.3       1 GUI        -0.0429
     39 C39        24.1290  128.5270  -27.5280 C.3       1 GUI        -0.0429
     40 O40        22.8940  128.1920  -30.2540 O.2       1 GUI        -0.1707
     41 O41        22.9580  130.5060  -30.6240 O.2       1 GUI        -0.1707
     42 CL         23.2770  133.9300  -31.5220 Cl        1 GUI        -0.0753
     43 H1         25.1414  136.1899  -31.2971 H         1 GUI         0.0853
     44 H2         29.5248  135.2280  -30.7660 H         1 GUI         0.2118
     45 H3         28.7667  131.8867  -29.6447 H         1 GUI         0.0475
     46 H4         30.4242  130.0867  -29.5673 H         1 GUI         0.0397
     47 H5         33.2678  132.4582  -31.7013 H         1 GUI         0.0409
     48 H6         32.4469  135.5618  -33.6173 H         1 GUI         0.0573
     49 H7         31.5662  134.0375  -33.9741 H         1 GUI         0.0573
     50 H8         33.2068  133.9774  -33.2450 H         1 GUI         0.0573
     51 H9         32.0736  128.7335  -31.9639 H         1 GUI         0.0511
     52 H10        31.2822  128.6749  -30.3524 H         1 GUI         0.0511
     53 H11        32.7395  126.6888  -30.7821 H         1 GUI         0.0339
     54 H12        33.2773  127.6538  -29.3657 H         1 GUI         0.0339
     55 H13        34.5026  127.5279  -32.1524 H         1 GUI         0.0852
     56 H14        35.9816  129.3345  -31.5654 H         1 GUI         0.0339
     57 H15        35.3531  129.3895  -29.8835 H         1 GUI         0.0339
     58 H16        34.4654  131.2753  -31.1934 H         1 GUI         0.0511
     59 H17        33.8058  130.1384  -32.4178 H         1 GUI         0.0511
     60 H18        35.7057  127.2850  -29.4902 H         1 GUI         0.2040
     61 H19        37.1274  127.9069  -31.3671 H         1 GUI         0.0868
     62 H20        36.6371  126.3521  -32.1213 H         1 GUI         0.0868
     63 H21        37.9858  126.6969  -29.3880 H         1 GUI         0.0868
     64 H22        38.7692  126.0864  -30.8847 H         1 GUI         0.0868
     65 H23        37.3192  124.2423  -30.8606 H         1 GUI         0.2035
     66 H24        36.0952  125.2813  -28.3970 H         1 GUI         0.0868
     67 H25        35.6899  123.7470  -29.2386 H         1 GUI         0.0868
     68 H26        34.9487  125.0449  -31.2378 H         1 GUI         0.0868
     69 H27        34.0363  125.5404  -29.7719 H         1 GUI         0.0868
     70 H28        39.3272  124.1492  -29.5574 H         1 GUI         0.0778
     71 H29        38.0198  123.1231  -28.8759 H         1 GUI         0.0778
     72 H30        38.3690  124.7303  -28.1536 H         1 GUI         0.0778
     73 H31        24.2349  131.6114  -31.4166 H         1 GUI         0.2165
     74 H32        25.1944  127.1624  -30.0454 H         1 GUI         0.0606
     75 H33        27.4765  126.8230  -30.9020 H         1 GUI         0.0520
     76 H34        28.7160  128.6843  -31.9363 H         1 GUI         0.0587
     77 H35        27.6989  130.9182  -32.1280 H         1 GUI         0.0537
     78 H36        22.5461  129.8680  -28.0384 H         1 GUI         0.0533
     79 H37        24.3099  131.1421  -26.8699 H         1 GUI         0.0248
     80 H38        23.9038  131.8488  -28.4706 H         1 GUI         0.0248
     81 H39        25.4087  130.8891  -28.2682 H         1 GUI         0.0248
     82 H40        24.0996  128.7631  -26.4540 H         1 GUI         0.0248
     83 H41        25.1661  128.3178  -27.8291 H         1 GUI         0.0248
     84 H42        23.5042  127.6437  -27.7264 H         1 GUI         0.0248
@<TRIPOS>BOND
     1    1    2 ar 
     2    1    6 ar 
     3    1   42 1  
     4    2    3 ar 
     5    2   29 1  
     6    3    4 ar 
     7    4    5 ar 
     8    4    7 1  
     9    5    6 ar 
    10    7    8 1  
    11    8    9 ar 
    12    8   13 ar 
    13    9   10 ar 
    14   10   11 ar 
    15   11   12 ar 
    16   11   16 1  
    17   12   13 ar 
    18   13   14 1  
    19   14   15 1  
    20   16   17 1  
    21   16   21 1  
    22   17   18 1  
    23   18   19 1  
    24   19   20 1  
    25   19   22 1  
    26   20   21 1  
    27   22   23 1  
    28   22   27 1  
    29   23   24 1  
    30   24   25 1  
    31   25   26 1  
    32   25   28 1  
    33   26   27 1  
    34   29   30 1  
    35   30   31 ar 
    36   30   35 ar 
    37   31   32 ar 
    38   31   36 1  
    39   32   33 ar 
    40   33   34 ar 
    41   34   35 ar 
    42   36   37 1  
    43   36   40 2  
    44   36   41 2  
    45   37   38 1  
    46   37   39 1  
    47    6   43 1  
    48    7   44 1  
    49    9   45 1  
    50   10   46 1  
    51   12   47 1  
    52   15   48 1  
    53   15   49 1  
    54   15   50 1  
    55   17   51 1  
    56   17   52 1  
    57   18   53 1  
    58   18   54 1  
    59   19   55 1  
    60   20   56 1  
    61   20   57 1  
    62   21   58 1  
    63   21   59 1  
    64   22   60 1  
    65   23   61 1  
    66   23   62 1  
    67   24   63 1  
    68   24   64 1  
    69   25   65 1  
    70   26   66 1  
    71   26   67 1  
    72   27   68 1  
    73   27   69 1  
    74   28   70 1  
    75   28   71 1  
    76   28   72 1  
    77   29   73 1  
    78   32   74 1  
    79   33   75 1  
    80   34   76 1  
    81   35   77 1  
    82   37   78 1  
    83   38   79 1  
    84   38   80 1  
    85   38   81 1  
    86   39   82 1  
    87   39   83 1  
    88   39   84 1  
@<TRIPOS>SUBSTRUCTURE
     1 GUI         1

