### 
### Created by X-TOOL on Mon Sep 10 21:13:33 2018
### 

@<TRIPOS>MOLECULE
5jzs_ligand
   15    15     1     0     0
SMALL
GAST_HUCK


@<TRIPOS>ATOM
      1 O01       -19.9810  -17.3580  -35.1100 O.co2     1 FGZ        -0.5636
      2 C02       -20.2340  -16.3240  -34.4610 C.2       1 FGZ         0.0558
      3 O03       -20.0710  -15.1680  -34.9470 O.co2     1 FGZ        -0.5636
      4 C04       -20.7460  -16.4900  -33.0660 C.ar      1 FGZ         0.0002
      5 C05       -21.4740  -17.6030  -32.6740 C.ar      1 FGZ        -0.0420
      6 C06       -21.9150  -17.6860  -31.3580 C.ar      1 FGZ         0.0722
      7 CL1       -22.8440  -19.0810  -30.8360 Cl        1 FGZ        -0.0780
      8 C08       -21.6210  -16.6560  -30.4560 C.ar      1 FGZ         0.1196
      9 O09       -22.0710  -16.7470  -29.1150 O.3       1 FGZ        -0.3292
     10 C10       -20.8760  -15.5530  -30.8840 C.ar      1 FGZ         0.0722
     11 CL2       -20.4430  -14.1980  -29.8590 Cl        1 FGZ        -0.0780
     12 C12       -20.4470  -15.4800  -32.1900 C.ar      1 FGZ        -0.0420
     13 H1        -21.6954  -18.3944  -33.3809 H         1 FGZ         0.0631
     14 H2        -21.7923  -15.9757  -28.6356 H         1 FGZ         0.2501
     15 H3        -19.8729  -14.6238  -32.5251 H         1 FGZ         0.0631
@<TRIPOS>BOND
     1    1    2 ar 
     2    2    3 ar 
     3    2    4 1  
     4    4    5 ar 
     5    4   12 ar 
     6    5    6 ar 
     7    6    7 1  
     8    6    8 ar 
     9    8    9 1  
    10    8   10 ar 
    11   10   11 1  
    12   10   12 ar 
    13    5   13 1  
    14    9   14 1  
    15   12   15 1  
@<TRIPOS>SUBSTRUCTURE
     1 FGZ         1

