### 
### Created by X-TOOL on Fri Nov  2 10:18:43 2018
### 

@<TRIPOS>MOLECULE
5jzy_ligand
   64    66     1     0     0
SMALL
GAST_HUCK


@<TRIPOS>ATOM
      1 C4          7.9920  -13.2730   97.1330 C.3       1 MOL        -0.0528
      2 C5          8.9760  -14.3360   96.6890 C.3       1 MOL        -0.0530
      3 C6          8.6720  -14.7970   95.2690 C.3       1 MOL        -0.0528
      4 N1          5.0810  -13.0580   92.4700 N.am      1 MOL        -0.2471
      5 C7          7.2370  -15.2940   95.1370 C.3       1 MOL        -0.0499
      6 C8          4.1720  -13.4590   93.3730 C.2       1 MOL         0.2292
      7 N2          2.8750  -10.5640   91.3190 N.am      1 MOL        -0.2737
      8 C9          6.1990  -13.8350   91.9030 C.3       1 MOL         0.0371
      9 C10         7.0160  -12.8070   91.1720 C.3       1 MOL        -0.0281
     10 C11         6.0700  -11.6670   90.8280 C.3       1 MOL        -0.0104
     11 C12         4.9350  -11.7290   91.8560 C.3       1 MOL         0.1339
     12 N3         -2.6740   -9.4350   95.6600 N.pl3     1 MOL        -0.2729
     13 C13         3.5820  -11.6770   91.1580 C.2       1 MOL         0.2037
     14 C14         1.5240  -10.4410   90.7800 C.3       1 MOL         0.0645
     15 C15         0.5000  -10.4950   91.8850 C.ar      1 MOL        -0.0210
     16 N4         -3.0910  -11.6360   95.3030 N.pl3     1 MOL        -0.2729
     17 O1          3.2430  -12.7420   93.7100 O.2       1 MOL        -0.3905
     18 C           4.2990  -14.8650   94.0040 C.3       1 MOL         0.0655
     19 C1          4.7930  -14.7220   95.4480 C.3       1 MOL         0.0107
     20 C2          6.2330  -14.2290   95.5750 C.3       1 MOL        -0.0338
     21 C3          6.5610  -13.7720   96.9970 C.3       1 MOL        -0.0499
     22 N           2.9500  -15.4600   93.9570 N.4       1 MOL         0.2379
     23 O           3.2060  -12.6070   90.4340 O.2       1 MOL        -0.3944
     24 C21         0.1020  -11.6920   92.4570 C.ar      1 MOL        -0.0584
     25 C20        -0.8340  -11.7220   93.4710 C.ar      1 MOL        -0.0633
     26 C18        -1.3950  -10.5420   93.9550 C.ar      1 MOL         0.0188
     27 C19        -2.4290  -10.5700   94.9980 C.cat     1 MOL         0.2318
     28 C17        -0.9940   -9.3510   93.3860 C.ar      1 MOL        -0.0633
     29 C16        -0.0630   -9.3270   92.3680 C.ar      1 MOL        -0.0584
     30 H1          8.1225  -12.3770   96.5084 H         1 MOL         0.0265
     31 H2          8.1867  -13.0180   98.1852 H         1 MOL         0.0265
     32 H3          8.9078  -15.1972   97.3699 H         1 MOL         0.0265
     33 H4          9.9943  -13.9214   96.7231 H         1 MOL         0.0265
     34 H5          9.3589  -15.6143   95.0040 H         1 MOL         0.0265
     35 H6          8.8226  -13.9533   94.5795 H         1 MOL         0.0265
     36 H7          7.1086  -16.1867   95.7667 H         1 MOL         0.0268
     37 H8          7.0446  -15.5558   94.0861 H         1 MOL         0.0268
     38 H9          3.2757   -9.7961   91.8187 H         1 MOL         0.1878
     39 H10         5.8292  -14.6059   91.2110 H         1 MOL         0.0524
     40 H11         6.7896  -14.3105   92.6999 H         1 MOL         0.0524
     41 H12         7.4382  -13.2405   90.2534 H         1 MOL         0.0287
     42 H13         7.8315  -12.4431   91.8143 H         1 MOL         0.0287
     43 H14         5.6710  -11.7961   89.8111 H         1 MOL         0.0313
     44 H15         6.5943  -10.7024   90.8965 H         1 MOL         0.0313
     45 H16         5.0199  -10.9216   92.5983 H         1 MOL         0.0802
     46 H17        -2.1519   -8.5788   95.4250 H         1 MOL         0.3180
     47 H18        -3.3849   -9.4166   96.4051 H         1 MOL         0.3180
     48 H19         1.3396  -11.2666   90.0769 H         1 MOL         0.0683
     49 H20         1.4329   -9.4811   90.2505 H         1 MOL         0.0683
     50 H21        -2.9104  -12.5161   94.7994 H         1 MOL         0.3180
     51 H22        -3.7996  -11.6061   96.0499 H         1 MOL         0.3180
     52 H23         5.0061  -15.4836   93.4319 H         1 MOL         0.1098
     53 H24         4.7217  -15.7056   95.9353 H         1 MOL         0.0348
     54 H25         4.1374  -14.0072   95.9670 H         1 MOL         0.0348
     55 H26         6.3450  -13.3621   94.9072 H         1 MOL         0.0304
     56 H27         5.8755  -12.9571   97.2726 H         1 MOL         0.0268
     57 H28         6.4165  -14.6202   97.6823 H         1 MOL         0.0268
     58 H29         2.6520  -15.5416   92.9975 H         1 MOL         0.2015
     59 H30         2.3052  -14.8708   94.4601 H         1 MOL         0.2015
     60 H31         2.9710  -16.3742   94.3812 H         1 MOL         0.2015
     61 H32         0.5330  -12.6212   92.1022 H         1 MOL         0.0557
     62 H33        -1.1356  -12.6730   93.8950 H         1 MOL         0.0599
     63 H34        -1.4170   -8.4194   93.7443 H         1 MOL         0.0599
     64 H35         0.2326   -8.3764   91.9391 H         1 MOL         0.0557
@<TRIPOS>BOND
     1    1    2 1  
     2   21    1 1  
     3    3    2 1  
     4    5    3 1  
     5    4    6 am 
     6    4    8 1  
     7   11    4 1  
     8   20    5 1  
     9    6   17 2  
    10    6   18 1  
    11    7   13 am 
    12   14    7 1  
    13    9    8 1  
    14   10    9 1  
    15   11   10 1  
    16   13   11 1  
    17   27   12 ar 
    18   13   23 2  
    19   15   14 1  
    20   24   15 ar 
    21   15   29 ar 
    22   27   16 ar 
    23   18   19 1  
    24   18   22 1  
    25   19   20 1  
    26   20   21 1  
    27   25   24 ar 
    28   26   25 ar 
    29   26   27 1  
    30   26   28 ar 
    31   28   29 ar 
    32    1   30 1  
    33    1   31 1  
    34    2   32 1  
    35    2   33 1  
    36    3   34 1  
    37    3   35 1  
    38    5   36 1  
    39    5   37 1  
    40    7   38 1  
    41    8   39 1  
    42    8   40 1  
    43    9   41 1  
    44    9   42 1  
    45   10   43 1  
    46   10   44 1  
    47   11   45 1  
    48   12   46 1  
    49   12   47 1  
    50   14   48 1  
    51   14   49 1  
    52   16   50 1  
    53   16   51 1  
    54   18   52 1  
    55   19   53 1  
    56   19   54 1  
    57   20   55 1  
    58   21   56 1  
    59   21   57 1  
    60   22   58 1  
    61   22   59 1  
    62   22   60 1  
    63   24   61 1  
    64   25   62 1  
    65   28   63 1  
    66   29   64 1  
@<TRIPOS>SUBSTRUCTURE
     1 MOL         1

