### 
### Created by X-TOOL on Mon Sep 10 21:13:31 2018
### 

@<TRIPOS>MOLECULE
5k00_ligand
   77    81     1     0     0
SMALL
GAST_HUCK


@<TRIPOS>ATOM
      1 C1         -3.2880   -8.9800    1.2760 C.ar      1 6PV         0.2004
      2 C2         -4.7210   -9.9120    2.7890 C.ar      1 6PV         0.1804
      3 C3         -5.4050   -8.6730    2.9170 C.ar      1 6PV         0.0544
      4 O1         -9.3360   -8.7820    8.0470 O.2       1 6PV        -0.3860
      5 O2         -7.8180   -4.8980    9.5280 O.2       1 6PV        -0.3826
      6 O3         -5.1060  -10.9920    3.5510 O.3       1 6PV        -0.2898
      7 C11        -9.7330   -6.2280    9.2290 C.3       1 6PV         0.1253
      8 C12        -8.8640   -5.2530   10.0360 C.2       1 6PV         0.2260
      9 C13        -8.5380   -3.8650   12.0530 C.ar      1 6PV         0.0663
     10 C14        -7.3200   -3.1990   11.6860 C.ar      1 6PV        -0.0413
     11 C15        -6.6320   -2.3320   12.5790 C.ar      1 6PV        -0.0755
     12 C16        -7.1780   -2.1380   13.8680 C.ar      1 6PV        -0.0772
     13 C17        -8.3800   -2.7890   14.2440 C.ar      1 6PV        -0.0755
     14 C18        -9.0640   -3.6490   13.3410 C.ar      1 6PV        -0.0413
     15 C19        -4.8680   -7.6290    2.1260 C.ar      1 6PV         0.0146
     16 C20        -4.4070  -12.2410    3.4860 C.3       1 6PV         0.0810
     17 C21        -4.2000  -12.7020    4.9320 C.3       1 6PV        -0.0024
     18 C22        -3.7230  -14.1710    4.9750 C.3       1 6PV        -0.0070
     19 C23        -3.5560  -14.5980    6.4470 C.3       1 6PV        -0.0333
     20 C24        -2.9630  -12.3100    7.1320 C.3       1 6PV        -0.0333
     21 C25        -3.1890  -11.8020    5.6920 C.3       1 6PV        -0.0070
     22 C26        -1.2310  -10.2380    0.6230 C.ar      1 6PV         0.0569
     23 C27        -1.0150  -10.9810    1.8350 C.ar      1 6PV        -0.0490
     24 C28        -0.0730  -12.0320    1.8710 C.ar      1 6PV        -0.0797
     25 C29         0.6390  -12.3420    0.6880 C.ar      1 6PV        -0.0445
     26 C30         0.4260  -11.6280   -0.5270 C.ar      1 6PV         0.0813
     27 N1         -3.8140   -7.7800    1.3090 N.ar      1 6PV        -0.2632
     28 N2         -3.6770  -10.0440    1.9690 N.ar      1 6PV        -0.2227
     29 C4         -6.3920   -8.4170    3.9780 C.ar      1 6PV        -0.0128
     30 C5         -7.1920   -9.4440    4.5370 C.ar      1 6PV        -0.0519
     31 C6         -8.0090   -9.2320    5.6560 C.ar      1 6PV        -0.0442
     32 C7         -7.9990   -7.9750    6.3000 C.ar      1 6PV         0.0472
     33 C8         -7.1990   -6.9420    5.7690 C.ar      1 6PV        -0.0442
     34 C9         -6.3610   -7.1670    4.6560 C.ar      1 6PV        -0.0519
     35 C10        -8.8410   -7.7940    7.5190 C.2       1 6PV         0.2049
     36 N3         -8.9990   -6.5670    8.0190 N.am      1 6PV        -0.2675
     37 N4         -9.2680   -4.7800   11.2150 N.am      1 6PV        -0.2322
     38 N5         -2.5760  -13.7230    7.1110 N.4       1 6PV         0.2270
     39 N6         -2.1720   -9.2010    0.5290 N.pl3     1 6PV        -0.2455
     40 O4          1.1190  -11.9050   -1.6830 O.3       1 6PV        -0.3241
     41 C31         1.1560  -11.0140   -2.7940 C.3       1 6PV         0.0591
     42 C32        -0.5150  -10.5600   -0.5510 C.ar      1 6PV        -0.0105
     43 H1        -10.6891   -5.7512    8.9674 H         1 6PV         0.0768
     44 H2         -9.9255   -7.1364    9.8187 H         1 6PV         0.0768
     45 H3         -6.9113   -3.3625   10.6954 H         1 6PV         0.0502
     46 H4         -5.7163   -1.8349   12.2800 H         1 6PV         0.0577
     47 H5         -6.6745   -1.4873   14.5738 H         1 6PV         0.0487
     48 H6         -8.7847   -2.6285   15.2368 H         1 6PV         0.0577
     49 H7         -9.9847   -4.1352   13.6426 H         1 6PV         0.0502
     50 H8         -5.3346   -6.6522    2.1834 H         1 6PV         0.0872
     51 H9         -3.4356  -12.1069    2.9876 H         1 6PV         0.0630
     52 H10        -5.0036  -12.9816    2.9332 H         1 6PV         0.0630
     53 H11        -5.1691  -12.6377    5.4485 H         1 6PV         0.0331
     54 H12        -2.7594  -14.2620    4.4524 H         1 6PV         0.0320
     55 H13        -4.4678  -14.8157    4.4856 H         1 6PV         0.0320
     56 H14        -3.2028  -15.6390    6.4876 H         1 6PV         0.0814
     57 H15        -4.5245  -14.5190    6.9625 H         1 6PV         0.0814
     58 H16        -3.8928  -12.1957    7.7085 H         1 6PV         0.0814
     59 H17        -2.1636  -11.7206    7.6048 H         1 6PV         0.0814
     60 H18        -3.5815  -10.7752    5.7312 H         1 6PV         0.0320
     61 H19        -2.2292  -11.8075    5.1548 H         1 6PV         0.0320
     62 H20        -1.5790  -10.7326    2.7267 H         1 6PV         0.0447
     63 H21         0.1010  -12.5891    2.7845 H         1 6PV         0.0561
     64 H22         1.3669  -13.1451    0.7064 H         1 6PV         0.0449
     65 H23        -7.1715  -10.4283    4.0834 H         1 6PV         0.0613
     66 H24        -8.6450  -10.0284    6.0251 H         1 6PV         0.0662
     67 H25        -7.2283   -5.9583    6.2236 H         1 6PV         0.0662
     68 H26        -5.6916   -6.3848    4.3167 H         1 6PV         0.0613
     69 H27        -8.5751   -5.8129    7.5173 H         1 6PV         0.1873
     70 H28       -10.1591   -5.0888   11.5475 H         1 6PV         0.2257
     71 H29        -1.6967  -13.8044    6.6249 H         1 6PV         0.2013
     72 H30        -2.4641  -14.0359    8.0626 H         1 6PV         0.2013
     73 H31        -1.9923   -8.5079   -0.2114 H         1 6PV         0.2184
     74 H32         1.7698  -11.4519   -3.5949 H         1 6PV         0.0577
     75 H33         1.5929  -10.0545   -2.4802 H         1 6PV         0.0577
     76 H34         0.1339  -10.8476   -3.1648 H         1 6PV         0.0577
     77 H35        -0.6807   -9.9983   -1.4632 H         1 6PV         0.0456
@<TRIPOS>BOND
     1   27    1 ar 
     2   28    1 ar 
     3    1   39 1  
     4    3    2 ar 
     5    2    6 1  
     6    2   28 ar 
     7    3   15 ar 
     8   29    3 1  
     9   35    4 2  
    10    8    5 2  
    11    6   16 1  
    12    7    8 1  
    13   36    7 1  
    14    8   37 am 
    15    9   10 ar 
    16    9   14 ar 
    17   37    9 1  
    18   10   11 ar 
    19   11   12 ar 
    20   13   12 ar 
    21   14   13 ar 
    22   15   27 ar 
    23   16   17 1  
    24   17   18 1  
    25   17   21 1  
    26   18   19 1  
    27   19   38 1  
    28   21   20 1  
    29   20   38 1  
    30   22   23 ar 
    31   39   22 1  
    32   22   42 ar 
    33   23   24 ar 
    34   24   25 ar 
    35   26   25 ar 
    36   26   40 1  
    37   42   26 ar 
    38   30   29 ar 
    39   34   29 ar 
    40   31   30 ar 
    41   32   31 ar 
    42   32   33 ar 
    43   35   32 1  
    44   33   34 ar 
    45   35   36 am 
    46   40   41 1  
    47    7   43 1  
    48    7   44 1  
    49   10   45 1  
    50   11   46 1  
    51   12   47 1  
    52   13   48 1  
    53   14   49 1  
    54   15   50 1  
    55   16   51 1  
    56   16   52 1  
    57   17   53 1  
    58   18   54 1  
    59   18   55 1  
    60   19   56 1  
    61   19   57 1  
    62   20   58 1  
    63   20   59 1  
    64   21   60 1  
    65   21   61 1  
    66   23   62 1  
    67   24   63 1  
    68   25   64 1  
    69   30   65 1  
    70   31   66 1  
    71   33   67 1  
    72   34   68 1  
    73   36   69 1  
    74   37   70 1  
    75   38   71 1  
    76   38   72 1  
    77   39   73 1  
    78   41   74 1  
    79   41   75 1  
    80   41   76 1  
    81   42   77 1  
@<TRIPOS>SUBSTRUCTURE
     1 6PV         1

