### 
### Created by X-TOOL on Mon Sep 10 21:13:29 2018
### 

@<TRIPOS>MOLECULE
5k03_ligand
   28    30     1     0     0
SMALL
GAST_HUCK


@<TRIPOS>ATOM
      1 C10        18.1040   13.2700   17.6630 C.2       1 6P4        -0.0540
      2 C13        21.6620   16.2800   20.7500 C.2       1 6P4        -0.0544
      3 C15        17.5700   12.5300   16.6220 C.2       1 6P4        -0.0186
      4 N1         19.6860   15.7270   18.8700 N.pl3     1 6P4        -0.2085
      5 C2         18.6110   15.7610   17.9580 C.2       1 6P4         0.1225
      6 C3         19.7870   17.0170   19.4200 C.2       1 6P4         0.1318
      7 C4         20.5530   14.7070   19.2440 C.2       1 6P4         0.0793
      8 C5         18.1510   14.6290   17.2060 C.2       1 6P4         0.0934
      9 C6         18.1070   17.0680   18.0040 C.2       1 6P4         0.0025
     10 N7         18.8290   17.8380   18.9020 N.2       1 6P4        -0.3325
     11 C8         20.8200   17.2800   20.3790 C.2       1 6P4        -0.0178
     12 C9         21.5370   14.9740   20.1760 C.2       1 6P4        -0.0097
     13 N11        17.6420   14.7240   15.9460 N.pl3     1 6P4        -0.2265
     14 C12        16.9690   17.6120   17.2220 C.3       1 6P4        -0.0309
     15 C14        22.5020   13.9040   20.6110 C.3       1 6P4        -0.0323
     16 N16        17.3000   13.4300   15.6180 N.2       1 6P4        -0.2360
     17 H1         18.4242   12.8955   18.6342 H         1 6P4         0.0260
     18 H2         22.4377   16.4732   21.4895 H         1 6P4         0.0628
     19 H3         17.3987   11.4547   16.6022 H         1 6P4         0.0630
     20 H4         20.4580   13.7131   18.8092 H         1 6P4         0.1107
     21 H5         20.9291   18.2752   20.8075 H         1 6P4         0.0583
     22 H6         17.5367   15.5709   15.3693 H         1 6P4         0.2479
     23 H7         16.8184   18.6703   17.4815 H         1 6P4         0.0382
     24 H8         16.0572   17.0435   17.4574 H         1 6P4         0.0382
     25 H9         17.1878   17.5256   16.1475 H         1 6P4         0.0382
     26 H10        23.1997   14.3192   21.3531 H         1 6P4         0.0362
     27 H11        23.0666   13.5428   19.7388 H         1 6P4         0.0362
     28 H12        21.9450   13.0680   21.0591 H         1 6P4         0.0362
@<TRIPOS>BOND
     1    1    3 1  
     2    8    1 2  
     3   11    2 2  
     4    2   12 1  
     5    3   16 2  
     6    4    5 1  
     7    6    4 1  
     8    4    7 1  
     9    5    8 1  
    10    5    9 2  
    11    6   10 2  
    12    6   11 1  
    13    7   12 2  
    14    8   13 1  
    15    9   10 1  
    16    9   14 1  
    17   12   15 1  
    18   13   16 1  
    19    1   17 1  
    20    2   18 1  
    21    3   19 1  
    22    7   20 1  
    23   11   21 1  
    24   13   22 1  
    25   14   23 1  
    26   14   24 1  
    27   14   25 1  
    28   15   26 1  
    29   15   27 1  
    30   15   28 1  
@<TRIPOS>SUBSTRUCTURE
     1 6P4         1

