### 
### Created by X-TOOL on Mon Sep 10 21:13:27 2018
### 

@<TRIPOS>MOLECULE
5k05_ligand
   31    33     1     0     0
SMALL
GAST_HUCK


@<TRIPOS>ATOM
      1 C10        23.5070    0.0140  -20.8410 C.ar      1 6P5         0.0137
      2 C11        26.8110    6.5310  -19.4260 C.2       1 6P5         0.0453
      3 C13        22.1390   -0.4690  -21.2560 C.ar      1 6P5        -0.0523
      4 C15        24.3740   -2.2380  -21.3410 C.ar      1 6P5        -0.0553
      5 C16        22.1520    4.5320  -18.5100 C.3       1 6P5        -0.0272
      6 C17        23.1560   -2.6600  -21.7310 C.ar      1 6P5        -0.0415
      7 C18        22.9710   -4.0760  -22.2220 C.3       1 6P5        -0.0289
      8 C1         24.4400    3.6790  -19.5890 C.2       1 6P5         0.0530
      9 S2         24.9310    2.3650  -20.2910 S.3       1 6P5        -0.0135
     10 N3         22.5600    2.0950  -19.6950 N.2       1 6P5        -0.3037
     11 C4         23.6580    1.4190  -20.3220 C.2       1 6P5         0.1046
     12 C5         23.0400    3.5320  -19.2170 C.2       1 6P5         0.0095
     13 C6         25.2770    4.8930  -19.2900 C.2       1 6P5         0.0340
     14 N7         25.2030    5.6080  -18.1470 N.2       1 6P5        -0.2247
     15 N8         26.1110    6.6210  -18.2000 N.pl3     1 6P5        -0.2263
     16 C9         26.2740    5.4320  -20.1050 C.2       1 6P5        -0.0448
     17 C12        24.5570   -0.8210  -20.8510 C.ar      1 6P5        -0.0523
     18 C14        21.9720   -1.7250  -21.6900 C.ar      1 6P5        -0.0553
     19 H1         27.6088    7.1865  -19.7722 H         1 6P5         0.0985
     20 H2         21.2894    0.2022  -21.2027 H         1 6P5         0.0642
     21 H3         25.2209   -2.9136  -21.3786 H         1 6P5         0.0570
     22 H4         21.1469    4.1037  -18.3820 H         1 6P5         0.0382
     23 H5         22.0850    5.4515  -19.1101 H         1 6P5         0.0382
     24 H6         22.5783    4.7680  -17.5238 H         1 6P5         0.0382
     25 H7         21.9170   -4.2351  -22.4937 H         1 6P5         0.0402
     26 H8         23.2547   -4.7802  -21.4260 H         1 6P5         0.0402
     27 H9         23.6064   -4.2442  -23.1040 H         1 6P5         0.0402
     28 H10        26.2626    7.3325  -17.4708 H         1 6P5         0.2560
     29 H11        26.5768    5.0659  -21.0849 H         1 6P5         0.0335
     30 H12        25.5285   -0.4816  -20.5103 H         1 6P5         0.0642
     31 H13        20.9943   -2.0673  -22.0093 H         1 6P5         0.0570
@<TRIPOS>BOND
     1    1    3 ar 
     2   11    1 1  
     3    1   17 ar 
     4    2   15 1  
     5   16    2 2  
     6    3   18 ar 
     7    4    6 ar 
     8   17    4 ar 
     9   12    5 1  
    10    6    7 1  
    11   18    6 ar 
    12    8    9 1  
    13    8   12 2  
    14   13    8 1  
    15    9   11 1  
    16   10   11 2  
    17   12   10 1  
    18   13   14 2  
    19   13   16 1  
    20   14   15 1  
    21    2   19 1  
    22    3   20 1  
    23    4   21 1  
    24    5   22 1  
    25    5   23 1  
    26    5   24 1  
    27    7   25 1  
    28    7   26 1  
    29    7   27 1  
    30   15   28 1  
    31   16   29 1  
    32   17   30 1  
    33   18   31 1  
@<TRIPOS>SUBSTRUCTURE
     1 6P5         1

