### 
### Created by X-TOOL on Mon Sep 10 21:13:26 2018
### 

@<TRIPOS>MOLECULE
5k09_ligand
   38    40     1     0     0
SMALL
GAST_HUCK


@<TRIPOS>ATOM
      1 C01        -5.3980   45.5560  -30.4900 C.2       1 6PQ         0.0707
      2 C02        -6.4630   44.4990  -30.3860 C.2       1 6PQ         0.0753
      3 N03        -4.0650   47.3000  -31.3170 N.2       1 6PQ        -0.3062
      4 C04        -5.1310   46.4700  -31.5460 C.2       1 6PQ         0.0055
      5 C07        -7.1620   44.1720  -29.1940 C.2       1 6PQ        -0.0478
      6 C10        -8.0150   43.1250  -29.5910 C.2       1 6PQ         0.0081
      7 C11        -8.9900   42.4250  -28.6860 C.3       1 6PQ         0.0103
      8 C13        -7.0810   42.0160  -24.8940 C.ar      1 6PQ         0.0839
      9 C15        -8.6670   43.1480  -26.2830 C.ar      1 6PQ        -0.0670
     10 C16        -7.3700   41.3220  -27.1750 C.ar      1 6PQ        -0.0670
     11 C17        -6.7460   41.1850  -25.9490 C.ar      1 6PQ        -0.0393
     12 C18        -8.0350   43.0060  -25.0530 C.ar      1 6PQ        -0.0393
     13 C19        -2.2400   47.9110  -29.6710 C.3       1 6PQ         0.0083
     14 C21        -7.2400   41.7900  -22.5400 C.3       1 6PQ         0.0579
     15 S05        -4.2330   45.8800  -29.2950 S.3       1 6PQ        -0.0057
     16 N06        -6.8750   43.6900  -31.3520 N.pl3     1 6PQ        -0.2337
     17 N08        -7.7910   42.8930  -30.8780 N.2       1 6PQ        -0.2390
     18 C09        -3.4380   47.1180  -30.1370 C.2       1 6PQ         0.0908
     19 C12        -8.3300   42.3020  -27.3360 C.ar      1 6PQ        -0.0437
     20 C14        -5.9390   46.5320  -32.8200 C.3       1 6PQ        -0.0274
     21 O20        -6.4150   41.8440  -23.6750 O.3       1 6PQ        -0.3255
     22 H1         -7.0620   44.6235  -28.2080 H         1 6PQ         0.0260
     23 H2         -9.2247   41.4267  -29.0838 H         1 6PQ         0.0547
     24 H3         -9.9158   43.0130  -28.6014 H         1 6PQ         0.0547
     25 H4         -9.4201   43.9153  -26.4218 H         1 6PQ         0.0533
     26 H5         -7.1092   40.6685  -27.9996 H         1 6PQ         0.0533
     27 H6         -5.9889   40.4212  -25.8129 H         1 6PQ         0.0526
     28 H7         -8.2864   43.6629  -24.2282 H         1 6PQ         0.0526
     29 H8         -1.9604   48.6415  -30.4445 H         1 6PQ         0.0497
     30 H9         -1.3966   47.2286  -29.4893 H         1 6PQ         0.0497
     31 H10        -2.4904   48.4406  -28.7400 H         1 6PQ         0.0497
     32 H11        -6.6196   41.6538  -21.6419 H         1 6PQ         0.0575
     33 H12        -7.9388   40.9457  -22.6344 H         1 6PQ         0.0575
     34 H13        -7.8078   42.7282  -22.4544 H         1 6PQ         0.0575
     35 H14        -6.5271   43.6911  -32.3215 H         1 6PQ         0.2442
     36 H15        -5.5336   47.3187  -33.4733 H         1 6PQ         0.0392
     37 H16        -6.9876   46.7603  -32.5785 H         1 6PQ         0.0392
     38 H17        -5.8844   45.5623  -33.3364 H         1 6PQ         0.0392
@<TRIPOS>BOND
     1    2    1 1  
     2    1    4 2  
     3    1   15 1  
     4    5    2 2  
     5    2   16 1  
     6    4    3 1  
     7    3   18 2  
     8    4   20 1  
     9    6    5 1  
    10    7    6 1  
    11    6   17 2  
    12   19    7 1  
    13    8   11 ar 
    14   12    8 ar 
    15    8   21 1  
    16    9   12 ar 
    17    9   19 ar 
    18   11   10 ar 
    19   10   19 ar 
    20   18   13 1  
    21   21   14 1  
    22   15   18 1  
    23   16   17 1  
    24    5   22 1  
    25    7   23 1  
    26    7   24 1  
    27    9   25 1  
    28   10   26 1  
    29   11   27 1  
    30   12   28 1  
    31   13   29 1  
    32   13   30 1  
    33   13   31 1  
    34   14   32 1  
    35   14   33 1  
    36   14   34 1  
    37   16   35 1  
    38   20   36 1  
    39   20   37 1  
    40   20   38 1  
@<TRIPOS>SUBSTRUCTURE
     1 6PQ         1

