### 
### Created by X-TOOL on Mon Sep 10 21:13:26 2018
### 

@<TRIPOS>MOLECULE
5k0b_ligand
   37    39     1     0     0
SMALL
GAST_HUCK


@<TRIPOS>ATOM
      1 C01        98.1000   57.0490    2.3130 C.3       1 6PS         0.0083
      2 C02        97.5500   56.5550    1.0050 C.2       1 6PS         0.0908
      3 C04        96.2650   55.9130   -1.0570 C.2       1 6PS         0.0707
      4 C05        97.6030   55.4310   -0.9870 C.2       1 6PS         0.0055
      5 C07        98.2860   54.5810   -2.0440 C.3       1 6PS        -0.0274
      6 N09        95.2640   54.6690   -2.9810 N.pl3     1 6PS        -0.2335
      7 C11        93.5360   55.8890   -3.5490 C.2       1 6PS         0.0126
      8 C13        92.2930   56.3040   -4.3090 C.3       1 6PS         0.0241
      9 C15        91.6730   57.5470   -3.7060 C.ar      1 6PS        -0.0303
     10 C16        92.0860   58.8090   -4.1090 C.ar      1 6PS        -0.0584
     11 C17        91.5090   59.9480   -3.5590 C.ar      1 6PS        -0.0683
     12 C18        90.5010   59.8310   -2.6120 C.ar      1 6PS        -0.0686
     13 C19        90.0810   58.5690   -2.2180 C.ar      1 6PS        -0.0683
     14 C20        90.6640   57.4330   -2.7620 C.ar      1 6PS        -0.0584
     15 S03        96.0080   56.8130    0.3640 S.3       1 6PS        -0.0057
     16 N06        98.2610   55.8090    0.1470 N.2       1 6PS        -0.3062
     17 C08        95.2650   55.7000   -2.1540 C.2       1 6PS         0.0754
     18 N10        94.2570   54.7960   -3.7910 N.2       1 6PS        -0.2383
     19 C12        94.1580   56.5500   -2.4540 C.2       1 6PS        -0.0472
     20 C14        92.6990   56.5690   -5.7320 C.3       1 6PS        -0.0439
     21 H1         99.1380   56.7036    2.4281 H         1 6PS         0.0497
     22 H2         97.4892   56.6565    3.1393 H         1 6PS         0.0497
     23 H3         98.0756   58.1486    2.3292 H         1 6PS         0.0497
     24 H4         99.3147   54.3566   -1.7256 H         1 6PS         0.0392
     25 H5         98.3086   55.1294   -2.9973 H         1 6PS         0.0392
     26 H6         97.7295   53.6412   -2.1747 H         1 6PS         0.0392
     27 H7         95.9455   53.8967   -2.9827 H         1 6PS         0.2443
     28 H8         91.5565   55.4875   -4.2801 H         1 6PS         0.0600
     29 H9         92.8637   58.9074   -4.8577 H         1 6PS         0.0560
     30 H10        91.8471   60.9297   -3.8704 H         1 6PS         0.0600
     31 H11        90.0463   60.7173   -2.1844 H         1 6PS         0.0560
     32 H12        89.2926   58.4695   -1.4807 H         1 6PS         0.0600
     33 H13        90.3287   56.4514   -2.4471 H         1 6PS         0.0560
     34 H14        93.8624   57.4769   -1.9646 H         1 6PS         0.0260
     35 H15        93.1478   55.6607   -6.1604 H         1 6PS         0.0273
     36 H16        93.4331   57.3878   -5.7575 H         1 6PS         0.0273
     37 H17        91.8132   56.8523   -6.3194 H         1 6PS         0.0273
@<TRIPOS>BOND
     1    2    1 1  
     2   15    2 1  
     3    2   16 2  
     4    3    4 2  
     5    3   15 1  
     6   17    3 1  
     7    4    5 1  
     8    4   16 1  
     9    6   17 1  
    10   18    6 1  
    11    7    8 1  
    12    7   18 2  
    13    7   19 1  
    14    8    9 1  
    15    8   20 1  
    16    9   10 ar 
    17    9   14 ar 
    18   10   11 ar 
    19   11   12 ar 
    20   12   13 ar 
    21   13   14 ar 
    22   17   19 2  
    23    1   21 1  
    24    1   22 1  
    25    1   23 1  
    26    5   24 1  
    27    5   25 1  
    28    5   26 1  
    29    6   27 1  
    30    8   28 1  
    31   10   29 1  
    32   11   30 1  
    33   12   31 1  
    34   13   32 1  
    35   14   33 1  
    36   19   34 1  
    37   20   35 1  
    38   20   36 1  
    39   20   37 1  
@<TRIPOS>SUBSTRUCTURE
     1 6PS         1

