### 
### Created by X-TOOL on Mon Sep 10 21:13:27 2018
### 

@<TRIPOS>MOLECULE
5k0c_ligand
   40    42     1     0     0
SMALL
GAST_HUCK


@<TRIPOS>ATOM
      1 C01        15.8290  -22.8520   12.8640 C.ar      1 6OZ        -0.0680
      2 C02        14.7500  -20.7210   12.6120 C.2       1 6OZ        -0.0084
      3 C04        16.4760  -23.8740   12.1600 C.ar      1 6OZ        -0.0494
      4 C05        16.1380  -25.2040   12.3960 C.ar      1 6OZ        -0.0390
      5 C06        15.1520  -25.5370   13.3060 C.ar      1 6OZ        -0.0397
      6 C07        14.4940  -24.5260   14.0020 C.ar      1 6OZ        -0.0390
      7 N09        12.9440  -19.4980   13.1270 N.pl3     1 6OZ        -0.1946
      8 C11        13.7660  -20.9790   11.6720 C.2       1 6OZ        -0.0464
      9 C15        10.3610  -19.1040   11.3580 C.2       1 6OZ         0.0061
     10 C16        10.4060  -17.8350   12.1450 C.3       1 6OZ        -0.0272
     11 C18        11.3560  -20.1700   11.2550 C.2       1 6OZ         0.0754
     12 C19         8.4630  -21.4520    8.9550 C.3       1 6OZ         0.0084
     13 C20        16.8600  -20.8110   13.8390 C.3       1 6OZ        -0.0944
     14 C21        16.8930  -21.0560   11.4070 C.3       1 6OZ        -0.0944
     15 C03        16.1240  -21.3600   12.6680 C.3       1 6OZ        -0.0329
     16 C08        14.8320  -23.1950   13.7790 C.ar      1 6OZ        -0.0494
     17 N10        14.2470  -19.8330   13.5040 N.2       1 6OZ        -0.1837
     18 C12        12.6760  -20.1890   11.9950 C.2       1 6OZ         0.0963
     19 N13         9.1540  -19.5300   10.4680 N.2       1 6OZ        -0.3059
     20 C14         9.4430  -20.7940    9.8620 C.2       1 6OZ         0.0910
     21 S17        10.8690  -21.3030   10.3150 S.3       1 6OZ        -0.0051
     22 H1         17.2403  -23.6302   11.4310 H         1 6OZ         0.0797
     23 H2         16.6557  -25.9900   11.8582 H         1 6OZ         0.0681
     24 H3         14.8933  -26.5758   13.4763 H         1 6OZ         0.0806
     25 H4         13.7188  -24.7760   14.7172 H         1 6OZ         0.0681
     26 H5         12.3100  -18.8502   13.6162 H         1 6OZ         0.2684
     27 H6         13.8365  -21.6730   10.8358 H         1 6OZ         0.0342
     28 H7          9.4765  -17.2696   11.9825 H         1 6OZ         0.0393
     29 H8         11.2647  -17.2306   11.8175 H         1 6OZ         0.0393
     30 H9         10.5098  -18.0703   13.2145 H         1 6OZ         0.0393
     31 H10         7.5698  -20.8174    8.8579 H         1 6OZ         0.0498
     32 H11         8.1754  -22.4284    9.3722 H         1 6OZ         0.0498
     33 H12         8.9195  -21.5964    7.9647 H         1 6OZ         0.0498
     34 H13        17.8595  -21.2673   13.8906 H         1 6OZ         0.0091
     35 H14        16.3048  -21.0390   14.7608 H         1 6OZ         0.0091
     36 H15        16.9598  -19.7209   13.7312 H         1 6OZ         0.0091
     37 H16        16.3505  -21.4611   10.5401 H         1 6OZ         0.0091
     38 H17        17.8894  -21.5184   11.4647 H         1 6OZ         0.0091
     39 H18        17.0000  -19.9668   11.2963 H         1 6OZ         0.0091
     40 H19        14.3141  -22.4135   14.3232 H         1 6OZ         0.0797
@<TRIPOS>BOND
     1    1    3 ar 
     2   15    1 1  
     3    1   16 ar 
     4    8    2 1  
     5    2   15 1  
     6    2   17 2  
     7    3    4 ar 
     8    4    5 ar 
     9    6    5 ar 
    10   16    6 ar 
    11    7   17 1  
    12   18    7 1  
    13   18    8 2  
    14    9   10 1  
    15    9   11 2  
    16   19    9 1  
    17   11   18 1  
    18   11   21 1  
    19   20   12 1  
    20   15   13 1  
    21   15   14 1  
    22   19   20 2  
    23   20   21 1  
    24    3   22 1  
    25    4   23 1  
    26    5   24 1  
    27    6   25 1  
    28    7   26 1  
    29    8   27 1  
    30   10   28 1  
    31   10   29 1  
    32   10   30 1  
    33   12   31 1  
    34   12   32 1  
    35   12   33 1  
    36   13   34 1  
    37   13   35 1  
    38   13   36 1  
    39   14   37 1  
    40   14   38 1  
    41   14   39 1  
    42   16   40 1  
@<TRIPOS>SUBSTRUCTURE
     1 6OZ         1

