### 
### Created by X-TOOL on Mon Sep 10 21:13:27 2018
### 

@<TRIPOS>MOLECULE
5k0f_ligand
   41    43     1     0     0
SMALL
GAST_HUCK


@<TRIPOS>ATOM
      1 C01         9.3030  -20.7470    9.9500 C.2       1 6P1         0.0908
      2 C04        10.2270  -19.1760   11.3290 C.2       1 6P1         0.0055
      3 C06         8.2960  -21.4160    9.0530 C.3       1 6P1         0.0083
      4 C07        12.6170  -20.1050   12.0610 C.2       1 6P1         0.0753
      5 N09        12.8660  -19.4860   13.2030 N.pl3     1 6P1        -0.2336
      6 C11        14.7140  -20.5300   12.6830 C.2       1 6P1         0.0108
      7 C13        16.1510  -20.9750   12.8360 C.3       1 6P1         0.0191
      8 C15        17.0510  -19.7750   12.6500 C.3       1 6P1        -0.0453
      9 C16        16.4160  -23.3580   12.1290 C.ar      1 6P1        -0.0667
     10 C17        16.7590  -24.3150   11.1750 C.ar      1 6P1        -0.0393
     11 C18        17.1930  -23.9260    9.9070 C.ar      1 6P1         0.0839
     12 C19        17.2870  -22.5730    9.5940 C.ar      1 6P1        -0.0393
     13 C20        16.9480  -21.6170   10.5490 C.ar      1 6P1        -0.0667
     14 C22        17.4150  -26.2260    9.3690 C.3       1 6P1         0.0579
     15 S02        10.8240  -21.3770   10.3480 S.3       1 6P1        -0.0057
     16 C03        11.2990  -20.1070   11.3460 C.2       1 6P1         0.0707
     17 N05         9.1540  -19.5600   10.5570 N.2       1 6P1        -0.3062
     18 C08        10.2450  -17.8800   12.0970 C.3       1 6P1        -0.0274
     19 N10        14.0920  -19.7440   13.5340 N.2       1 6P1        -0.2387
     20 C12        13.7760  -20.8310   11.6550 C.2       1 6P1        -0.0475
     21 C14        16.5110  -22.0130   11.8070 C.ar      1 6P1        -0.0409
     22 O21        17.5430  -24.8890    8.9310 O.3       1 6P1        -0.3255
     23 H1          7.4001  -20.7830    8.9713 H         1 6P1         0.0497
     24 H2          8.0179  -22.3919    9.4776 H         1 6P1         0.0497
     25 H3          8.7341  -21.5619    8.0546 H         1 6P1         0.0497
     26 H4         12.2037  -18.9030   13.7344 H         1 6P1         0.2442
     27 H5         16.2956  -21.3960   13.8419 H         1 6P1         0.0579
     28 H6         16.7982  -19.0078   13.3967 H         1 6P1         0.0271
     29 H7         16.9098  -19.3638   11.6396 H         1 6P1         0.0271
     30 H8         18.1000  -20.0800   12.7785 H         1 6P1         0.0271
     31 H9         16.0783  -23.6627   13.1130 H         1 6P1         0.0533
     32 H10        16.6881  -25.3686   11.4199 H         1 6P1         0.0526
     33 H11        17.6228  -22.2642    8.6106 H         1 6P1         0.0526
     34 H12        17.0253  -20.5625   10.3102 H         1 6P1         0.0533
     35 H13        17.7047  -26.9076    8.5557 H         1 6P1         0.0575
     36 H14        16.3707  -26.4197    9.6552 H         1 6P1         0.0575
     37 H15        18.0700  -26.3918   10.2370 H         1 6P1         0.0575
     38 H16         9.3046  -17.3370   11.9219 H         1 6P1         0.0392
     39 H17        11.0919  -17.2650   11.7587 H         1 6P1         0.0392
     40 H18        10.3515  -18.0917   13.1711 H         1 6P1         0.0392
     41 H19        13.9101  -21.4599   10.7761 H         1 6P1         0.0260
@<TRIPOS>BOND
     1    1    3 1  
     2    1   15 1  
     3   17    1 2  
     4   16    2 2  
     5    2   17 1  
     6    2   18 1  
     7    4    5 1  
     8    4   16 1  
     9   20    4 2  
    10   19    5 1  
    11    7    6 1  
    12    6   19 2  
    13    6   20 1  
    14    7    8 1  
    15   21    7 1  
    16    9   10 ar 
    17    9   21 ar 
    18   10   11 ar 
    19   11   12 ar 
    20   11   22 1  
    21   12   13 ar 
    22   13   21 ar 
    23   22   14 1  
    24   15   16 1  
    25    3   23 1  
    26    3   24 1  
    27    3   25 1  
    28    5   26 1  
    29    7   27 1  
    30    8   28 1  
    31    8   29 1  
    32    8   30 1  
    33    9   31 1  
    34   10   32 1  
    35   12   33 1  
    36   13   34 1  
    37   14   35 1  
    38   14   36 1  
    39   14   37 1  
    40   18   38 1  
    41   18   39 1  
    42   18   40 1  
    43   20   41 1  
@<TRIPOS>SUBSTRUCTURE
     1 6P1         1

