### 
### Created by X-TOOL on Mon Sep 10 21:13:29 2018
### 

@<TRIPOS>MOLECULE
5k0h_ligand
   70    72     1     0     0
SMALL
GAST_HUCK


@<TRIPOS>ATOM
      1 C1          2.7430    9.8280   25.0830 C.ar      1 6PK        -0.0687
      2 C2          3.5580    8.8150   25.7210 C.ar      1 6PK        -0.0685
      3 C3          4.3010    7.8760   24.9100 C.ar      1 6PK        -0.0587
      4 C7          5.0220    6.9430   22.6010 C.3       1 6PK         0.1181
      5 C12         5.5710    4.8380   19.9740 C.3       1 6PK         0.1495
      6 C13         6.8560    5.6130   20.0040 C.2       1 6PK         0.2021
      7 C16         8.3730    7.3850   19.2340 C.3       1 6PK         0.1201
      8 C20         9.0580    9.9770   22.0160 C.3       1 6PK         0.0645
      9 C21         9.3710    9.1680   23.3130 C.ar      1 6PK        -0.0210
     10 C22        10.6330    9.3640   23.9740 C.ar      1 6PK        -0.0584
     11 C24        10.0080    7.6780   25.7380 C.ar      1 6PK         0.0188
     12 C27        10.3690    6.9260   26.9950 C.cat     1 6PK         0.2318
     13 N29         9.4380    6.2640   27.6830 N.pl3     1 6PK        -0.2729
     14 C30         5.6410    3.4840   19.2300 C.3       1 6PK         0.0869
     15 C32         6.6340    1.2710   19.3890 C.3       1 6PK         0.0819
     16 C33         7.6640    1.0800   18.2660 C.ar      1 6PK        -0.0175
     17 C34         7.1710    0.9180   16.9070 C.ar      1 6PK        -0.0581
     18 C35         8.0860    0.7230   15.8140 C.ar      1 6PK        -0.0685
     19 C4          4.2350    7.9430   23.4660 C.ar      1 6PK        -0.0204
     20 S8          4.1790    5.3570   22.3330 S.o2      1 6PK         0.0511
     21 N11         5.2240    4.5050   21.3800 N.am      1 6PK        -0.2258
     22 O31         6.5260    2.5940   19.9610 O.3       1 6PK        -0.3631
     23 C38         9.0850    1.0430   18.5210 C.ar      1 6PK        -0.0581
     24 C37        10.0030    0.8480   17.4280 C.ar      1 6PK        -0.0685
     25 C36         9.4990    0.6870   16.0730 C.ar      1 6PK        -0.0687
     26 N15         7.0870    6.6630   19.0920 N.am      1 6PK        -0.2667
     27 C17         8.2340    8.3360   20.4200 C.2       1 6PK         0.2003
     28 N19         9.2630    9.1050   20.8310 N.am      1 6PK        -0.2740
     29 C26         8.4200    8.2100   23.8820 C.ar      1 6PK        -0.0584
     30 C25         8.7380    7.4770   25.0790 C.ar      1 6PK        -0.0633
     31 N28        11.5900    6.9330   27.4100 N.pl3     1 6PK        -0.2729
     32 C23        10.9490    8.6290   25.1710 C.ar      1 6PK        -0.0633
     33 O18         7.1500    8.3600   20.9990 O.2       1 6PK        -0.3947
     34 O14         7.6560    5.2980   20.8770 O.2       1 6PK        -0.3948
     35 O10         2.9790    5.5900   21.5530 O.2       1 6PK        -0.1532
     36 O9          4.0950    4.7030   23.6290 O.2       1 6PK        -0.1532
     37 C5          3.4220    8.9580   22.8390 C.ar      1 6PK        -0.0587
     38 C6          2.6770    9.8980   23.6370 C.ar      1 6PK        -0.0685
     39 H1          2.1829   10.5331   25.6865 H         1 6PK         0.0559
     40 H2          3.6109    8.7608   26.8024 H         1 6PK         0.0599
     41 H3          4.9111    7.1173   25.3867 H         1 6PK         0.0557
     42 H4          5.9835    6.7421   23.0960 H         1 6PK         0.0682
     43 H5          5.2043    7.4058   21.6199 H         1 6PK         0.0682
     44 H6          4.7894    5.4622   19.5163 H         1 6PK         0.0777
     45 H7          8.5872    7.9552   18.3180 H         1 6PK         0.0763
     46 H8          9.1875    6.6694   19.4194 H         1 6PK         0.0763
     47 H9          9.7302   10.8455   21.9536 H         1 6PK         0.0683
     48 H10         8.0140   10.3225   22.0415 H         1 6PK         0.0683
     49 H11        11.3501   10.0688   23.5689 H         1 6PK         0.0557
     50 H12         9.6961    5.7541   28.5399 H         1 6PK         0.3180
     51 H13         8.4608    6.2626   27.3575 H         1 6PK         0.3180
     52 H14         6.0311    3.6403   18.2134 H         1 6PK         0.0607
     53 H15         4.6358    3.0410   19.1729 H         1 6PK         0.0607
     54 H16         6.8969    0.5783   20.2020 H         1 6PK         0.0724
     55 H17         5.6472    1.0030   18.9836 H         1 6PK         0.0724
     56 H18         6.1043    0.9445   16.7161 H         1 6PK         0.0557
     57 H19         7.7125    0.6042   14.8033 H         1 6PK         0.0599
     58 H20         5.6589    3.6991   21.7818 H         1 6PK         0.1704
     59 H21         9.4595    1.1615   19.5313 H         1 6PK         0.0557
     60 H22        11.0703    0.8212   17.6155 H         1 6PK         0.0599
     61 H23        10.1934    0.5390   15.2538 H         1 6PK         0.0559
     62 H24         6.4198    6.9070   18.3882 H         1 6PK         0.1880
     63 H25        10.1401    9.0886   20.3510 H         1 6PK         0.1878
     64 H26         7.4645    8.0512   23.3952 H         1 6PK         0.0557
     65 H27         8.0227    6.7722   25.4873 H         1 6PK         0.0599
     66 H28        12.3110    7.4435   26.8805 H         1 6PK         0.3180
     67 H29        11.8442    6.4281   28.2710 H         1 6PK         0.3180
     68 H30        11.9047    8.7877   25.6573 H         1 6PK         0.0599
     69 H31         3.3717    9.0133   21.7576 H         1 6PK         0.0557
     70 H32         2.0685   10.6559   23.1570 H         1 6PK         0.0599
@<TRIPOS>BOND
     1    2    1 ar 
     2    1   38 ar 
     3    3    2 ar 
     4   19    3 ar 
     5    4   19 1  
     6   20    4 1  
     7    6    5 1  
     8    5   14 1  
     9    5   21 1  
    10   26    6 am 
    11    6   34 2  
    12    7   26 1  
    13   27    7 1  
    14    8    9 1  
    15   28    8 1  
    16    9   10 ar 
    17    9   29 ar 
    18   10   32 ar 
    19   11   12 1  
    20   11   30 ar 
    21   32   11 ar 
    22   12   13 ar 
    23   12   31 ar 
    24   14   22 1  
    25   15   16 1  
    26   22   15 1  
    27   16   17 ar 
    28   16   23 ar 
    29   17   18 ar 
    30   18   25 ar 
    31   19   37 ar 
    32   21   20 am 
    33   20   35 2  
    34   20   36 2  
    35   23   24 ar 
    36   24   25 ar 
    37   27   28 am 
    38   27   33 2  
    39   29   30 ar 
    40   37   38 ar 
    41    1   39 1  
    42    2   40 1  
    43    3   41 1  
    44    4   42 1  
    45    4   43 1  
    46    5   44 1  
    47    7   45 1  
    48    7   46 1  
    49    8   47 1  
    50    8   48 1  
    51   10   49 1  
    52   13   50 1  
    53   13   51 1  
    54   14   52 1  
    55   14   53 1  
    56   15   54 1  
    57   15   55 1  
    58   17   56 1  
    59   18   57 1  
    60   21   58 1  
    61   23   59 1  
    62   24   60 1  
    63   25   61 1  
    64   26   62 1  
    65   28   63 1  
    66   29   64 1  
    67   30   65 1  
    68   31   66 1  
    69   31   67 1  
    70   32   68 1  
    71   37   69 1  
    72   38   70 1  
@<TRIPOS>SUBSTRUCTURE
     1 6PK         1

