### 
### Created by X-TOOL on Mon Sep 10 21:13:26 2018
### 

@<TRIPOS>MOLECULE
5k0i_ligand
   63    66     1     0     0
SMALL
GAST_HUCK


@<TRIPOS>ATOM
      1 O1         12.4340   14.2990   34.0350 O.3       1 6PW        -0.3741
      2 C7          6.7370   14.4820   20.7770 C.ar      1 6PW        -0.0607
      3 O2         13.7780   16.8810   33.9270 O.3       1 6PW        -0.3925
      4 C6          7.5990   15.3370   20.1060 C.ar      1 6PW        -0.0697
      5 C1          7.9990   14.7530   22.8070 C.ar      1 6PW         0.0331
      6 N1          9.3040   14.6210   26.1140 N.pl3     1 6PW        -0.2914
      7 C5          8.6630   15.8910   20.7550 C.ar      1 6PW        -0.0604
      8 C4         10.1310   15.8350   24.1750 C.ar      1 6PW        -0.0103
      9 C3          9.9720   16.1500   22.8630 C.ar      1 6PW        -0.0421
     10 C2          8.8930   15.6180   22.1250 C.ar      1 6PW        -0.0090
     11 O           8.6910   16.2940   30.5630 O.2       1 6PW        -0.3968
     12 C17         9.2730   15.2280   30.3940 C.2       1 6PW         0.1799
     13 N2          9.8340   14.5450   31.3980 N.am      1 6PW        -0.2835
     14 C18         9.9990   15.1150   32.7390 C.3       1 6PW         0.0465
     15 C22        10.0250   14.0320   33.8180 C.3       1 6PW        -0.0063
     16 C21        11.3640   13.3420   33.9570 C.3       1 6PW         0.0502
     17 C20        12.5080   15.1030   32.8580 C.3       1 6PW         0.0838
     18 C23        13.8030   15.8700   32.9320 C.3       1 6PW         0.0705
     19 C19        11.2670   15.9710   32.7980 C.3       1 6PW        -0.0013
     20 C14         9.4060   14.6010   29.0190 C.3       1 6PW         0.0574
     21 C11        10.5640   15.2430   28.1890 C.3       1 6PW         0.0051
     22 C13        10.3950   16.7590   27.9840 C.3       1 6PW        -0.0556
     23 C12        11.9280   15.0150   28.8520 C.3       1 6PW        -0.0556
     24 C10        10.5920   14.5730   26.8070 C.3       1 6PW         0.0383
     25 C15         8.0620   14.6060   28.2650 C.3       1 6PW        -0.0122
     26 C16         8.2130   13.9910   26.8650 C.3       1 6PW         0.0332
     27 C           9.1980   14.9730   24.7830 C.ar      1 6PW         0.1115
     28 C8          6.8980   14.1700   22.1120 C.ar      1 6PW        -0.0289
     29 C9          5.9540   13.2370   22.8290 C.3       1 6PW        -0.0296
     30 N           8.1660   14.4480   24.1410 N.ar      1 6PW        -0.2924
     31 H1          5.9077   14.0434   20.2338 H         1 6PW         0.0551
     32 H2         13.6229   16.4843   34.7761 H         1 6PW         0.2095
     33 H3          7.4261   15.5660   19.0607 H         1 6PW         0.0581
     34 H4          9.3386   16.5462   20.2170 H         1 6PW         0.0564
     35 H5         10.9607   16.2397   24.7433 H         1 6PW         0.0645
     36 H6         10.6789   16.8146   22.3796 H         1 6PW         0.0741
     37 H7         10.1523   13.6124   31.2280 H         1 6PW         0.1854
     38 H8          9.1361   15.7675   32.9379 H         1 6PW         0.0557
     39 H9          9.2685   13.2739   33.5671 H         1 6PW         0.0310
     40 H10         9.7725   14.4969   34.7824 H         1 6PW         0.0310
     41 H11        11.3603   12.7318   34.8722 H         1 6PW         0.0561
     42 H12        11.5258   12.6926   33.0840 H         1 6PW         0.0561
     43 H13        12.5280   14.4614   31.9647 H         1 6PW         0.0619
     44 H14        14.6169   15.1671   33.1633 H         1 6PW         0.0583
     45 H15        13.9910   16.3402   31.9555 H         1 6PW         0.0583
     46 H16        11.2298   16.6072   33.6946 H         1 6PW         0.0313
     47 H17        11.3149   16.6049   31.9003 H         1 6PW         0.0313
     48 H18         9.6779   13.5466   29.1745 H         1 6PW         0.0545
     49 H19        11.2397   17.1458   27.3951 H         1 6PW         0.0237
     50 H20        10.3701   17.2608   28.9625 H         1 6PW         0.0237
     51 H21         9.4545   16.9539   27.4478 H         1 6PW         0.0237
     52 H22        12.0817   13.9378   29.0135 H         1 6PW         0.0237
     53 H23        11.9579   15.5386   29.8189 H         1 6PW         0.0237
     54 H24        12.7228   15.4049   28.1991 H         1 6PW         0.0237
     55 H25        11.3418   15.0850   26.1860 H         1 6PW         0.0530
     56 H26        10.8801   13.5193   26.9357 H         1 6PW         0.0530
     57 H27         7.7091   15.6431   28.1660 H         1 6PW         0.0312
     58 H28         7.3265   14.0214   28.8371 H         1 6PW         0.0312
     59 H29         8.4243   12.9164   26.9680 H         1 6PW         0.0524
     60 H30         7.2725   14.1284   26.3113 H         1 6PW         0.0524
     61 H31         5.1766   12.8939   22.1305 H         1 6PW         0.0396
     62 H32         5.4831   13.7669   23.6701 H         1 6PW         0.0396
     63 H33         6.5138   12.3698   23.2092 H         1 6PW         0.0396
@<TRIPOS>BOND
     1   16    1 1  
     2   17    1 1  
     3    4    2 ar 
     4   28    2 ar 
     5   18    3 1  
     6    7    4 ar 
     7   10    5 ar 
     8    5   28 ar 
     9    5   30 ar 
    10   24    6 1  
    11    6   26 1  
    12    6   27 1  
    13   10    7 ar 
    14    8    9 ar 
    15   27    8 ar 
    16    9   10 ar 
    17   12   11 2  
    18   12   13 am 
    19   20   12 1  
    20   13   14 1  
    21   14   15 1  
    22   14   19 1  
    23   15   16 1  
    24   17   18 1  
    25   19   17 1  
    26   21   20 1  
    27   20   25 1  
    28   21   22 1  
    29   21   23 1  
    30   21   24 1  
    31   25   26 1  
    32   27   30 ar 
    33   28   29 1  
    34    2   31 1  
    35    3   32 1  
    36    4   33 1  
    37    7   34 1  
    38    8   35 1  
    39    9   36 1  
    40   13   37 1  
    41   14   38 1  
    42   15   39 1  
    43   15   40 1  
    44   16   41 1  
    45   16   42 1  
    46   17   43 1  
    47   18   44 1  
    48   18   45 1  
    49   19   46 1  
    50   19   47 1  
    51   20   48 1  
    52   22   49 1  
    53   22   50 1  
    54   22   51 1  
    55   23   52 1  
    56   23   53 1  
    57   23   54 1  
    58   24   55 1  
    59   24   56 1  
    60   25   57 1  
    61   25   58 1  
    62   26   59 1  
    63   26   60 1  
    64   29   61 1  
    65   29   62 1  
    66   29   63 1  
@<TRIPOS>SUBSTRUCTURE
     1 6PW         1

