### 
### Created by X-TOOL on Mon Sep 10 21:13:28 2018
### 

@<TRIPOS>MOLECULE
5k0j_ligand
   40    43     1     0     0
SMALL
GAST_HUCK


@<TRIPOS>ATOM
      1 C01        17.2860  -19.8100   12.8800 C.2       1 6P2        -0.0738
      2 C02        16.2130  -20.8300   12.6410 C.3       1 6P2         0.0256
      3 C05        11.3660  -20.1050   11.3930 C.2       1 6P2         0.0729
      4 C06        10.3850  -19.0380   11.4610 C.2       1 6P2         0.0055
      5 C10        10.4470  -17.7550   12.2160 C.3       1 6P2        -0.0275
      6 C11        12.6740  -20.0690   12.1070 C.2       1 6P2         0.0854
      7 C15        13.8400  -20.6840   11.7120 C.2       1 6P2        -0.0606
      8 C16        16.5600  -21.9830   11.7610 C.ar      1 6P2        -0.0988
      9 C17        17.0580  -21.7480   10.4860 C.ar      1 6P2        -0.0758
     10 C18        17.3580  -22.8140    9.6490 C.ar      1 6P2        -0.0235
     11 C19        17.1510  -24.1150   10.1000 C.ar      1 6P2         0.1024
     12 C20        16.6390  -24.3520   11.3760 C.ar      1 6P2        -0.0235
     13 C21        16.3370  -23.2800   12.2110 C.ar      1 6P2        -0.0758
     14 C23        17.0870  -26.4510    9.6770 C.3       1 6P2         0.0622
     15 C03        16.9220  -20.7690   13.9570 C.2       1 6P2        -0.0738
     16 S04        10.8410  -21.2240   10.4520 S.3       1 6P2        -0.0056
     17 N07         9.1740  -19.4640   10.5810 N.2       1 6P2        -0.3064
     18 C08         9.4300  -20.7420   10.0090 C.2       1 6P2         0.0907
     19 C09         8.4690  -21.4450    9.1030 C.3       1 6P2         0.0083
     20 N12        12.9120  -19.4250   13.2850 N.pl3     1 6P2        -0.2150
     21 N13        14.2290  -19.6150   13.6130 N.2       1 6P2        -0.2269
     22 C14        14.7950  -20.3850   12.6640 C.2       1 6P2        -0.0383
     23 O22        17.4520  -25.1770    9.2780 O.3       1 6P2        -0.3136
     24 H1         17.8901  -18.9765   12.5247 H         1 6P2         0.1055
     25 H2          9.5256  -17.1807   12.0393 H         1 6P2         0.0392
     26 H3         11.3143  -17.1705   11.8752 H         1 6P2         0.0392
     27 H4         10.5467  -17.9665   13.2908 H         1 6P2         0.0392
     28 H5         13.9826  -21.2908   10.8190 H         1 6P2         0.0310
     29 H6         17.2126  -20.7310   10.1441 H         1 6P2         0.0658
     30 H7         17.7496  -22.6354    8.6541 H         1 6P2         0.0573
     31 H8         16.4768  -25.3683   11.7163 H         1 6P2         0.0573
     32 H9         15.9323  -23.4542   13.2014 H         1 6P2         0.0658
     33 H10        17.3988  -27.1780    8.9126 H         1 6P2         0.0583
     34 H11        15.9952  -26.4971    9.8031 H         1 6P2         0.0583
     35 H12        17.5769  -26.6905   10.6323 H         1 6P2         0.0583
     36 H13        17.0663  -21.1494   14.9671 H         1 6P2         0.1055
     37 H14         7.5590  -20.8373    8.9912 H         1 6P2         0.0497
     38 H15         8.2065  -22.4223    9.5342 H         1 6P2         0.0497
     39 H16         8.9349  -21.5922    8.1175 H         1 6P2         0.0497
     40 H17        12.2229  -18.8897   13.8323 H         1 6P2         0.2563
@<TRIPOS>BOND
     1    2    1 1  
     2   15    1 2  
     3    2    8 1  
     4    2   15 1  
     5   22    2 1  
     6    3    4 2  
     7    6    3 1  
     8    3   16 1  
     9    4    5 1  
    10    4   17 1  
    11    7    6 2  
    12    6   20 1  
    13    7   22 1  
    14    8    9 ar 
    15    8   13 ar 
    16    9   10 ar 
    17   10   11 ar 
    18   11   12 ar 
    19   11   23 1  
    20   12   13 ar 
    21   23   14 1  
    22   16   18 1  
    23   17   18 2  
    24   18   19 1  
    25   20   21 1  
    26   21   22 2  
    27    1   24 1  
    28    5   25 1  
    29    5   26 1  
    30    5   27 1  
    31    7   28 1  
    32    9   29 1  
    33   10   30 1  
    34   12   31 1  
    35   13   32 1  
    36   14   33 1  
    37   14   34 1  
    38   14   35 1  
    39   15   36 1  
    40   19   37 1  
    41   19   38 1  
    42   19   39 1  
    43   20   40 1  
@<TRIPOS>SUBSTRUCTURE
     1 6P2         1

