### 
### Created by X-TOOL on Wed Jan  1 15:39:34 2020
### 

@<TRIPOS>MOLECULE
5k0m_ligand
   71    75     1     0     0
SMALL
GAST_HUCK


@<TRIPOS>ATOM
      1 N1        -15.4740  -24.6340   22.4010 N.4       1 6PU         0.2535
      2 N3        -16.3660  -24.3340   31.9210 N.am      1 6PU        -0.2350
      3 C4        -16.2280  -23.4380   22.7930 C.3       1 6PU        -0.0140
      4 C5        -17.5030  -23.9890   23.4390 C.3       1 6PU         0.0746
      5 C6        -17.4000  -24.1570   24.9430 C.ar      1 6PU        -0.0422
      6 C7        -16.5030  -25.0590   25.5010 C.ar      1 6PU        -0.0710
      7 C8        -16.3890  -25.2030   26.8700 C.ar      1 6PU        -0.0506
      8 C10       -18.0680  -23.5180   27.1730 C.ar      1 6PU        -0.0506
      9 C13       -17.7650  -24.2490   31.4500 C.3       1 6PU         0.0487
     10 C15       -15.6070  -24.3950   29.5990 C.3       1 6PU         0.0426
     11 C17       -14.2630  -24.3420   21.6000 C.3       1 6PU         0.0134
     12 C20       -12.4820  -25.8440   22.0750 C.ar      1 6PU        -0.0370
     13 C21       -11.7060  -26.9930   21.9510 C.ar      1 6PU        -0.0706
     14 C22       -11.9610  -27.9100   20.9440 C.ar      1 6PU        -0.0772
     15 C24       -13.7620  -26.5610   20.2170 C.ar      1 6PU         0.1320
     16 F         -14.8020  -26.3730   19.3800 F         1 6PU        -0.1909
     17 C23       -13.0010  -27.6920   20.0600 C.ar      1 6PU        -0.0416
     18 C25       -13.5490  -25.6120   21.2050 C.ar      1 6PU         0.0398
     19 C19       -12.3370  -24.6980   23.0390 C.3       1 6PU        -0.0156
     20 C18       -13.1520  -23.5930   22.3540 C.3       1 6PU         0.0073
     21 C3        -16.5190  -25.3990   21.7000 C.3       1 6PU         0.0159
     22 C2        -17.6900  -25.3410   22.6750 C.3       1 6PU         0.0351
     23 N         -19.0170  -25.4430   22.0350 N.4       1 6PU         0.2384
     24 C1        -19.1340  -26.5520   21.0830 C.3       1 6PU        -0.0427
     25 C         -20.1100  -25.4720   23.0230 C.3       1 6PU        -0.0427
     26 C11       -18.1860  -23.4010   25.7980 C.ar      1 6PU        -0.0710
     27 C9        -17.1610  -24.4250   27.7360 C.ar      1 6PU         0.0335
     28 N2        -16.9880  -24.5230   29.1360 N.pl3     1 6PU        -0.3094
     29 C14       -15.4580  -25.0020   30.9680 C.3       1 6PU         0.0487
     30 S         -16.0310  -23.9980   33.4840 S.o2      1 6PU         0.0386
     31 O1        -16.3530  -25.1740   34.2260 O.2       1 6PU        -0.1556
     32 C16       -14.3080  -23.7260   33.6190 C.3       1 6PU         0.0734
     33 O         -16.7050  -22.7820   33.8040 O.2       1 6PU        -0.1556
     34 C12       -17.8220  -23.7180   30.0310 C.3       1 6PU         0.0426
     35 H1        -15.1752  -25.1381   23.2212 H         1 6PU         0.2053
     36 H2        -16.4710  -22.8247   21.9128 H         1 6PU         0.0840
     37 H3        -15.6555  -22.8352   23.5133 H         1 6PU         0.0840
     38 H4        -18.3501  -23.3182   23.2330 H         1 6PU         0.0547
     39 H5        -15.8805  -25.6615   24.8495 H         1 6PU         0.0525
     40 H6        -15.6929  -25.9276   27.2767 H         1 6PU         0.0499
     41 H7        -18.6830  -22.9022   27.8193 H         1 6PU         0.0499
     42 H8        -18.3280  -23.5737   32.1110 H         1 6PU         0.0497
     43 H9        -18.2171  -25.2514   31.4787 H         1 6PU         0.0497
     44 H10       -15.3359  -23.3298   29.6427 H         1 6PU         0.0527
     45 H11       -14.9389  -24.9149   28.8967 H         1 6PU         0.0527
     46 H12       -14.5683  -23.7707   20.7110 H         1 6PU         0.0994
     47 H13       -10.8954  -27.1719   22.6481 H         1 6PU         0.0504
     48 H14       -11.3456  -28.7974   20.8496 H         1 6PU         0.0532
     49 H15       -13.2101  -28.3965   19.2631 H         1 6PU         0.0528
     50 H16       -11.2833  -24.4038   23.1532 H         1 6PU         0.0414
     51 H17       -12.7562  -24.9501   24.0242 H         1 6PU         0.0414
     52 H18       -13.5822  -22.9085   23.1000 H         1 6PU         0.0360
     53 H19       -12.5230  -23.0238   21.6538 H         1 6PU         0.0360
     54 H20       -16.2002  -26.4371   21.5248 H         1 6PU         0.0873
     55 H21       -16.7786  -24.9282   20.7404 H         1 6PU         0.0873
     56 H22       -17.6026  -26.1755   23.3864 H         1 6PU         0.0930
     57 H23       -19.1347  -24.5972   21.4995 H         1 6PU         0.2034
     58 H24       -20.1460  -26.5599   20.6519 H         1 6PU         0.0778
     59 H25       -18.9499  -27.5033   21.6038 H         1 6PU         0.0778
     60 H26       -18.3940  -26.4248   20.2791 H         1 6PU         0.0778
     61 H27       -19.9952  -24.6301   23.7216 H         1 6PU         0.0778
     62 H28       -20.0746  -26.4191   23.5813 H         1 6PU         0.0778
     63 H29       -21.0761  -25.3884   22.5037 H         1 6PU         0.0778
     64 H30       -18.9064  -22.7053   25.3831 H         1 6PU         0.0525
     65 H31       -15.7049  -26.0728   30.9199 H         1 6PU         0.0497
     66 H32       -14.4193  -24.8801   31.3088 H         1 6PU         0.0497
     67 H33       -14.0538  -23.4969   34.6644 H         1 6PU         0.0482
     68 H34       -14.0189  -22.8804   32.9777 H         1 6PU         0.0482
     69 H35       -13.7680  -24.6296   33.2999 H         1 6PU         0.0482
     70 H36       -17.4615  -22.6788   30.0209 H         1 6PU         0.0527
     71 H37       -18.8630  -23.7484   29.6770 H         1 6PU         0.0527
@<TRIPOS>BOND
     1    3    1 1  
     2    1   11 1  
     3   21    1 1  
     4    2    9 1  
     5   29    2 1  
     6    2   30 am 
     7    4    3 1  
     8    5    4 1  
     9    4   22 1  
    10    6    5 ar 
    11   26    5 ar 
    12    7    6 ar 
    13   27    7 ar 
    14    8   26 ar 
    15   27    8 ar 
    16    9   34 1  
    17   28   10 1  
    18   10   29 1  
    19   11   18 1  
    20   11   20 1  
    21   12   13 ar 
    22   18   12 ar 
    23   19   12 1  
    24   13   14 ar 
    25   17   14 ar 
    26   15   16 1  
    27   15   17 ar 
    28   18   15 ar 
    29   20   19 1  
    30   22   21 1  
    31   22   23 1  
    32   23   24 1  
    33   23   25 1  
    34   27   28 1  
    35   28   34 1  
    36   30   31 2  
    37   30   32 1  
    38   30   33 2  
    39    1   35 1  
    40    3   36 1  
    41    3   37 1  
    42    4   38 1  
    43    6   39 1  
    44    7   40 1  
    45    8   41 1  
    46    9   42 1  
    47    9   43 1  
    48   10   44 1  
    49   10   45 1  
    50   11   46 1  
    51   13   47 1  
    52   14   48 1  
    53   17   49 1  
    54   19   50 1  
    55   19   51 1  
    56   20   52 1  
    57   20   53 1  
    58   21   54 1  
    59   21   55 1  
    60   22   56 1  
    61   23   57 1  
    62   24   58 1  
    63   24   59 1  
    64   24   60 1  
    65   25   61 1  
    66   25   62 1  
    67   25   63 1  
    68   26   64 1  
    69   29   65 1  
    70   29   66 1  
    71   32   67 1  
    72   32   68 1  
    73   32   69 1  
    74   34   70 1  
    75   34   71 1  
@<TRIPOS>SUBSTRUCTURE
     1 6PU         1

