### 
### Created by X-TOOL on Mon Sep 10 21:13:29 2018
### 

@<TRIPOS>MOLECULE
5k0s_ligand
   45    47     1     0     0
SMALL
GAST_HUCK


@<TRIPOS>ATOM
      1 CAI        28.9590    9.9640   11.7140 C.ar      1 0OU        -0.0413
      2 CAS        27.9060   10.5100   10.9510 C.ar      1 0OU         0.0345
      3 CL1        27.9290   10.3830    9.2410 Cl        1 0OU        -0.0725
      4 CAH        26.8540   11.1540   11.5850 C.ar      1 0OU        -0.0409
      5 CAT        26.8370   11.2530   12.9510 C.ar      1 0OU         0.0345
      6 CL2        25.5010   12.0690   13.7550 Cl        1 0OU        -0.0725
      7 CAJ        27.8990   10.6990   13.7230 C.ar      1 0OU        -0.0413
      8 CAU        28.9490   10.0590   13.0910 C.ar      1 0OU         0.0022
      9 CAO        30.0810    9.4670   13.9120 C.3       1 0OU         0.0001
     10 NAP        30.7330    8.3780   13.2030 N.4       1 0OU         0.2391
     11 CAM        29.9520    7.1670   13.3680 C.3       1 0OU        -0.0304
     12 CAL        30.7950    5.9750   13.9940 C.3       1 0OU         0.0076
     13 CAN        30.7180    4.7220   13.1150 C.3       1 0OU         0.0326
     14 NAQ        29.3400    4.2400   13.0240 N.pl3     1 0OU        -0.3088
     15 CAV        28.8940    3.5080   11.8720 C.ar      1 0OU         0.0928
     16 CAK        29.7870    2.7640   11.1290 C.ar      1 0OU         0.0148
     17 CAW        29.3520    2.0520   10.0090 C.ar      1 0OU         0.1155
     18 OAA        30.2380    1.3200    9.2810 O.3       1 0OU        -0.3184
     19 CAY        27.9880    2.0970    9.6360 C.ar      1 0OU         0.0322
     20 CAG        27.5000    1.3390    8.4310 C.ar      1 0OU        -0.0505
     21 CAE        26.1610    1.3840    8.0690 C.ar      1 0OU        -0.0623
     22 CAD        25.2580    2.1420    8.8250 C.ar      1 0OU        -0.0636
     23 CAF        25.7310    2.8780    9.9950 C.ar      1 0OU        -0.0520
     24 CAX        27.1310    2.8240   10.3680 C.ar      1 0OU         0.0181
     25 NAR        27.5930    3.5510   11.5190 N.ar      1 0OU        -0.3111
     26 H1         29.7825    9.4659   11.2152 H         1 0OU         0.0565
     27 H2         26.0461   11.5785   11.0001 H         1 0OU         0.0571
     28 H3         27.8836   10.7792   14.8039 H         1 0OU         0.0565
     29 H4         29.6746    9.0850   14.8601 H         1 0OU         0.0979
     30 H5         30.8216   10.2530   14.1208 H         1 0OU         0.0979
     31 H6         31.6576    8.2367   13.5787 H         1 0OU         0.2028
     32 H7         30.7995    8.6055   12.2233 H         1 0OU         0.2028
     33 H8         29.5767    6.8532   12.3828 H         1 0OU         0.0814
     34 H9         29.1023    7.3838   14.0321 H         1 0OU         0.0814
     35 H10        30.3965    5.7387   14.9917 H         1 0OU         0.0337
     36 H11        31.8461    6.2868   14.0833 H         1 0OU         0.0337
     37 H12        31.3482    3.9340   13.5530 H         1 0OU         0.0522
     38 H13        31.0831    4.9652   12.1063 H         1 0OU         0.0522
     39 H14        28.6826    4.4276   13.7944 H         1 0OU         0.1824
     40 H15        30.8318    2.7318   11.4160 H         1 0OU         0.0512
     41 H16        29.7837    0.9013    8.5594 H         1 0OU         0.2572
     42 H17        28.1982    0.7547    7.8426 H         1 0OU         0.0649
     43 H18        25.8144    0.8331    7.2021 H         1 0OU         0.0581
     44 H19        24.2121    2.1824    8.5431 H         1 0OU         0.0634
     45 H20        25.0353    3.4644   10.5842 H         1 0OU         0.0582
@<TRIPOS>BOND
     1    1    2 ar 
     2    1    8 ar 
     3    2    3 1  
     4    2    4 ar 
     5    4    5 ar 
     6    5    6 1  
     7    5    7 ar 
     8    7    8 ar 
     9    8    9 1  
    10    9   10 1  
    11   10   11 1  
    12   11   12 1  
    13   12   13 1  
    14   13   14 1  
    15   14   15 1  
    16   15   16 ar 
    17   15   25 ar 
    18   16   17 ar 
    19   17   18 1  
    20   17   19 ar 
    21   19   20 ar 
    22   19   24 ar 
    23   20   21 ar 
    24   21   22 ar 
    25   22   23 ar 
    26   23   24 ar 
    27   24   25 ar 
    28    1   26 1  
    29    4   27 1  
    30    7   28 1  
    31    9   29 1  
    32    9   30 1  
    33   10   31 1  
    34   10   32 1  
    35   11   33 1  
    36   11   34 1  
    37   12   35 1  
    38   12   36 1  
    39   13   37 1  
    40   13   38 1  
    41   14   39 1  
    42   16   40 1  
    43   18   41 1  
    44   20   42 1  
    45   21   43 1  
    46   22   44 1  
    47   23   45 1  
@<TRIPOS>SUBSTRUCTURE
     1 0OU         1

