### 
### Created by X-TOOL on Mon Sep 10 21:13:30 2018
### 

@<TRIPOS>MOLECULE
5k0t_ligand
   47    48     1     0     0
SMALL
GAST_HUCK


@<TRIPOS>ATOM
      1 CAA        27.5300    9.9680    9.0100 C.3       1 415         0.0592
      2 OAS        28.2290   11.0230    9.6530 O.3       1 415        -0.3230
      3 CAX        28.0470   11.0020   11.0340 C.ar      1 415         0.0847
      4 CAK        29.0160   10.4760   11.8450 C.ar      1 415        -0.0271
      5 CAJ        26.8300   11.5100   11.5880 C.ar      1 415        -0.0263
      6 CAU        26.6370   11.4820   12.9680 C.ar      1 415         0.0255
      7 CLC        25.1750   12.1080   13.5930 Cl        1 415        -0.0753
      8 CAI        27.6440   10.9440   13.8150 C.ar      1 415        -0.0526
      9 CAV        28.8120   10.4510   13.2730 C.ar      1 415        -0.0070
     10 CAO        29.9000    9.8660   14.1580 C.3       1 415        -0.0024
     11 NAP        29.5780    8.4820   14.4510 N.4       1 415         0.2390
     12 CAM        30.6750    7.6010   14.4230 C.3       1 415        -0.0305
     13 CAL        30.8170    6.9020   13.0000 C.3       1 415         0.0074
     14 CAN        31.0030    5.3490   13.0930 C.3       1 415         0.0366
     15 NAQ        29.7920    4.6810   12.8730 N.am      1 415        -0.2677
     16 CAT        29.4410    4.0590   11.6410 C.2       1 415         0.2872
     17 OAB        30.2330    4.0920   10.6520 O.2       1 415        -0.3904
     18 NAR        28.1420    3.3920   11.5580 N.am      1 415        -0.2196
     19 CAW        27.6420    2.7410   10.3830 C.ar      1 415         0.0665
     20 CAG        26.2990    2.8710   10.1070 C.ar      1 415        -0.0416
     21 CAE        25.7200    2.2510    8.9390 C.ar      1 415        -0.0757
     22 CAD        26.5280    1.5070    8.0720 C.ar      1 415        -0.0773
     23 CAF        27.8960    1.3700    8.3430 C.ar      1 415        -0.0757
     24 CAH        28.4650    1.9770    9.4950 C.ar      1 415        -0.0416
     25 H1         27.7011   10.0227    7.9248 H         1 415         0.0577
     26 H2         26.4537   10.0618    9.2166 H         1 415         0.0577
     27 H3         27.8936    9.0020    9.3902 H         1 415         0.0577
     28 H4         29.9304   10.0809   11.4173 H         1 415         0.0482
     29 H5         26.0623   11.9144   10.9383 H         1 415         0.0491
     30 H6         27.4934   10.9213   14.8883 H         1 415         0.0472
     31 H7         29.9591   10.4373   15.0961 H         1 415         0.0978
     32 H8         30.8669    9.9170   13.6361 H         1 415         0.0978
     33 H9         28.9049    8.1660   13.7704 H         1 415         0.2028
     34 H10        29.1687    8.4436   15.3713 H         1 415         0.2028
     35 H11        30.5323    6.8261   15.1905 H         1 415         0.0814
     36 H12        31.5941    8.1657   14.6384 H         1 415         0.0814
     37 H13        31.6908    7.3289   12.4860 H         1 415         0.0336
     38 H14        29.9092    7.1113   12.4152 H         1 415         0.0336
     39 H15        31.3781    5.0916   14.0945 H         1 415         0.0519
     40 H16        31.7326    5.0287   12.3346 H         1 415         0.0519
     41 H17        29.1349    4.6383   13.6256 H         1 415         0.1852
     42 H18        27.5648    3.3900   12.3746 H         1 415         0.2255
     43 H19        25.6686    3.4463   10.7754 H         1 415         0.0501
     44 H20        24.6613    2.3616    8.7340 H         1 415         0.0577
     45 H21        26.0975    1.0386    7.1944 H         1 415         0.0486
     46 H22        28.5239    0.7976    7.6699 H         1 415         0.0577
     47 H23        29.5229    1.8615    9.7015 H         1 415         0.0501
@<TRIPOS>BOND
     1    1    2 1  
     2    2    3 1  
     3    3    4 ar 
     4    3    5 ar 
     5    4    9 ar 
     6    5    6 ar 
     7    6    7 1  
     8    6    8 ar 
     9    8    9 ar 
    10    9   10 1  
    11   10   11 1  
    12   11   12 1  
    13   12   13 1  
    14   13   14 1  
    15   14   15 1  
    16   15   16 am 
    17   16   17 2  
    18   16   18 am 
    19   18   19 1  
    20   19   20 ar 
    21   19   24 ar 
    22   20   21 ar 
    23   21   22 ar 
    24   22   23 ar 
    25   23   24 ar 
    26    1   25 1  
    27    1   26 1  
    28    1   27 1  
    29    4   28 1  
    30    5   29 1  
    31    8   30 1  
    32   10   31 1  
    33   10   32 1  
    34   11   33 1  
    35   11   34 1  
    36   12   35 1  
    37   12   36 1  
    38   13   37 1  
    39   13   38 1  
    40   14   39 1  
    41   14   40 1  
    42   15   41 1  
    43   18   42 1  
    44   20   43 1  
    45   21   44 1  
    46   22   45 1  
    47   23   46 1  
    48   24   47 1  
@<TRIPOS>SUBSTRUCTURE
     1 415         1

