### 
### Created by X-TOOL on Mon Sep 10 21:13:32 2018
### 

@<TRIPOS>MOLECULE
5k0x_ligand
   75    77     1     0     0
SMALL
GAST_HUCK


@<TRIPOS>ATOM
      1 C14         3.2410    1.6260   22.8120 C.3       1 K0X        -0.0482
      2 C15         4.7720    1.8110   22.6740 C.3       1 K0X        -0.0511
      3 C16         5.3320    3.1410   23.2360 C.3       1 K0X        -0.0327
      4 C17         4.3650    4.1860   23.8520 C.3       1 K0X         0.0311
      5 C13         2.5270    0.8410   21.7110 C.3       1 K0X        -0.0124
      6 C12         3.3890   -0.1660   20.9340 C.3       1 K0X        -0.0281
      7 C10         2.4370    0.0850   18.5250 C.3       1 K0X         0.0379
      8 C27         0.6300    2.4550   12.7580 C.3       1 K0X         0.0629
      9 C28         0.9820    1.5440   11.5240 C.ar      1 K0X        -0.0248
     10 C29         2.2710    1.0090   11.3340 C.ar      1 K0X        -0.0601
     11 C19         5.1150    5.9850   22.2710 C.2       1 K0X         0.2245
     12 C22         1.5150   -0.0200   16.2860 C.3       1 K0X         0.0115
     13 C24         1.8870    2.0780   14.9400 C.2       1 K0X         0.2092
     14 C23         2.1090    1.2920   16.2670 C.3       1 K0X         0.1695
     15 N01         5.9270    7.0430   20.1630 N.4       1 K0X         0.2379
     16 C02         4.8610    7.0390   21.1760 C.3       1 K0X         0.0649
     17 C03         3.4680    6.7750   20.5070 C.3       1 K0X         0.0079
     18 C04         3.4060    5.7430   19.3270 C.3       1 K0X        -0.0438
     19 C05         3.9630    4.2860   19.5140 C.3       1 K0X        -0.0313
     20 C06         4.5620    3.6250   18.2440 C.3       1 K0X         0.0351
     21 N07         3.5760    3.1320   17.2290 N.pl3     1 K0X        -0.2868
     22 C08         3.0680    1.7350   17.1790 C.2       1 K0X         0.1282
     23 N09         3.3280    0.9320   18.1480 N.2       1 K0X        -0.2795
     24 N11         2.6270   -0.6830   19.7800 N.4       1 K0X         0.2669
     25 N18         4.0310    5.1980   22.8460 N.am      1 K0X        -0.2823
     26 O20         6.2190    5.7370   22.6490 O.2       1 K0X        -0.3909
     27 N21         2.0160   -0.6460   17.4390 N.4       1 K0X         0.2709
     28 O25         2.5800    2.9910   14.6310 O.2       1 K0X        -0.3914
     29 N26         0.7950    1.6970   14.0290 N.am      1 K0X        -0.2731
     30 C30         2.5410    0.1950   10.2100 C.ar      1 K0X        -0.0348
     31 C31         1.5570   -0.0830    9.2650 C.ar      1 K0X         0.1248
     32 F32         1.8460   -0.8770    8.1690 F         1 K0X        -0.1893
     33 C33         0.2920    0.4450    9.4450 C.ar      1 K0X        -0.0348
     34 C34         0.0080    1.2520   10.5680 C.ar      1 K0X        -0.0601
     35 H1          2.7891    2.6282   22.8492 H         1 K0X         0.0267
     36 H2          3.0556    1.1046   23.7627 H         1 K0X         0.0267
     37 H3          5.0252    1.7607   21.6047 H         1 K0X         0.0266
     38 H4          5.2635    0.9835   23.2066 H         1 K0X         0.0266
     39 H5          5.8558    3.6411   22.4081 H         1 K0X         0.0285
     40 H6          6.0557    2.8755   24.0207 H         1 K0X         0.0285
     41 H7          4.8493    4.6708   24.7124 H         1 K0X         0.0520
     42 H8          3.4452    3.6826   24.1846 H         1 K0X         0.0520
     43 H9          2.1231    1.5658   20.9888 H         1 K0X         0.0317
     44 H10         1.6988    0.2864   22.1762 H         1 K0X         0.0317
     45 H11         3.6627   -1.0010   21.5957 H         1 K0X         0.0815
     46 H12         4.3018    0.3327   20.5762 H         1 K0X         0.0815
     47 H13         1.5737    0.7202   18.7723 H         1 K0X         0.1535
     48 H14        -0.4127    2.7945   12.6717 H         1 K0X         0.0676
     49 H15         1.3001    3.3272   12.7670 H         1 K0X         0.0676
     50 H16         3.0566    1.2215   12.0501 H         1 K0X         0.0548
     51 H17         1.8029   -0.5847   15.3870 H         1 K0X         0.0880
     52 H18         0.4188    0.0557   16.3361 H         1 K0X         0.0880
     53 H19         1.2788    1.7686   16.8088 H         1 K0X         0.0884
     54 H20         5.7258    7.7432   19.4663 H         1 K0X         0.2015
     55 H21         5.9769    6.1369   19.7241 H         1 K0X         0.2015
     56 H22         6.8090    7.2517   20.6041 H         1 K0X         0.2015
     57 H23         4.8381    8.0309   21.6510 H         1 K0X         0.1098
     58 H24         3.1023    7.7376   20.1202 H         1 K0X         0.0346
     59 H25         2.7894    6.4143   21.2940 H         1 K0X         0.0346
     60 H26         3.9623    6.1882   18.4890 H         1 K0X         0.0269
     61 H27         2.3459    5.6424   19.0512 H         1 K0X         0.0269
     62 H28         3.1369    3.6514   19.8673 H         1 K0X         0.0286
     63 H29         4.7516    4.3216   20.2800 H         1 K0X         0.0286
     64 H30         5.1694    2.7666   18.5667 H         1 K0X         0.0533
     65 H31         5.2080    4.3670   17.7519 H         1 K0X         0.0533
     66 H32         3.2299    3.7994   16.5250 H         1 K0X         0.1933
     67 H33         1.7014   -0.8824   20.1258 H         1 K0X         0.2076
     68 H34         3.0785   -1.5436   19.5127 H         1 K0X         0.2076
     69 H35         3.0837    5.3449   22.5613 H         1 K0X         0.1852
     70 H36         1.2860   -1.2562   17.7719 H         1 K0X         0.2080
     71 H37         2.8061   -1.1976   17.1432 H         1 K0X         0.2080
     72 H38         0.1772    0.9451   14.2589 H         1 K0X         0.1879
     73 H39         3.5338   -0.2209   10.0814 H         1 K0X         0.0587
     74 H40        -0.4864    0.2381    8.7195 H         1 K0X         0.0587
     75 H41        -0.9909    1.6547   10.6908 H         1 K0X         0.0548
@<TRIPOS>BOND
     1    1    2 1  
     2    5    1 1  
     3    2    3 1  
     4    3    4 1  
     5    4   25 1  
     6    6    5 1  
     7   24    6 1  
     8    7   23 1  
     9    7   24 1  
    10   27    7 1  
    11    8    9 1  
    12   29    8 1  
    13    9   10 ar 
    14    9   34 ar 
    15   10   30 ar 
    16   11   16 1  
    17   25   11 am 
    18   11   26 2  
    19   14   12 1  
    20   12   27 1  
    21   13   14 1  
    22   13   28 2  
    23   13   29 am 
    24   14   22 1  
    25   16   15 1  
    26   16   17 1  
    27   17   18 1  
    28   18   19 1  
    29   19   20 1  
    30   20   21 1  
    31   21   22 1  
    32   22   23 2  
    33   30   31 ar 
    34   31   32 1  
    35   31   33 ar 
    36   33   34 ar 
    37    1   35 1  
    38    1   36 1  
    39    2   37 1  
    40    2   38 1  
    41    3   39 1  
    42    3   40 1  
    43    4   41 1  
    44    4   42 1  
    45    5   43 1  
    46    5   44 1  
    47    6   45 1  
    48    6   46 1  
    49    7   47 1  
    50    8   48 1  
    51    8   49 1  
    52   10   50 1  
    53   12   51 1  
    54   12   52 1  
    55   14   53 1  
    56   15   54 1  
    57   15   55 1  
    58   15   56 1  
    59   16   57 1  
    60   17   58 1  
    61   17   59 1  
    62   18   60 1  
    63   18   61 1  
    64   19   62 1  
    65   19   63 1  
    66   20   64 1  
    67   20   65 1  
    68   21   66 1  
    69   24   67 1  
    70   24   68 1  
    71   25   69 1  
    72   27   70 1  
    73   27   71 1  
    74   29   72 1  
    75   30   73 1  
    76   33   74 1  
    77   34   75 1  
@<TRIPOS>SUBSTRUCTURE
     1 K0X         1

