### 
### Created by X-TOOL on Mon Sep 10 21:13:28 2018
### 

@<TRIPOS>MOLECULE
5k13_ligand
   59    62     1     0     0
SMALL
GAST_HUCK


@<TRIPOS>ATOM
      1 C4         50.8900   -8.5950   10.1760 C.ar      1 6Q7        -0.0515
      2 C5         49.7410   -6.0970   10.3260 C.ar      1 6Q7        -0.0482
      3 C6         50.1570   -8.1150    9.1070 C.ar      1 6Q7        -0.0482
      4 C7         53.3740   -9.3540   18.4930 C.ar      1 6Q7        -0.0397
      5 C8         55.4460  -10.1960   14.0650 C.ar      1 6Q7        -0.0232
      6 C10        56.4600  -11.1400   14.1590 C.ar      1 6Q7        -0.0406
      7 C13        51.7060   -8.0400   13.8080 C.2       1 6Q7        -0.0270
      8 C15        52.8870   -9.0590   15.8190 C.ar      1 6Q7         0.0413
      9 C17        53.2040  -10.4970   17.7290 C.ar      1 6Q7        -0.0473
     10 C20        51.7910   -8.3490   12.4280 C.2       1 6Q7         0.0444
     11 C21        52.6040   -8.8910   14.4200 C.2       1 6Q7         0.1158
     12 C22        48.7540   -6.3390    8.0510 C.2       1 6Q7         0.0621
     13 C24        54.6680  -12.3390   18.5700 C.3       1 6Q7        -0.0835
     14 C26        57.4530  -14.0650   15.4710 C.3       1 6Q7         0.0588
     15 C1         53.3040   -8.0830   17.9550 C.ar      1 6Q7        -0.0321
     16 C2         53.0520   -7.9340   16.6050 C.ar      1 6Q7        -0.0238
     17 C3         50.4740   -6.5670   11.4040 C.ar      1 6Q7        -0.0515
     18 C9         54.0250  -11.8540   13.0250 C.ar      1 6Q7        -0.0232
     19 C11        55.0380  -12.7910   13.0950 C.ar      1 6Q7        -0.0406
     20 C12        52.9490  -10.3310   16.3750 C.ar      1 6Q7        -0.0293
     21 C14        51.0370   -7.8240   11.3200 C.ar      1 6Q7        -0.0107
     22 C16        49.5780   -6.8630    9.1850 C.ar      1 6Q7         0.0091
     23 C18        54.2370  -10.5700   13.5000 C.ar      1 6Q7         0.1127
     24 C19        56.2390  -12.4110   13.6650 C.ar      1 6Q7         0.0813
     25 C23        52.6450  -11.8260   19.7710 C.3       1 6Q7        -0.0835
     26 C25        52.4770  -12.9190   17.6160 C.3       1 6Q7        -0.0835
     27 C27        53.2530  -11.8660   18.3830 C.3       1 6Q7        -0.0448
     28 N28        52.6870   -9.3220   12.2240 N.2       1 6Q7        -0.1935
     29 N29        53.1820   -9.6360   13.4240 N.pl3     1 6Q7        -0.1543
     30 O30        48.3740   -5.1400    8.1260 O.co2     1 6Q7        -0.5610
     31 O31        57.1810  -14.7910   13.0290 O.2       1 6Q7        -0.1704
     32 O32        58.7800  -12.8710   13.5180 O.2       1 6Q7        -0.1704
     33 O33        48.4660   -7.1430    7.1250 O.co2     1 6Q7        -0.5610
     34 S34        57.5630  -13.6070   13.7700 S.o2      1 6Q7        -0.0087
     35 H1         51.3504   -9.5748   10.1205 H         1 6Q7         0.0622
     36 H2         49.2880   -5.1135   10.3773 H         1 6Q7         0.0648
     37 H3         50.0372   -8.7168    8.2134 H         1 6Q7         0.0648
     38 H4         53.5695   -9.4607   19.5539 H         1 6Q7         0.0847
     39 H5         55.5972   -9.1854   14.4268 H         1 6Q7         0.0590
     40 H6         57.4103  -10.8835   14.6130 H         1 6Q7         0.0620
     41 H7         51.0706   -7.2937   14.2825 H         1 6Q7         0.0394
     42 H8         54.6632  -13.3311   19.0451 H         1 6Q7         0.0139
     43 H9         55.2106  -11.6283   19.2107 H         1 6Q7         0.0139
     44 H10        55.1654  -12.4037   17.5910 H         1 6Q7         0.0139
     45 H11        58.2239  -14.8158   15.6991 H         1 6Q7         0.0467
     46 H12        56.4580  -14.4881   15.6732 H         1 6Q7         0.0467
     47 H13        57.6087  -13.1767   16.1008 H         1 6Q7         0.0467
     48 H14        53.4453   -7.2126   18.5854 H         1 6Q7         0.0697
     49 H15        52.9843   -6.9450   16.1665 H         1 6Q7         0.0860
     50 H16        50.6023   -5.9607   12.2934 H         1 6Q7         0.0622
     51 H17        53.0653  -12.1233   12.5988 H         1 6Q7         0.0590
     52 H18        54.8952  -13.7957   12.7138 H         1 6Q7         0.0620
     53 H19        52.7969  -11.2007   15.7460 H         1 6Q7         0.0853
     54 H20        51.6013  -11.4850   19.7044 H         1 6Q7         0.0139
     55 H21        53.2181  -11.1312   20.4025 H         1 6Q7         0.0139
     56 H22        52.6743  -12.8327   20.2133 H         1 6Q7         0.0139
     57 H23        52.8747  -12.9951   16.5932 H         1 6Q7         0.0139
     58 H24        51.4149  -12.6354   17.5762 H         1 6Q7         0.0139
     59 H25        52.5784  -13.8904   18.1220 H         1 6Q7         0.0139
@<TRIPOS>BOND
     1    1    3 ar 
     2   21    1 ar 
     3   17    2 ar 
     4    2   22 ar 
     5    3   22 ar 
     6    9    4 ar 
     7   15    4 ar 
     8    6    5 ar 
     9    5   23 ar 
    10   24    6 ar 
    11    7   10 1  
    12   11    7 2  
    13   11    8 1  
    14    8   16 ar 
    15    8   20 ar 
    16   20    9 ar 
    17    9   27 1  
    18   10   21 1  
    19   10   28 2  
    20   29   11 1  
    21   22   12 1  
    22   12   30 ar 
    23   12   33 ar 
    24   27   13 1  
    25   34   14 1  
    26   16   15 ar 
    27   21   17 ar 
    28   19   18 ar 
    29   18   23 ar 
    30   24   19 ar 
    31   23   29 1  
    32   24   34 1  
    33   27   25 1  
    34   27   26 1  
    35   28   29 1  
    36   34   31 2  
    37   34   32 2  
    38    1   35 1  
    39    2   36 1  
    40    3   37 1  
    41    4   38 1  
    42    5   39 1  
    43    6   40 1  
    44    7   41 1  
    45   13   42 1  
    46   13   43 1  
    47   13   44 1  
    48   14   45 1  
    49   14   46 1  
    50   14   47 1  
    51   15   48 1  
    52   16   49 1  
    53   17   50 1  
    54   18   51 1  
    55   19   52 1  
    56   20   53 1  
    57   25   54 1  
    58   25   55 1  
    59   25   56 1  
    60   26   57 1  
    61   26   58 1  
    62   26   59 1  
@<TRIPOS>SUBSTRUCTURE
     1 6Q7         1

