### 
### Created by X-TOOL on Mon Sep 10 21:13:28 2018
### 

@<TRIPOS>MOLECULE
5k1i_ligand
   46    48     1     0     0
SMALL
GAST_HUCK


@<TRIPOS>ATOM
      1 C18        15.1970    2.8950   64.1280 C.ar      1 6PT        -0.0570
      2 C9          7.3170    4.6260   69.3820 C.ar      1 6PT        -0.0637
      3 C10         7.6850    3.3400   68.9830 C.ar      1 6PT        -0.0633
      4 C11         9.0150    2.9350   69.0420 C.ar      1 6PT        -0.0560
      5 C16        14.0360    4.9090   64.7320 C.ar      1 6PT        -0.0570
      6 C12        11.6490    3.6500   67.1670 C.2       1 6PT         0.1172
      7 C6          9.9700    3.8110   69.5080 C.ar      1 6PT        -0.0102
      8 C5         14.2320    4.0740   73.1030 C.3       1 6PT        -0.0347
      9 C20        14.5870    4.5570   62.3340 C.2       1 6PT         0.0553
     10 C3         13.6370    3.1750   68.7590 C.2       1 6PT         0.1691
     11 O2         15.1970    3.8520   61.5010 O.co2     1 6PT        -0.5638
     12 C13        10.9220    4.9090   66.8000 C.3       1 6PT         0.0067
     13 N2         14.6220    3.0510   67.8110 N.pl3     1 6PT        -0.2549
     14 C14        14.6160    3.2880   66.4340 C.ar      1 6PT         0.0682
     15 C15        14.0760    4.5180   66.0590 C.ar      1 6PT        -0.0339
     16 O3         14.0130    5.6310   62.0050 O.co2     1 6PT        -0.5638
     17 C17        14.6020    4.1010   63.7660 C.ar      1 6PT        -0.0016
     18 C19        15.2260    2.4920   65.4650 C.ar      1 6PT        -0.0339
     19 C21        14.0670    2.9600   70.0730 C.2       1 6PT         0.2774
     20 O4         15.2640    2.7250   70.3470 O.2       1 6PT        -0.3927
     21 C2         12.2760    3.4620   68.5370 C.2       1 6PT         0.0791
     22 O1         11.6750    2.6870   66.3780 O.2       1 6PT        -0.3918
     23 C1         11.4200    3.4920   69.6410 C.2       1 6PT         0.0752
     24 N1         11.8920    3.2910   70.8980 N.2       1 6PT        -0.1759
     25 N3         13.2460    3.0120   71.1010 N.am      1 6PT        -0.1475
     26 C4         13.8150    2.7800   72.4330 C.3       1 6PT         0.0771
     27 C8          8.2770    5.5170   69.8550 C.ar      1 6PT        -0.0633
     28 C7          9.5990    5.0970   69.9070 C.ar      1 6PT        -0.0560
     29 H1         15.6410    2.2643   63.3663 H         1 6PT         0.0621
     30 H2          6.2789    4.9326   69.3234 H         1 6PT         0.0601
     31 H3          6.9287    2.6513   68.6243 H         1 6PT         0.0612
     32 H4          9.2971    1.9379   68.7237 H         1 6PT         0.0607
     33 H5         13.5633    5.8437   64.4528 H         1 6PT         0.0621
     34 H6         14.6517    3.8542   74.0957 H         1 6PT         0.0258
     35 H7         13.3553    4.7293   73.2125 H         1 6PT         0.0258
     36 H8         14.9916    4.5776   72.4871 H         1 6PT         0.0258
     37 H9         10.5512    4.8305   65.7673 H         1 6PT         0.0444
     38 H10        11.6082    5.7650   66.8791 H         1 6PT         0.0444
     39 H11        10.0732    5.0550   67.4842 H         1 6PT         0.0444
     40 H12        15.5266    2.7253   68.1805 H         1 6PT         0.2196
     41 H13        13.6804    5.1799   66.8209 H         1 6PT         0.0546
     42 H14        15.7185    1.5684   65.7470 H         1 6PT         0.0546
     43 H15        13.0608    2.2819   73.0600 H         1 6PT         0.0642
     44 H16        14.6971    2.1302   72.3345 H         1 6PT         0.0642
     45 H17         7.9986    6.5146   70.1749 H         1 6PT         0.0612
     46 H18        10.3595    5.7816   70.2648 H         1 6PT         0.0607
@<TRIPOS>BOND
     1    1   17 ar 
     2   18    1 ar 
     3    3    2 ar 
     4    2   27 ar 
     5    4    3 ar 
     6    7    4 ar 
     7   15    5 ar 
     8    5   17 ar 
     9    6   12 1  
    10   21    6 1  
    11    6   22 2  
    12   23    7 1  
    13    7   28 ar 
    14   26    8 1  
    15    9   11 ar 
    16    9   16 ar 
    17   17    9 1  
    18   10   13 1  
    19   19   10 1  
    20   10   21 2  
    21   13   14 1  
    22   14   15 ar 
    23   14   18 ar 
    24   19   20 2  
    25   25   19 am 
    26   23   21 1  
    27   24   23 2  
    28   25   24 1  
    29   25   26 1  
    30   27   28 ar 
    31    1   29 1  
    32    2   30 1  
    33    3   31 1  
    34    4   32 1  
    35    5   33 1  
    36    8   34 1  
    37    8   35 1  
    38    8   36 1  
    39   12   37 1  
    40   12   38 1  
    41   12   39 1  
    42   13   40 1  
    43   15   41 1  
    44   18   42 1  
    45   26   43 1  
    46   26   44 1  
    47   27   45 1  
    48   28   46 1  
@<TRIPOS>SUBSTRUCTURE
     1 6PT         1

