### 
### Created by X-TOOL on Mon Sep 10 21:13:33 2018
### 

@<TRIPOS>MOLECULE
5k1v_ligand
   68    69     1     0     0
SMALL
GAST_HUCK


@<TRIPOS>ATOM
      1 C1         18.4950    4.5740    1.4430 C.3       1 6PX         0.0703
      2 C2         19.9830    4.2950    1.2780 C.2       1 6PX         0.2489
      3 C4         16.4340    3.2490    2.5930 C.3       1 6PX        -0.0125
      4 C6         13.7590    3.5790    5.2160 C.cat     1 6PX         0.2882
      5 C8         21.8650    2.6770    2.2350 C.ar      1 6PX         0.0915
      6 C10        24.4640    1.4890    2.5860 C.ar      1 6PX        -0.0687
      7 C13        22.0730    1.2910    2.0570 C.ar      1 6PX        -0.0325
      8 C19        19.8660   -1.8000    1.5110 C.ar      1 6PX        -0.0685
      9 C21        19.9600   -2.4980    0.3070 C.ar      1 6PX        -0.0398
     10 C23        21.3090   -1.0540    7.8550 C.3       1 6PX         0.0658
     11 N1         17.8570    4.6580    0.1850 N.4       1 6PX         0.2382
     12 O1         20.6750    4.9630    0.5140 O.2       1 6PX        -0.3803
     13 C3         17.9740    3.5220    2.4230 C.3       1 6PX         0.0114
     14 C5         15.8940    3.9260    3.8780 C.3       1 6PX         0.0629
     15 N2         15.0130    3.0570    4.6210 N.pl3     1 6PX        -0.2723
     16 N3         13.4100    4.8560    5.0690 N.pl3     1 6PX        -0.2849
     17 N4         12.9830    2.7250    5.9030 N.pl3     1 6PX        -0.2849
     18 C7         23.5800   -0.8130    2.1010 C.2       1 6PX         0.1940
     19 N5         20.5390    3.2180    2.1150 N.am      1 6PX        -0.2328
     20 O2         24.4210   -1.3650    1.3130 O.2       1 6PX        -0.3907
     21 C9         22.9510    3.4730    2.5950 C.ar      1 6PX         0.0644
     22 N6         22.7680    4.8480    2.7660 N.pl3     1 6PX        -0.3390
     23 C11        23.3550    0.7160    2.2400 C.ar      1 6PX         0.0225
     24 C12        24.2230    2.8740    2.7540 C.ar      1 6PX        -0.0507
     25 N7         22.8670   -1.5230    3.1670 N.am      1 6PX        -0.2642
     26 C14        21.8840   -0.9740    4.1420 C.3       1 6PX         0.1496
     27 C15        22.2270   -1.1020    5.5820 C.2       1 6PX         0.2611
     28 O3         23.3910   -1.1180    6.0050 O.2       1 6PX        -0.3677
     29 C16        20.4870   -1.6240    4.0020 C.3       1 6PX         0.0176
     30 C17        20.4770   -2.3590    2.6450 C.ar      1 6PX        -0.0491
     31 C18        21.1540   -3.5870    2.5760 C.ar      1 6PX        -0.0685
     32 C20        21.2590   -4.2840    1.3930 C.ar      1 6PX        -0.0398
     33 C22        20.6540   -3.7090    0.2830 C.ar      1 6PX         0.0805
     34 O4         20.7350   -4.4080   -0.9200 O.3       1 6PX        -0.3376
     35 O5         21.0750   -0.9830    6.4150 O.3       1 6PX        -0.2783
     36 H1         18.3720    5.5571    1.9209 H         1 6PX         0.1102
     37 H2         16.2651    2.1640    2.6588 H         1 6PX         0.0302
     38 H3         15.8979    3.6514    1.7208 H         1 6PX         0.0302
     39 H4         25.4489    1.0560    2.7180 H         1 6PX         0.0511
     40 H5         21.2392    0.6578    1.7762 H         1 6PX         0.0506
     41 H6         19.3376   -0.8553    1.5694 H         1 6PX         0.0530
     42 H7         19.5021   -2.1069   -0.5943 H         1 6PX         0.0525
     43 H8         20.3521   -0.9505    8.3875 H         1 6PX         0.0577
     44 H9         21.9863   -0.2416    8.1569 H         1 6PX         0.0577
     45 H10        21.7648   -2.0234    8.1051 H         1 6PX         0.0577
     46 H11        16.8750    4.8428    0.3180 H         1 6PX         0.2015
     47 H12        17.9711    3.7865   -0.3085 H         1 6PX         0.2015
     48 H13        18.2697    5.4047   -0.3519 H         1 6PX         0.2015
     49 H14        18.3497    3.8097    3.4160 H         1 6PX         0.0347
     50 H15        18.4274    2.5660    2.1222 H         1 6PX         0.0347
     51 H16        15.3408    4.8337    3.5950 H         1 6PX         0.0689
     52 H17        16.7450    4.2001    4.5188 H         1 6PX         0.0689
     53 H18        15.2580    2.0636    4.7392 H         1 6PX         0.2642
     54 H19        12.5356    5.2025    5.4887 H         1 6PX         0.2615
     55 H20        14.0146    5.4970    4.5356 H         1 6PX         0.2615
     56 H21        13.2675    1.7406    6.0073 H         1 6PX         0.2615
     57 H22        12.1033    3.0544    6.3256 H         1 6PX         0.2615
     58 H23        19.8669    2.7807    2.7126 H         1 6PX         0.2219
     59 H24        23.5645    5.4444    3.0320 H         1 6PX         0.1698
     60 H25        21.8366    5.2649    2.6260 H         1 6PX         0.1698
     61 H26        25.0593    3.5108    3.0191 H         1 6PX         0.0482
     62 H27        23.0658   -2.4995    3.2501 H         1 6PX         0.1875
     63 H28        21.7938    0.0987    3.9157 H         1 6PX         0.0837
     64 H29        19.7049   -0.8507    4.0206 H         1 6PX         0.0454
     65 H30        20.3165   -2.3377    4.8215 H         1 6PX         0.0454
     66 H31        21.6039   -3.9954    3.4737 H         1 6PX         0.0530
     67 H32        21.7851   -5.2298    1.3315 H         1 6PX         0.0525
     68 H33        20.2877   -3.9183   -1.6002 H         1 6PX         0.2458
@<TRIPOS>BOND
     1    2    1 1  
     2    1   11 1  
     3    1   13 1  
     4    2   12 2  
     5   19    2 am 
     6   13    3 1  
     7    3   14 1  
     8   15    4 ar 
     9    4   16 ar 
    10    4   17 ar 
    11    7    5 ar 
    12    5   19 1  
    13    5   21 ar 
    14   23    6 ar 
    15    6   24 ar 
    16   23    7 ar 
    17    8    9 ar 
    18   30    8 ar 
    19    9   33 ar 
    20   35   10 1  
    21   14   15 1  
    22   18   20 2  
    23   18   23 1  
    24   25   18 am 
    25   21   22 1  
    26   24   21 ar 
    27   26   25 1  
    28   26   27 1  
    29   29   26 1  
    30   27   28 2  
    31   27   35 1  
    32   29   30 1  
    33   30   31 ar 
    34   31   32 ar 
    35   32   33 ar 
    36   33   34 1  
    37    1   36 1  
    38    3   37 1  
    39    3   38 1  
    40    6   39 1  
    41    7   40 1  
    42    8   41 1  
    43    9   42 1  
    44   10   43 1  
    45   10   44 1  
    46   10   45 1  
    47   11   46 1  
    48   11   47 1  
    49   11   48 1  
    50   13   49 1  
    51   13   50 1  
    52   14   51 1  
    53   14   52 1  
    54   15   53 1  
    55   16   54 1  
    56   16   55 1  
    57   17   56 1  
    58   17   57 1  
    59   19   58 1  
    60   22   59 1  
    61   22   60 1  
    62   24   61 1  
    63   25   62 1  
    64   26   63 1  
    65   29   64 1  
    66   29   65 1  
    67   31   66 1  
    68   32   67 1  
    69   34   68 1  
@<TRIPOS>SUBSTRUCTURE
     1 6PX         1

