### 
### Created by X-TOOL on Wed Jan  1 15:39:34 2020
### 

@<TRIPOS>MOLECULE
5k32_ligand
   45    48     1     0     0
SMALL
GAST_HUCK


@<TRIPOS>ATOM
      1 C18        12.9150   45.8290   13.9240 C.ar      1 6Q2         0.0530
      2 C9         15.7270   46.1260   10.6010 C.ar      1 6Q2         0.0345
      3 C11        17.1700   46.3790   10.7430 C.ar      1 6Q2        -0.0040
      4 C16        17.8650   45.7840   11.8050 C.ar      1 6Q2        -0.0504
      5 C12        17.8830   47.1170    9.7900 C.ar      1 6Q2        -0.0504
      6 C6         13.1040   45.5470   10.2380 C.ar      1 6Q2         0.0975
      7 C5         11.6950   45.1840    9.9330 C.2       1 6Q2         0.1996
      8 C20        12.3960   45.4920   16.2920 C.ar      1 6Q2         0.0810
      9 C3         11.9590   46.3190    7.7610 C.3       1 6Q2         0.0422
     10 C13        19.2710   47.2780    9.9560 C.ar      1 6Q2        -0.0588
     11 C14        19.9370   46.7010   11.0260 C.ar      1 6Q2        -0.0596
     12 C15        19.2530   45.9430   11.9590 C.ar      1 6Q2        -0.0588
     13 O24        11.1470   44.3850   10.7150 O.2       1 6Q2        -0.3931
     14 C1         13.9160   45.7540    9.1600 C.ar      1 6Q2         0.0355
     15 C2         13.3320   45.6920    7.7610 C.3       1 6Q2         0.0164
     16 N4         11.1480   45.6460    8.8020 N.am      1 6Q2        -0.2863
     17 N10        15.2080   46.0450    9.3360 N.ar      1 6Q2        -0.3052
     18 C8         14.9370   45.8870   11.7290 C.ar      1 6Q2        -0.0083
     19 C7         13.5910   45.5910   11.5560 C.ar      1 6Q2         0.0910
     20 N17        12.7590   45.3670   12.6180 N.pl3     1 6Q2        -0.2672
     21 C19        12.3100   45.0830   14.9470 C.ar      1 6Q2        -0.0112
     22 O25        11.8070   44.7560   17.3040 O.3       1 6Q2        -0.3242
     23 C26        10.7720   43.7910   17.0960 C.3       1 6Q2         0.0591
     24 C21        13.1200   46.6570   16.5920 C.ar      1 6Q2        -0.0448
     25 C22        13.7120   47.4340   15.5920 C.ar      1 6Q2        -0.0801
     26 C23        13.6070   47.0180   14.2530 C.ar      1 6Q2        -0.0498
     27 H1         17.3184   45.1863   12.5255 H         1 6Q2         0.0644
     28 H2         17.3746   47.5565    8.9394 H         1 6Q2         0.0644
     29 H3         11.4876   46.1852    6.7762 H         1 6Q2         0.0546
     30 H4         12.0390   47.3927    7.9864 H         1 6Q2         0.0546
     31 H5         19.8292   47.8635    9.2345 H         1 6Q2         0.0624
     32 H6         21.0060   46.8455   11.1327 H         1 6Q2         0.0635
     33 H7         19.7752   45.4823   12.7897 H         1 6Q2         0.0624
     34 H8         13.9854   46.2400    7.0663 H         1 6Q2         0.0485
     35 H9         13.2557   44.6421    7.4417 H         1 6Q2         0.0485
     36 H10        10.1651   45.5338    8.6558 H         1 6Q2         0.1840
     37 H11        15.3678   45.9319   12.7227 H         1 6Q2         0.0578
     38 H12        11.9242   44.7930   12.4322 H         1 6Q2         0.2136
     39 H13        11.7680   44.1778   14.6982 H         1 6Q2         0.0453
     40 H14        10.4816   43.3510   18.0614 H         1 6Q2         0.0577
     41 H15        11.1387   42.9983   16.4273 H         1 6Q2         0.0577
     42 H16         9.8997   44.2815   16.6394 H         1 6Q2         0.0577
     43 H17        13.2227   46.9622   17.6271 H         1 6Q2         0.0447
     44 H18        14.2442   48.3438   15.8451 H         1 6Q2         0.0560
     45 H19        14.0594   47.6125   13.4675 H         1 6Q2         0.0444
@<TRIPOS>BOND
     1   20    1 1  
     2    1   21 ar 
     3    1   26 ar 
     4    2    3 1  
     5    2   17 ar 
     6   18    2 ar 
     7    3    4 ar 
     8    3    5 ar 
     9    4   12 ar 
    10    5   10 ar 
    11    6    7 1  
    12    6   14 ar 
    13   19    6 ar 
    14    7   13 2  
    15    7   16 am 
    16   21    8 ar 
    17    8   22 1  
    18    8   24 ar 
    19   15    9 1  
    20   16    9 1  
    21   10   11 ar 
    22   12   11 ar 
    23   14   15 1  
    24   14   17 ar 
    25   19   18 ar 
    26   19   20 1  
    27   22   23 1  
    28   24   25 ar 
    29   25   26 ar 
    30    4   27 1  
    31    5   28 1  
    32    9   29 1  
    33    9   30 1  
    34   10   31 1  
    35   11   32 1  
    36   12   33 1  
    37   15   34 1  
    38   15   35 1  
    39   16   36 1  
    40   18   37 1  
    41   20   38 1  
    42   21   39 1  
    43   23   40 1  
    44   23   41 1  
    45   23   42 1  
    46   24   43 1  
    47   25   44 1  
    48   26   45 1  
@<TRIPOS>SUBSTRUCTURE
     1 6Q2         1

