### 
### Created by X-TOOL on Wed Jan  1 15:39:34 2020
### 

@<TRIPOS>MOLECULE
5k48_ligand
   28    29     1     0     0
SMALL
GAST_HUCK


@<TRIPOS>ATOM
      1 C10       -25.9140    4.5020   60.2700 C.ar      1 S5Z        -0.0608
      2 C13       -28.6060    5.1060   60.4100 C.ar      1 S5Z        -0.0535
      3 C15       -28.0370    9.7650   58.9590 C.ar      1 S5Z        -0.0187
      4 O01       -28.8990   12.5930   59.6600 O.co2     1 S5Z        -0.5630
      5 C02       -29.6910   11.6350   59.7180 C.2       1 S5Z         0.0585
      6 O03       -30.9460   11.7190   59.7330 O.co2     1 S5Z        -0.5630
      7 C04       -29.0920   10.2180   59.7730 C.ar      1 S5Z         0.0122
      8 C05       -29.6440    9.3290   60.6850 C.ar      1 S5Z        -0.0537
      9 C06       -29.1880    8.0210   60.8170 C.ar      1 S5Z        -0.0575
     10 C07       -28.1440    7.5580   60.0270 C.ar      1 S5Z        -0.0223
     11 C08       -27.7020    6.1540   60.1940 C.ar      1 S5Z        -0.0180
     12 C09       -26.3420    5.8180   60.1240 C.ar      1 S5Z        -0.0535
     13 C11       -26.8240    3.4770   60.4880 C.ar      1 S5Z        -0.0614
     14 C12       -28.1750    3.7880   60.5580 C.ar      1 S5Z        -0.0608
     15 C14       -27.5850    8.4440   59.1000 C.ar      1 S5Z        -0.0486
     16 C16       -27.3900   10.6500   57.9490 C.3       1 S5Z         0.0267
     17 S17       -26.8440    9.7630   56.4860 S.3       1 S5Z        -0.1637
     18 H1        -24.8557    4.2744   60.2127 H         1 S5Z         0.0619
     19 H2        -29.6663    5.3248   60.4634 H         1 S5Z         0.0627
     20 H3        -30.4585    9.6654   61.3162 H         1 S5Z         0.0633
     21 H4        -29.6504    7.3596   61.5407 H         1 S5Z         0.0573
     22 H5        -25.6099    6.5989   59.9528 H         1 S5Z         0.0627
     23 H6        -26.4862    2.4532   60.6014 H         1 S5Z         0.0621
     24 H7        -28.9002    3.0007   60.7289 H         1 S5Z         0.0619
     25 H8        -26.7745    8.0981   58.4687 H         1 S5Z         0.0566
     26 H9        -26.5168   11.1317   58.4131 H         1 S5Z         0.0543
     27 H10       -28.1136   11.4197   57.6425 H         1 S5Z         0.0543
     28 H11       -26.4166   10.4101   55.8422 H         1 S5Z         0.1042
@<TRIPOS>BOND
     1   12    1 ar 
     2    1   13 ar 
     3   11    2 ar 
     4    2   14 ar 
     5    3    7 ar 
     6   15    3 ar 
     7    3   16 1  
     8    5    4 ar 
     9    5    6 ar 
    10    7    5 1  
    11    8    7 ar 
    12    9    8 ar 
    13   10    9 ar 
    14   11   10 1  
    15   10   15 ar 
    16   11   12 ar 
    17   13   14 ar 
    18   16   17 1  
    19    1   18 1  
    20    2   19 1  
    21    8   20 1  
    22    9   21 1  
    23   12   22 1  
    24   13   23 1  
    25   14   24 1  
    26   15   25 1  
    27   16   26 1  
    28   16   27 1  
    29   17   28 1  
@<TRIPOS>SUBSTRUCTURE
     1 S5Z         1

