### 
### Created by X-TOOL on Mon Sep 10 21:13:28 2018
### 

@<TRIPOS>MOLECULE
5k4i_ligand
   51    54     1     0     0
SMALL
GAST_HUCK


@<TRIPOS>ATOM
      1 C4         17.6420   -2.2150   17.0700 C.2       1 6QB        -0.0298
      2 C5         18.0750   -3.0200   18.1320 C.2       1 6QB        -0.0257
      3 C8         17.5800   -1.1110   14.1700 C.ar      1 6QB         0.2050
      4 C10        16.8060    0.1510   12.3970 C.ar      1 6QB         0.0066
      5 C15        13.9350   -2.5460   15.2120 C.2       1 6QB        -0.0417
      6 C20        12.8040   -1.2000   13.5390 C.3       1 6QB         0.0656
      7 C21        10.2960   -2.9480   15.6710 C.3       1 6QB         0.1036
      8 C26         8.8090   -4.5030   14.4260 C.ar      1 6QB        -0.0614
      9 C28         9.2940   -6.8380   14.2950 C.ar      1 6QB         0.0659
     10 C1         20.9110   -3.2420   15.9000 C.3       1 6QB         0.0586
     11 N2         19.6480   -2.9730   16.5990 N.pl3     1 6QB        -0.1907
     12 C3         18.6320   -2.2060   16.1320 C.2       1 6QB         0.1807
     13 N6         19.2800   -3.4680   17.8540 N.2       1 6QB        -0.2405
     14 N7         18.6680   -1.5320   14.9150 N.pl3     1 6QB        -0.2157
     15 N9         17.8000   -0.2770   13.1600 N.ar      1 6QB        -0.2602
     16 C11        15.5110   -0.2870   12.6460 C.ar      1 6QB        -0.0253
     17 C12        15.3210   -1.1850   13.7000 C.ar      1 6QB         0.0392
     18 N13        16.3700   -1.5450   14.4420 N.ar      1 6QB        -0.2589
     19 C14        13.9840   -1.6500   14.1300 C.2       1 6QB        -0.0049
     20 C16        12.7280   -2.9510   15.6660 C.3       1 6QB         0.0677
     21 N17        11.5710   -2.5050   15.1020 N.am      1 6QB        -0.2426
     22 C18        11.5700   -1.6550   14.0540 C.2       1 6QB         0.1910
     23 O19        10.5130   -1.2630   13.5620 O.2       1 6QB        -0.3944
     24 C23        10.4620   -2.9440   17.1900 C.3       1 6QB         0.0773
     25 O24         9.1620   -3.0400   17.7720 O.3       1 6QB        -0.3906
     26 C25         9.9420   -4.3270   15.1920 C.ar      1 6QB        -0.0170
     27 C27         8.4800   -5.7680   13.9790 C.ar      1 6QB        -0.0563
     28 C29        10.4250   -6.6640   15.0610 C.ar      1 6QB         0.1401
     29 C30        10.7460   -5.4040   15.5120 C.ar      1 6QB        -0.0240
     30 F31        11.2070   -7.7190   15.3680 F         1 6QB        -0.1844
     31 CL1         8.8850   -8.4200   13.7460 Cl        1 6QB        -0.0785
     32 H1         16.6890   -1.6920   17.0054 H         1 6QB         0.0205
     33 H2         17.5086   -3.2382   19.0362 H         1 6QB         0.0604
     34 H3         17.0014    0.8393   11.5826 H         1 6QB         0.0866
     35 H4         14.8519   -2.9069   15.6756 H         1 6QB         0.0716
     36 H5         12.8403   -1.4935   12.4795 H         1 6QB         0.0617
     37 H6         12.8017   -0.1027   13.6157 H         1 6QB         0.0617
     38 H7          9.4971   -2.2502   15.3798 H         1 6QB         0.0748
     39 H8          8.1813   -3.6552   14.1765 H         1 6QB         0.0524
     40 H9         21.5417   -3.8952   16.5209 H         1 6QB         0.0590
     41 H10        21.4365   -2.2937   15.7143 H         1 6QB         0.0590
     42 H11        20.7009   -3.7387   14.9413 H         1 6QB         0.0590
     43 H12        19.6002   -1.3251   14.5289 H         1 6QB         0.2236
     44 H13        14.6773    0.0558   12.0439 H         1 6QB         0.0628
     45 H14        12.6848   -2.6686   16.7282 H         1 6QB         0.0719
     46 H15        12.7145   -4.0473   15.5772 H         1 6QB         0.0719
     47 H16        10.9474   -2.0105   17.5108 H         1 6QB         0.0603
     48 H17        11.0756   -3.8022   17.5015 H         1 6QB         0.0603
     49 H18         8.6370   -2.2982   17.4956 H         1 6QB         0.2097
     50 H19         7.5873   -5.9201   13.3831 H         1 6QB         0.0596
     51 H20        11.6315   -5.2563   16.1196 H         1 6QB         0.0543
@<TRIPOS>BOND
     1    1    2 1  
     2   12    1 2  
     3   13    2 2  
     4    3   14 1  
     5    3   15 ar 
     6   18    3 ar 
     7    4   15 ar 
     8   16    4 ar 
     9    5   19 2  
    10   20    5 1  
    11   19    6 1  
    12    6   22 1  
    13   21    7 1  
    14    7   24 1  
    15    7   26 1  
    16   26    8 ar 
    17    8   27 ar 
    18   27    9 ar 
    19    9   28 ar 
    20    9   31 1  
    21   11   10 1  
    22   12   11 1  
    23   11   13 1  
    24   14   12 1  
    25   17   16 ar 
    26   17   18 ar 
    27   19   17 1  
    28   20   21 1  
    29   21   22 am 
    30   22   23 2  
    31   24   25 1  
    32   26   29 ar 
    33   28   29 ar 
    34   28   30 1  
    35    1   32 1  
    36    2   33 1  
    37    4   34 1  
    38    5   35 1  
    39    6   36 1  
    40    6   37 1  
    41    7   38 1  
    42    8   39 1  
    43   10   40 1  
    44   10   41 1  
    45   10   42 1  
    46   14   43 1  
    47   16   44 1  
    48   20   45 1  
    49   20   46 1  
    50   24   47 1  
    51   24   48 1  
    52   25   49 1  
    53   27   50 1  
    54   29   51 1  
@<TRIPOS>SUBSTRUCTURE
     1 6QB         1

