### 
### Created by X-TOOL on Mon Sep 10 21:13:27 2018
### 

@<TRIPOS>MOLECULE
5k4j_ligand
   51    54     1     0     0
SMALL
GAST_HUCK


@<TRIPOS>ATOM
      1 C4         -3.6390  -27.7880   44.6210 C.2       1 6QB        -0.0298
      2 C5         -4.4050  -26.6070   44.5850 C.2       1 6QB        -0.0257
      3 C8         -1.9790  -30.1670   43.4330 C.ar      1 6QB         0.2050
      4 C10        -0.6690  -32.1250   43.6200 C.ar      1 6QB         0.0066
      5 C15         0.1640  -27.9770   46.0680 C.2       1 6QB        -0.0417
      6 C20         1.6750  -29.7940   46.5360 C.3       1 6QB         0.0656
      7 C21         2.2980  -26.9600   48.8730 C.3       1 6QB         0.1036
      8 C26         4.6510  -26.6940   49.4820 C.ar      1 6QB        -0.0614
      9 C28         6.2210  -25.3910   48.2750 C.ar      1 6QB         0.0659
     10 C1         -4.8480  -27.7670   41.1860 C.3       1 6QB         0.0586
     11 N2         -4.4930  -27.5810   42.5990 N.pl3     1 6QB        -0.1907
     12 C3         -3.6810  -28.3730   43.3810 C.2       1 6QB         0.1807
     13 N6         -4.9360  -26.4870   43.3880 N.2       1 6QB        -0.2405
     14 N7         -3.0760  -29.5400   42.9340 N.pl3     1 6QB        -0.2157
     15 N9         -1.7270  -31.4180   43.0660 N.ar      1 6QB        -0.2602
     16 C11         0.1860  -31.4550   44.4960 C.ar      1 6QB        -0.0253
     17 C12        -0.1360  -30.1110   44.8200 C.ar      1 6QB         0.0392
     18 N13        -1.2140  -29.5090   44.3130 N.ar      1 6QB        -0.2589
     19 C14         0.6100  -29.3010   45.8220 C.2       1 6QB        -0.0049
     20 C16         0.7590  -27.2100   47.0100 C.3       1 6QB         0.0677
     21 N17         1.7590  -27.7340   47.7470 N.am      1 6QB        -0.2426
     22 C18         2.2440  -28.9710   47.5290 C.2       1 6QB         0.1910
     23 O19         3.1520  -29.4050   48.2330 O.2       1 6QB        -0.3944
     24 C23         1.2090  -26.0040   49.4470 C.3       1 6QB         0.0773
     25 O24         1.5310  -25.7270   50.8350 O.3       1 6QB        -0.3906
     26 C25         3.6490  -26.3570   48.5930 C.ar      1 6QB        -0.0170
     27 C27         5.9320  -26.2140   49.3420 C.ar      1 6QB        -0.0563
     28 C29         5.2150  -25.0390   47.3810 C.ar      1 6QB         0.1401
     29 C30         3.9140  -25.5220   47.5350 C.ar      1 6QB        -0.0240
     30 F31         5.5260  -24.2320   46.3440 F         1 6QB        -0.1844
     31 CL1         7.8440  -24.8020   48.0930 Cl        1 6QB        -0.0785
     32 H1         -3.1032  -28.1724   45.4877 H         1 6QB         0.0205
     33 H2         -4.5358  -25.9093   45.4108 H         1 6QB         0.0604
     34 H3         -0.5110  -33.1699   43.3786 H         1 6QB         0.0866
     35 H4         -0.6672  -27.5734   45.4917 H         1 6QB         0.0716
     36 H5          2.4700  -30.0331   45.8144 H         1 6QB         0.0617
     37 H6          1.3383  -30.7174   47.0300 H         1 6QB         0.0617
     38 H7          2.4850  -27.6913   49.6731 H         1 6QB         0.0748
     39 H8          4.4217  -27.3536   50.3111 H         1 6QB         0.0524
     40 H9         -5.5165  -26.9542   40.8659 H         1 6QB         0.0590
     41 H10        -5.3591  -28.7329   41.0604 H         1 6QB         0.0590
     42 H11        -3.9344  -27.7531   40.5735 H         1 6QB         0.0590
     43 H12        -3.5161  -29.9887   42.1180 H         1 6QB         0.2236
     44 H13         1.0608  -31.9413   44.9123 H         1 6QB         0.0628
     45 H14        -0.0270  -26.8949   47.7120 H         1 6QB         0.0719
     46 H15         1.1668  -26.3272   46.4958 H         1 6QB         0.0719
     47 H16         0.2214  -26.4842   49.3831 H         1 6QB         0.0603
     48 H17         1.1982  -25.0655   48.8733 H         1 6QB         0.0603
     49 H18         1.5417  -26.5408   51.3249 H         1 6QB         0.2097
     50 H19         6.7012  -26.4784   50.0585 H         1 6QB         0.0596
     51 H20         3.1324  -25.2449   46.8369 H         1 6QB         0.0543
@<TRIPOS>BOND
     1    1    2 1  
     2   12    1 2  
     3   13    2 2  
     4    3   14 1  
     5    3   15 ar 
     6   18    3 ar 
     7    4   15 ar 
     8   16    4 ar 
     9    5   19 2  
    10   20    5 1  
    11   19    6 1  
    12    6   22 1  
    13   21    7 1  
    14    7   24 1  
    15    7   26 1  
    16   26    8 ar 
    17    8   27 ar 
    18   27    9 ar 
    19    9   28 ar 
    20    9   31 1  
    21   11   10 1  
    22   12   11 1  
    23   11   13 1  
    24   14   12 1  
    25   17   16 ar 
    26   17   18 ar 
    27   19   17 1  
    28   20   21 1  
    29   21   22 am 
    30   22   23 2  
    31   24   25 1  
    32   26   29 ar 
    33   28   29 ar 
    34   28   30 1  
    35    1   32 1  
    36    2   33 1  
    37    4   34 1  
    38    5   35 1  
    39    6   36 1  
    40    6   37 1  
    41    7   38 1  
    42    8   39 1  
    43   10   40 1  
    44   10   41 1  
    45   10   42 1  
    46   14   43 1  
    47   16   44 1  
    48   20   45 1  
    49   20   46 1  
    50   24   47 1  
    51   24   48 1  
    52   25   49 1  
    53   27   50 1  
    54   29   51 1  
@<TRIPOS>SUBSTRUCTURE
     1 6QB         1

