### 
### Created by X-TOOL on Mon Sep 10 21:13:29 2018
### 

@<TRIPOS>MOLECULE
5k4l_ligand
   28    29     1     0     0
SMALL
GAST_HUCK


@<TRIPOS>ATOM
      1 C4        190.0840    2.5010  -19.0180 C.2       1 6QN         0.1861
      2 C6        189.3920    1.7400  -17.9490 C.2       1 6QN         0.1370
      3 C7        189.0280    2.4170  -16.7870 C.2       1 6QN         0.1404
      4 C8        188.3590    1.7290  -15.7010 C.ar      1 6QN         0.0772
      5 C9        187.9550    2.3620  -14.5280 C.ar      1 6QN        -0.0273
      6 C10       187.3050    1.6140  -13.5610 C.ar      1 6QN         0.0024
      7 C12       187.4530   -0.2820  -14.8100 C.ar      1 6QN         0.0424
      8 C13       188.1010    0.3550  -15.8610 C.ar      1 6QN         0.1217
      9 N3        190.4170    1.8080  -20.1100 N.am      1 6QN        -0.2930
     10 C1        190.3360    2.7260  -22.3780 C.3       1 6QN        -0.0451
     11 C2        191.1940    2.3840  -21.2050 C.3       1 6QN         0.0264
     12 O5        190.3330    3.6990  -18.8860 O.2       1 6QN        -0.4065
     13 N11       187.0460    0.3110  -13.6820 N.ar      1 6QN        -0.3050
     14 N14       188.4850   -0.2720  -17.0430 N.am      1 6QN        -0.2241
     15 C16       189.1050    0.3310  -18.0840 C.2       1 6QN         0.2110
     16 O17       189.3880   -0.3290  -19.0820 O.2       1 6QN        -0.4110
     17 O18       189.2700    3.7130  -16.5830 O.3       1 6QN        -0.3114
     18 H1        188.1455    3.4182  -14.3753 H         1 6QN         0.0728
     19 H2        186.9885    2.1159  -12.6538 H         1 6QN         0.0708
     20 H3        187.2620   -1.3441  -14.9121 H         1 6QN         0.0747
     21 H4        190.1222    0.8551  -20.1811 H         1 6QN         0.1827
     22 H5        190.9599    3.1551  -23.1759 H         1 6QN         0.0249
     23 H6        189.5743    3.4591  -22.0739 H         1 6QN         0.0249
     24 H7        189.8417    1.8159  -22.7485 H         1 6QN         0.0249
     25 H8        191.9554    1.6561  -21.5218 H         1 6QN         0.0514
     26 H9        191.6881    3.2993  -20.8472 H         1 6QN         0.0514
     27 H10       188.2864   -1.2482  -17.1301 H         1 6QN         0.2388
     28 H11       189.7080    4.0758  -17.3439 H         1 6QN         0.2614
@<TRIPOS>BOND
     1    1    2 1  
     2    1    9 am 
     3    1   12 2  
     4    2    3 2  
     5    2   15 1  
     6    3    4 1  
     7    3   17 1  
     8    4    5 ar 
     9    4    8 ar 
    10    5    6 ar 
    11    6   13 ar 
    12    8    7 ar 
    13    7   13 ar 
    14    8   14 1  
    15    9   11 1  
    16   11   10 1  
    17   14   15 am 
    18   15   16 2  
    19    5   18 1  
    20    6   19 1  
    21    7   20 1  
    22    9   21 1  
    23   10   22 1  
    24   10   23 1  
    25   10   24 1  
    26   11   25 1  
    27   11   26 1  
    28   14   27 1  
    29   17   28 1  
@<TRIPOS>SUBSTRUCTURE
     1 6QN         1

