### 
### Created by X-TOOL on Mon Sep 10 21:13:28 2018
### 

@<TRIPOS>MOLECULE
5k4x_ligand
   33    35     1     0     0
SMALL
GAST_HUCK


@<TRIPOS>ATOM
      1 C13       128.4020   70.1340   -6.6280 C.ar      1 6Q9        -0.0300
      2 C15       126.1110   70.7610   -6.1150 C.ar      1 6Q9        -0.0629
      3 C17       127.5730   68.9400   -4.9090 C.2       1 6Q9         0.0998
      4 O01       129.4740   72.5300  -10.2330 O.2       1 6Q9        -0.1515
      5 S02       128.6130   73.4950   -9.6280 S.o2      1 6Q9         0.0715
      6 C03       129.4620   74.3930   -8.3340 C.2       1 6Q9         0.1251
      7 C04       128.8940   75.3800   -7.5570 C.2       1 6Q9         0.0169
      8 C05       127.4620   75.9000   -7.6420 C.3       1 6Q9        -0.0294
      9 N06       129.8340   75.8040   -6.7070 N.2       1 6Q9        -0.2434
     10 N07       131.0040   75.1300   -6.9040 N.pl3     1 6Q9        -0.2278
     11 C08       130.7990   74.2400   -7.9080 C.2       1 6Q9         0.0834
     12 C09       131.8510   73.2760   -8.4430 C.3       1 6Q9        -0.0017
     13 N10       127.2570   72.8290   -8.9820 N.am      1 6Q9        -0.1926
     14 C11       127.2940   71.8560   -7.9230 C.ar      1 6Q9         0.0620
     15 C12       128.4280   71.0930   -7.6780 C.ar      1 6Q9        -0.0426
     16 C14       127.2510   69.9760   -5.8650 C.ar      1 6Q9         0.0152
     17 C16       126.1330   71.6960   -7.1430 C.ar      1 6Q9        -0.0445
     18 N18       128.8350   68.5380   -5.1300 N.pl3     1 6Q9        -0.2468
     19 N19       129.3270   69.2450   -6.1500 N.2       1 6Q9        -0.3388
     20 O20       128.2800   74.3510  -10.7270 O.2       1 6Q9        -0.1515
     21 H1        125.2205   70.6374   -5.5094 H         1 6Q9         0.0583
     22 H2        126.9058   68.5520   -4.1408 H         1 6Q9         0.1343
     23 H3        127.3127   76.6879   -6.8890 H         1 6Q9         0.0374
     24 H4        126.7602   75.0744   -7.4528 H         1 6Q9         0.0374
     25 H5        127.2807   76.3127   -8.6454 H         1 6Q9         0.0374
     26 H6        131.8826   75.2710   -6.3853 H         1 6Q9         0.2484
     27 H7        131.4164   72.6716   -9.2529 H         1 6Q9         0.0437
     28 H8        132.1880   72.6139   -7.6318 H         1 6Q9         0.0437
     29 H9        132.7079   73.8465   -8.8306 H         1 6Q9         0.0437
     30 H10       126.3675   73.1123   -9.3405 H         1 6Q9         0.2156
     31 H11       129.3205   71.2264   -8.2786 H         1 6Q9         0.0482
     32 H12       125.2568   72.3017   -7.3441 H         1 6Q9         0.0482
     33 H13       129.3372   67.8093   -4.6030 H         1 6Q9         0.2933
@<TRIPOS>BOND
     1   15    1 ar 
     2    1   16 ar 
     3    1   19 2  
     4   16    2 ar 
     5    2   17 ar 
     6   16    3 2  
     7    3   18 1  
     8    5    4 2  
     9    5    6 1  
    10   13    5 am 
    11    5   20 2  
    12    6    7 1  
    13    6   11 2  
    14    7    8 1  
    15    7    9 2  
    16   10    9 1  
    17   11   10 1  
    18   11   12 1  
    19   14   13 1  
    20   14   15 ar 
    21   14   17 ar 
    22   18   19 1  
    23    2   21 1  
    24    3   22 1  
    25    8   23 1  
    26    8   24 1  
    27    8   25 1  
    28   10   26 1  
    29   12   27 1  
    30   12   28 1  
    31   12   29 1  
    32   13   30 1  
    33   15   31 1  
    34   17   32 1  
    35   18   33 1  
@<TRIPOS>SUBSTRUCTURE
     1 6Q9         1

