### 
### Created by X-TOOL on Mon Sep 10 21:13:28 2018
### 

@<TRIPOS>MOLECULE
5k4z_ligand
   48    51     1     0     0
SMALL
GAST_HUCK


@<TRIPOS>ATOM
      1 C13        37.7170   71.0180   -5.4090 C.ar      1 6Q8        -0.0629
      2 C15        39.0820   69.1260   -4.2290 C.2       1 6Q8         0.0998
      3 C20        39.2750   75.9630   -6.6810 C.3       1 6Q8        -0.0449
      4 C21        41.7470   76.8250   -4.7170 C.2       1 6Q8         0.2251
      5 C24        42.9380   78.0100   -2.9740 C.ar      1 6Q8         0.0611
      6 C26        43.2830   80.0950   -1.8570 C.ar      1 6Q8        -0.0417
      7 C28        42.4420   78.2010   -0.6350 C.ar      1 6Q8        -0.0417
      8 C01        43.6110   73.4930   -7.9480 C.3       1 6Q8        -0.0067
      9 C02        42.6010   74.3960   -7.2670 C.2       1 6Q8         0.0625
     10 N03        42.8830   75.1940   -6.2290 N.pl3     1 6Q8        -0.2814
     11 C04        41.7780   75.8720   -5.8780 C.2       1 6Q8         0.1174
     12 C05        40.7200   75.4860   -6.6950 C.2       1 6Q8        -0.0295
     13 C06        41.2540   74.5640   -7.5820 C.2       1 6Q8         0.1046
     14 S07        40.3260   73.7530   -8.8580 S.o2      1 6Q8         0.0691
     15 O08        41.1270   72.7500   -9.5110 O.2       1 6Q8        -0.1514
     16 O09        40.0040   74.6700   -9.9240 O.2       1 6Q8        -0.1514
     17 N10        38.9520   73.1210   -8.2120 N.am      1 6Q8        -0.1925
     18 C11        38.9440   72.1230   -7.1890 C.ar      1 6Q8         0.0620
     19 C12        37.7850   71.9740   -6.4190 C.ar      1 6Q8        -0.0445
     20 C14        38.8340   70.1800   -5.1620 C.ar      1 6Q8         0.0152
     21 N16        40.3350   68.6760   -4.4390 N.pl3     1 6Q8        -0.2468
     22 N17        40.8920   69.3910   -5.4530 N.2       1 6Q8        -0.3388
     23 C18        39.9800   70.3220   -5.9110 C.ar      1 6Q8        -0.0300
     24 C19        40.0490   71.3090   -6.9450 C.ar      1 6Q8        -0.0426
     25 O22        40.6930   77.2480   -4.2890 O.2       1 6Q8        -0.3931
     26 N23        42.9690   77.1730   -4.1050 N.am      1 6Q8        -0.2402
     27 C25        43.3390   79.3370   -3.0180 C.ar      1 6Q8        -0.0428
     28 C27        42.8370   79.5310   -0.6680 C.ar      1 6Q8         0.1158
     29 C29        42.4920   77.4390   -1.7870 C.ar      1 6Q8        -0.0428
     30 F          42.7860   80.2680    0.4560 F         1 6Q8        -0.1963
     31 H1         36.8159   70.9150   -4.8153 H         1 6Q8         0.0583
     32 H2         38.3832   68.7530   -3.4817 H         1 6Q8         0.1343
     33 H3         39.1378   76.6932   -5.8698 H         1 6Q8         0.0342
     34 H4         38.6070   75.1044   -6.5183 H         1 6Q8         0.0342
     35 H5         39.0357   76.4363   -7.6447 H         1 6Q8         0.0342
     36 H6         43.5894   81.1346   -1.8778 H         1 6Q8         0.0566
     37 H7         42.0949   77.7606    0.2927 H         1 6Q8         0.0566
     38 H8         43.1209   72.9475   -8.7679 H         1 6Q8         0.0423
     39 H9         44.0116   72.7746   -7.2177 H         1 6Q8         0.0423
     40 H10        44.4331   74.1018   -8.3525 H         1 6Q8         0.0423
     41 H11        43.8025   75.2750   -5.7719 H         1 6Q8         0.2280
     42 H12        38.0731   73.4535   -8.5541 H         1 6Q8         0.2156
     43 H13        36.9292   72.6110   -6.6113 H         1 6Q8         0.0482
     44 H14        40.7948   67.9160   -3.9176 H         1 6Q8         0.2933
     45 H15        40.9524   71.4226   -7.5332 H         1 6Q8         0.0482
     46 H16        43.8373   76.8330   -4.4662 H         1 6Q8         0.2225
     47 H17        43.6907   79.7752   -3.9450 H         1 6Q8         0.0493
     48 H18        42.1846   76.3997   -1.7653 H         1 6Q8         0.0493
@<TRIPOS>BOND
     1   19    1 ar 
     2    1   20 ar 
     3   20    2 2  
     4    2   21 1  
     5   12    3 1  
     6   11    4 1  
     7    4   25 2  
     8    4   26 am 
     9   26    5 1  
    10    5   27 ar 
    11    5   29 ar 
    12   27    6 ar 
    13    6   28 ar 
    14    7   28 ar 
    15   29    7 ar 
    16    9    8 1  
    17    9   10 1  
    18   13    9 2  
    19   11   10 1  
    20   12   11 2  
    21   13   12 1  
    22   14   13 1  
    23   14   15 2  
    24   14   16 2  
    25   17   14 am 
    26   18   17 1  
    27   18   19 ar 
    28   18   24 ar 
    29   20   23 ar 
    30   21   22 1  
    31   22   23 2  
    32   23   24 ar 
    33   28   30 1  
    34    1   31 1  
    35    2   32 1  
    36    3   33 1  
    37    3   34 1  
    38    3   35 1  
    39    6   36 1  
    40    7   37 1  
    41    8   38 1  
    42    8   39 1  
    43    8   40 1  
    44   10   41 1  
    45   17   42 1  
    46   19   43 1  
    47   21   44 1  
    48   24   45 1  
    49   26   46 1  
    50   27   47 1  
    51   29   48 1  
@<TRIPOS>SUBSTRUCTURE
     1 6Q8         1

