### 
### Created by X-TOOL on Fri Nov  2 10:55:53 2018
### 

@<TRIPOS>MOLECULE
5k5c_ligand
   30    30     1     0     0
SMALL
GAST_HUCK


@<TRIPOS>ATOM
      1 C3'       173.8820   98.4450   39.1580 C.3       1 NHE        -0.0480
      2 C2'       173.6850   99.9280   39.3130 C.3       1 NHE        -0.0097
      3 C1'       172.4740  100.3060   40.1650 C.3       1 NHE        -0.0226
      4 C6'       171.2440   99.4710   39.9120 C.3       1 NHE        -0.0097
      5 N         172.1430  101.7140   39.9800 N.4       1 NHE         0.2302
      6 C1        173.1480  102.4650   40.6760 C.3       1 NHE        -0.0166
      7 C2        172.6560  103.8940   41.0080 C.3       1 NHE         0.0706
      8 S         171.3540  103.8730   42.2720 S.o2      1 NHE        -0.1866
      9 O1        170.2250  104.7640   41.7760 O.co2     1 NHE        -0.4844
     10 O2        170.6440  102.5440   42.4080 O.co2     1 NHE        -0.4844
     11 O3        171.8750  104.3730   43.6040 O.co2     1 NHE        -0.4844
     12 C5'       171.5210   97.9810   39.8580 C.3       1 NHE        -0.0480
     13 C4'       172.9640   97.6300   40.0500 C.3       1 NHE        -0.0527
     14 H1        174.9243   98.2012   39.4112 H         1 NHE         0.0267
     15 H2        173.6858   98.1726   38.1105 H         1 NHE         0.0267
     16 H3        173.5551  100.3666   38.3126 H         1 NHE         0.0320
     17 H4        174.5851  100.3496   39.7842 H         1 NHE         0.0320
     18 H5        172.7600  100.1568   41.2166 H         1 NHE         0.0850
     19 H6        170.8070   99.7783   38.9504 H         1 NHE         0.0320
     20 H7        170.5225   99.6613   40.7202 H         1 NHE         0.0320
     21 H8        171.2325  101.9109   40.3650 H         1 NHE         0.2017
     22 H9        172.1509  101.9474   38.9994 H         1 NHE         0.2017
     23 H10       174.0456  102.5334   40.0439 H         1 NHE         0.0829
     24 H11       173.3980  101.9459   41.6130 H         1 NHE         0.0829
     25 H12       172.2580  104.3565   40.0928 H         1 NHE         0.0521
     26 H13       173.5049  104.4869   41.3793 H         1 NHE         0.0521
     27 H14       171.1993   97.6032   38.8763 H         1 NHE         0.0267
     28 H15       170.9359   97.4900   40.6495 H         1 NHE         0.0267
     29 H16       173.2358   97.8152   41.0997 H         1 NHE         0.0265
     30 H17       173.1018   96.5636   39.8182 H         1 NHE         0.0265
@<TRIPOS>BOND
     1    1    2 1  
     2    1   13 1  
     3    2    3 1  
     4    3    4 1  
     5    3    5 1  
     6    4   12 1  
     7    5    6 1  
     8    6    7 1  
     9    7    8 1  
    10    8    9 ar 
    11    8   10 ar 
    12    8   11 ar 
    13   12   13 1  
    14    1   14 1  
    15    1   15 1  
    16    2   16 1  
    17    2   17 1  
    18    3   18 1  
    19    4   19 1  
    20    4   20 1  
    21    5   21 1  
    22    5   22 1  
    23    6   23 1  
    24    6   24 1  
    25    7   25 1  
    26    7   26 1  
    27   12   27 1  
    28   12   28 1  
    29   13   29 1  
    30   13   30 1  
@<TRIPOS>SUBSTRUCTURE
     1 NHE         1

