### 
### Created by X-TOOL on Mon Sep 10 21:13:27 2018
### 

@<TRIPOS>MOLECULE
5k5e_ligand
   68    73     1     0     0
SMALL
GAST_HUCK


@<TRIPOS>ATOM
      1 O01         0.8880    7.8130   11.4680 O.2       1 6QS        -0.4146
      2 C02         0.8830    7.1910   12.4910 C.2       1 6QS         0.0898
      3 C03        -0.3610    6.6890   13.1110 C.3       1 6QS         0.0138
      4 C04        -0.1850    5.1960   13.1610 C.3       1 6QS        -0.0238
      5 C05         0.9320    4.8110   14.1090 C.3       1 6QS         0.0137
      6 C06         2.1780    5.6100   13.9010 C.2       1 6QS         0.0635
      7 C07         2.1530    6.8230   13.0960 C.2       1 6QS         0.0178
      8 C08         3.3030    7.6610   12.8560 C.3       1 6QS         0.0204
      9 C09         4.4840    7.0980   13.4940 C.2       1 6QS         0.0461
     10 C10         5.7680    7.8160   13.3370 C.2       1 6QS         0.2186
     11 O11         5.8000    9.1600   12.8920 O.3       1 6QS        -0.2852
     12 C12         6.7790   10.0050   13.4300 C.3       1 6QS         0.1000
     13 C13         6.2270   11.3750   13.1930 C.3       1 6QS         0.0861
     14 O14         6.9910   11.9410   12.1630 O.3       1 6QS        -0.3740
     15 C15         7.5170   13.1970   12.5600 C.3       1 6QS         0.0482
     16 C16         7.1330   13.4480   14.0030 C.3       1 6QS        -0.0270
     17 C17         6.4120   12.2030   14.4380 C.3       1 6QS        -0.0220
     18 O18         6.8210    7.3050   13.5570 O.2       1 6QS        -0.3921
     19 C19         4.4160    5.8680   14.2900 C.2       1 6QS         0.0623
     20 C20         5.6340    5.3280   14.9550 C.3       1 6QS        -0.0002
     21 N21         3.2930    5.2060   14.4500 N.pl3     1 6QS        -0.2576
     22 C22         3.0390    8.9400   13.5370 C.ar      1 6QS        -0.0509
     23 C23         3.2640   10.0980   12.8220 C.ar      1 6QS        -0.0699
     24 C24         3.0730   11.3640   13.3380 C.ar      1 6QS        -0.0457
     25 C25         2.5950    9.0110   14.8500 C.ar      1 6QS        -0.0668
     26 C26         2.4000   10.2710   15.3750 C.ar      1 6QS        -0.0105
     27 C27         2.6300   11.4880   14.6240 C.ar      1 6QS         0.0616
     28 N28         2.3530   12.5390   15.4050 N.pl3     1 6QS        -0.2635
     29 C29         2.4950   13.8840   14.8940 C.3       1 6QS         0.0438
     30 C30         2.3830   14.9150   15.9740 C.3       1 6QS        -0.0403
     31 C31         1.9520   12.1770   16.6320 C.ar      1 6QS         0.0669
     32 C32         1.9600   10.7270   16.6720 C.ar      1 6QS        -0.0051
     33 C33         1.5960   10.0230   17.7870 C.ar      1 6QS        -0.0680
     34 C34         1.2140   10.7490   18.8970 C.ar      1 6QS        -0.0748
     35 C35         1.2010   12.1240   18.8810 C.ar      1 6QS        -0.0730
     36 C36         1.5660   12.8460   17.7620 C.ar      1 6QS        -0.0401
     37 H1         -1.2351    6.9565   12.4992 H         1 6QS         0.0470
     38 H2         -0.4830    7.0996   14.1242 H         1 6QS         0.0470
     39 H3          0.0567    4.8286   12.1528 H         1 6QS         0.0317
     40 H4         -1.1228    4.7348   13.5044 H         1 6QS         0.0317
     41 H5          1.1687    3.7475   13.9579 H         1 6QS         0.0503
     42 H6          0.5846    4.9663   15.1411 H         1 6QS         0.0503
     43 H7          3.4678    7.8004   11.7774 H         1 6QS         0.0507
     44 H8          7.7401    9.8733   12.9114 H         1 6QS         0.0635
     45 H9          6.9136    9.8161   14.5052 H         1 6QS         0.0635
     46 H10         5.1636   11.3277   12.9157 H         1 6QS         0.0622
     47 H11         7.1010   13.9911   11.9225 H         1 6QS         0.0560
     48 H12         8.6128   13.1866   12.4647 H         1 6QS         0.0560
     49 H13         6.4721   14.3239   14.0801 H         1 6QS         0.0288
     50 H14         8.0299   13.6100   14.6188 H         1 6QS         0.0288
     51 H15         7.0118   11.6525   15.1777 H         1 6QS         0.0292
     52 H16         5.4358   12.4595   14.8752 H         1 6QS         0.0292
     53 H17         5.3770    4.4071   15.4989 H         1 6QS         0.0464
     54 H18         6.0270    6.0736   15.6618 H         1 6QS         0.0464
     55 H19         6.3977    5.1043   14.1956 H         1 6QS         0.0464
     56 H20         3.2911    4.3489   15.0212 H         1 6QS         0.2221
     57 H21         3.6099   10.0089   11.7985 H         1 6QS         0.0516
     58 H22         3.2707   12.2425   12.7344 H         1 6QS         0.0526
     59 H23         2.4101    8.1176   15.4355 H         1 6QS         0.0499
     60 H24         1.7064   14.0648   14.1488 H         1 6QS         0.0574
     61 H25         3.4807   13.9786   14.4151 H         1 6QS         0.0574
     62 H26         2.4973   15.9179   15.5368 H         1 6QS         0.0254
     63 H27         3.1719   14.7492   16.7224 H         1 6QS         0.0254
     64 H28         1.3975   14.8354   16.4562 H         1 6QS         0.0254
     65 H29         1.6071    8.9391   17.7983 H         1 6QS         0.0577
     66 H30         0.9185   10.2251   19.7988 H         1 6QS         0.0516
     67 H31         0.8950   12.6572   19.7738 H         1 6QS         0.0570
     68 H32         1.5471   13.9297   17.7783 H         1 6QS         0.0539
@<TRIPOS>BOND
     1    1    2 2  
     2    2    3 1  
     3    2    7 1  
     4    3    4 1  
     5    4    5 1  
     6    5    6 1  
     7    6    7 2  
     8    6   21 1  
     9    7    8 1  
    10    8    9 1  
    11    8   22 1  
    12    9   10 1  
    13    9   19 2  
    14   10   11 1  
    15   10   18 2  
    16   11   12 1  
    17   12   13 1  
    18   13   14 1  
    19   13   17 1  
    20   14   15 1  
    21   15   16 1  
    22   16   17 1  
    23   19   20 1  
    24   19   21 1  
    25   22   23 ar 
    26   22   25 ar 
    27   23   24 ar 
    28   24   27 ar 
    29   25   26 ar 
    30   26   27 ar 
    31   26   32 1  
    32   27   28 1  
    33   28   29 1  
    34   28   31 1  
    35   29   30 1  
    36   31   32 ar 
    37   31   36 ar 
    38   32   33 ar 
    39   33   34 ar 
    40   34   35 ar 
    41   35   36 ar 
    42    3   37 1  
    43    3   38 1  
    44    4   39 1  
    45    4   40 1  
    46    5   41 1  
    47    5   42 1  
    48    8   43 1  
    49   12   44 1  
    50   12   45 1  
    51   13   46 1  
    52   15   47 1  
    53   15   48 1  
    54   16   49 1  
    55   16   50 1  
    56   17   51 1  
    57   17   52 1  
    58   20   53 1  
    59   20   54 1  
    60   20   55 1  
    61   21   56 1  
    62   23   57 1  
    63   24   58 1  
    64   25   59 1  
    65   29   60 1  
    66   29   61 1  
    67   30   62 1  
    68   30   63 1  
    69   30   64 1  
    70   33   65 1  
    71   34   66 1  
    72   35   67 1  
    73   36   68 1  
@<TRIPOS>SUBSTRUCTURE
     1 6QS         1

