### 
### Created by X-TOOL on Mon Sep 10 21:13:29 2018
### 

@<TRIPOS>MOLECULE
5k5n_ligand
   41    43     1     0     0
SMALL
GAST_HUCK


@<TRIPOS>ATOM
      1 C4          0.5760    5.2470   23.8610 C.ar      1 6QH         0.1077
      2 C6         -0.7030    4.0190   25.5070 C.ar      1 6QH        -0.0434
      3 C20         0.0920   10.8590   31.2730 C.3       1 6QH         0.0777
      4 C8         -2.6600    4.0510   29.0800 C.2       1 6QH         0.1668
      5 C18        -1.6960    9.2490   30.3800 C.3       1 6QH         0.0324
      6 O17        -1.3040    8.1460   27.8250 O.2       1 6QH        -0.3974
      7 C19        -0.2580    9.4440   30.8330 C.3       1 6QH        -0.0028
      8 C2         -0.3510    6.3800   25.7740 C.ar      1 6QH        -0.0573
      9 C3          0.3760    6.4150   24.5940 C.ar      1 6QH        -0.0297
     10 C23        -1.4960   13.4510   29.5770 C.2       1 6QH         0.0618
     11 C25         0.1550   12.2630   29.1670 C.2       1 6QH         0.1277
     12 C1         -0.8940    5.1850   26.2440 C.ar      1 6QH         0.0133
     13 C5          0.0310    4.0540   24.3380 C.ar      1 6QH         0.0705
     14 C11        -1.6230    5.1300   27.5180 C.2       1 6QH         0.1610
     15 C10        -1.9420    5.9720   28.5380 C.2       1 6QH         0.1146
     16 C15        -1.6700    7.4190   28.7490 C.2       1 6QH         0.1955
     17 C14         1.8870    6.3740   22.1990 C.3       1 6QH         0.0604
     18 N24        -0.5420   13.2470   28.6430 N.2       1 6QH        -0.2870
     19 N22        -1.4350   12.6590   30.6250 N.2       1 6QH        -0.1902
     20 N9         -2.5910    5.2530   29.5300 N.2       1 6QH        -0.2883
     21 N21        -0.3520   11.8930   30.3390 N.pl3     1 6QH        -0.1781
     22 N16        -1.9510    7.8730   29.9730 N.am      1 6QH        -0.2898
     23 O7         -2.0940    3.8940   27.8560 O.3       1 6QH        -0.2214
     24 O13         1.2860    5.1760   22.6920 O.3       1 6QH        -0.3186
     25 CL1         0.3330    2.5670   23.4910 Cl        1 6QH        -0.0780
     26 H1         -1.1305    3.0841   25.8510 H         1 6QH         0.0611
     27 H2          1.1849   10.9302   31.3757 H         1 6QH         0.0643
     28 H3         -0.3809   11.0462   32.2483 H         1 6QH         0.0643
     29 H4         -3.1284    3.2353   29.6289 H         1 6QH         0.1409
     30 H5         -1.8948    9.9154   29.5278 H         1 6QH         0.0519
     31 H6         -2.3695    9.5055   31.2110 H         1 6QH         0.0519
     32 H7         -0.0725    8.7675   31.6803 H         1 6QH         0.0313
     33 H8          0.4029    9.1735   29.9963 H         1 6QH         0.0313
     34 H9         -0.4991    7.2935   26.3384 H         1 6QH         0.0607
     35 H10         0.7896    7.3528   24.2410 H         1 6QH         0.0551
     36 H11        -2.2620   14.2176   29.4698 H         1 6QH         0.0863
     37 H12         1.0306   11.8114   28.7030 H         1 6QH         0.1361
     38 H13         2.4182    6.1582   21.2602 H         1 6QH         0.0580
     39 H14         2.5994    6.7599   22.9430 H         1 6QH         0.0580
     40 H15         1.1064    7.1266   22.0139 H         1 6QH         0.0580
     41 H16        -2.3529    7.2430   30.6376 H         1 6QH         0.1834
@<TRIPOS>BOND
     1    9    1 ar 
     2   13    1 ar 
     3    1   24 1  
     4   12    2 ar 
     5    2   13 ar 
     6    7    3 1  
     7    3   21 1  
     8   20    4 2  
     9    4   23 1  
    10    5    7 1  
    11   22    5 1  
    12   16    6 2  
    13    8    9 ar 
    14   12    8 ar 
    15   18   10 1  
    16   10   19 2  
    17   11   18 2  
    18   21   11 1  
    19   14   12 1  
    20   13   25 1  
    21   15   14 2  
    22   14   23 1  
    23   16   15 1  
    24   15   20 1  
    25   16   22 am 
    26   24   17 1  
    27   19   21 1  
    28    2   26 1  
    29    3   27 1  
    30    3   28 1  
    31    4   29 1  
    32    5   30 1  
    33    5   31 1  
    34    7   32 1  
    35    7   33 1  
    36    8   34 1  
    37    9   35 1  
    38   10   36 1  
    39   11   37 1  
    40   17   38 1  
    41   17   39 1  
    42   17   40 1  
    43   22   41 1  
@<TRIPOS>SUBSTRUCTURE
     1 6QH         1

