### 
### Created by X-TOOL on Mon Sep 10 21:13:29 2018
### 

@<TRIPOS>MOLECULE
5k5s_ligand
   27    28     1     0     0
SMALL
GAST_HUCK


@<TRIPOS>ATOM
      1 N         178.8130   45.0410  167.4480 N.4       1 TRP         0.2336
      2 CA        178.0850   45.5470  168.6530 C.3       1 TRP         0.0324
      3 C         176.9640   44.6140  169.1630 C.2       1 TRP         0.0858
      4 O         176.5270   44.7300  170.3230 O.co2     1 TRP        -0.5642
      5 CB        177.5350   46.9750  168.4350 C.3       1 TRP         0.0190
      6 CG        178.3930   47.8240  167.5270 C.2       1 TRP        -0.0392
      7 CD1       179.3210   47.3880  166.6260 C.2       1 TRP         0.0167
      8 CD2       178.3760   49.2510  167.4230 C.ar      1 TRP        -0.0213
      9 NE1       179.8820   48.4540  165.9700 N.pl3     1 TRP        -0.2890
     10 CE2       179.3120   49.6140  166.4310 C.ar      1 TRP         0.0603
     11 CE3       177.6710   50.2690  168.0830 C.ar      1 TRP        -0.0747
     12 CZ2       179.5510   50.9470  166.0700 C.ar      1 TRP        -0.0443
     13 CZ3       177.9070   51.5910  167.7230 C.ar      1 TRP        -0.0792
     14 CH2       178.8490   51.9190  166.7420 C.ar      1 TRP        -0.0768
     15 OXT       176.5080   43.7650  168.3990 O.co2     1 TRP        -0.5642
     16 H1        179.5235   45.7045  167.1815 H         1 TRP         0.2011
     17 H2        178.1622   44.9221  166.6875 H         1 TRP         0.2011
     18 H3        179.2440   44.1555  167.6630 H         1 TRP         0.2011
     19 H4        178.8311   45.6087  169.4589 H         1 TRP         0.1040
     20 H5        177.4655   47.4735  169.4131 H         1 TRP         0.0423
     21 H6        176.5316   46.8967  167.9912 H         1 TRP         0.0423
     22 H7        179.5788   46.3442  166.4529 H         1 TRP         0.0795
     23 H8        180.6136   48.3935  165.2475 H         1 TRP         0.2216
     24 H9        176.9546   50.0288  168.8603 H         1 TRP         0.0540
     25 H10       180.2613   51.2013  165.2917 H         1 TRP         0.0541
     26 H11       177.3506   52.3826  168.2117 H         1 TRP         0.0510
     27 H12       179.0290   52.9618  166.5069 H         1 TRP         0.0530
@<TRIPOS>BOND
     1    1    2 1  
     2    2    3 1  
     3    2    5 1  
     4    3    4 ar 
     5    3   15 ar 
     6    5    6 1  
     7    6    7 2  
     8    6    8 1  
     9    7    9 1  
    10    8   10 ar 
    11    8   11 ar 
    12    9   10 1  
    13   10   12 ar 
    14   11   13 ar 
    15   12   14 ar 
    16   13   14 ar 
    17    1   16 1  
    18    1   17 1  
    19    1   18 1  
    20    2   19 1  
    21    5   20 1  
    22    5   21 1  
    23    7   22 1  
    24    9   23 1  
    25   11   24 1  
    26   12   25 1  
    27   13   26 1  
    28   14   27 1  
@<TRIPOS>SUBSTRUCTURE
     1 TRP         1

