### 
### Created by X-TOOL on Mon Sep 10 21:13:32 2018
### 

@<TRIPOS>MOLECULE
5k6a_ligand
   31    33     1     0     0
SMALL
GAST_HUCK


@<TRIPOS>ATOM
      1 CAI       -30.2760  -16.3020   13.6130 C.3       1 6QT         0.0606
      2 CAH       -28.9760  -15.6800   13.5250 C.2       1 6QT         0.1296
      3 OAS       -28.0580  -16.2850   12.9210 O.2       1 6QT        -0.3849
      4 CAE       -28.7450  -14.3620   14.0360 C.ar      1 6QT         0.0534
      5 CAD       -27.4980  -13.6770   13.8610 C.ar      1 6QT        -0.0229
      6 CAC       -27.3320  -12.3880   14.4260 C.ar      1 6QT         0.0820
      7 OAQ       -26.1900  -11.6620   14.3060 O.3       1 6QT        -0.3392
      8 CAB       -28.3700  -11.7770   15.1330 C.ar      1 6QT        -0.0366
      9 CAA       -29.6020  -12.4130   15.2990 C.ar      1 6QT        -0.0341
     10 CAF       -29.7820  -13.6960   14.7770 C.ar      1 6QT         0.1040
     11 OAG       -31.0020  -14.3110   14.9630 O.3       1 6QT        -0.3015
     12 CAJ       -31.0640  -15.7780   14.8700 C.3       1 6QT         0.1268
     13 CAM       -32.4060  -16.2430   15.0180 C.ar      1 6QT        -0.0166
     14 CAN       -33.5120  -15.3470   15.0380 C.ar      1 6QT        -0.0295
     15 CAO       -34.8280  -15.8490   15.2250 C.ar      1 6QT         0.0810
     16 OAR       -35.9250  -15.0120   15.2460 O.3       1 6QT        -0.3349
     17 CAP       -35.0330  -17.2340   15.3850 C.ar      1 6QT        -0.0403
     18 CAK       -33.9500  -18.1240   15.3680 C.ar      1 6QT        -0.0771
     19 CAL       -32.6590  -17.6190   15.1890 C.ar      1 6QT        -0.0684
     20 H1        -30.1493  -17.3915   13.6956 H         1 6QT         0.0535
     21 H2        -30.8500  -16.0674   12.7044 H         1 6QT         0.0535
     22 H3        -26.6917  -14.1394   13.3032 H         1 6QT         0.0565
     23 H4        -26.2943  -10.8328   14.7577 H         1 6QT         0.2444
     24 H5        -28.2167  -10.7925   15.5600 H         1 6QT         0.0558
     25 H6        -30.4088  -11.9171   15.8265 H         1 6QT         0.0531
     26 H7        -30.5195  -16.1701   15.7416 H         1 6QT         0.0838
     27 H8        -33.3503  -14.2827   14.9107 H         1 6QT         0.0479
     28 H9        -35.9854  -14.5501   14.4181 H         1 6QT         0.2479
     29 H10       -36.0384  -17.6151   15.5226 H         1 6QT         0.0485
     30 H11       -34.1115  -19.1887   15.4919 H         1 6QT         0.0572
     31 H12       -31.8234  -18.3095   15.1814 H         1 6QT         0.0465
@<TRIPOS>BOND
     1    1    2 1  
     2    1   12 1  
     3    2    3 2  
     4    2    4 1  
     5    4    5 ar 
     6    4   10 ar 
     7    5    6 ar 
     8    6    7 1  
     9    6    8 ar 
    10    8    9 ar 
    11    9   10 ar 
    12   10   11 1  
    13   11   12 1  
    14   12   13 1  
    15   13   14 ar 
    16   13   19 ar 
    17   14   15 ar 
    18   15   16 1  
    19   15   17 ar 
    20   17   18 ar 
    21   18   19 ar 
    22    1   20 1  
    23    1   21 1  
    24    5   22 1  
    25    7   23 1  
    26    8   24 1  
    27    9   25 1  
    28   12   26 1  
    29   14   27 1  
    30   16   28 1  
    31   17   29 1  
    32   18   30 1  
    33   19   31 1  
@<TRIPOS>SUBSTRUCTURE
     1 6QT         1

