### 
### Created by X-TOOL on Mon Sep 10 21:13:34 2018
### 

@<TRIPOS>MOLECULE
5k76_ligand
   60    64     1     0     0
SMALL
GAST_HUCK


@<TRIPOS>ATOM
      1 C1        -15.8180  -43.6740   -8.6480 C.2       1 6R1         0.0204
      2 C3        -17.7720  -43.4810   -7.6030 C.ar      1 6R1         0.1320
      3 N6        -20.3740  -43.6920   -8.3270 N.ar      1 6R1        -0.2737
      4 C7        -19.4200  -43.8360   -9.2750 C.ar      1 6R1         0.1191
      5 C8        -18.0360  -43.7630   -8.9570 C.ar      1 6R1         0.0494
      6 C9        -16.7600  -43.8960   -9.6060 C.2       1 6R1        -0.0336
      7 C10       -16.5230  -44.2280  -11.0590 C.3       1 6R1        -0.0189
      8 C11       -16.6150  -45.7320  -11.3430 C.3       1 6R1        -0.0218
      9 C12       -16.3390  -46.0080  -12.8020 C.3       1 6R1         0.0490
     10 C14       -15.0000  -44.0890  -13.0440 C.3       1 6R1         0.0490
     11 C15       -15.1940  -43.6760  -11.6030 C.3       1 6R1        -0.0218
     12 C19       -23.3010  -42.8430  -11.7840 C.3       1 6R1        -0.0075
     13 C20       -23.4930  -43.9640  -12.8160 C.3       1 6R1        -0.0206
     14 C21       -22.8690  -45.2890  -12.3760 C.3       1 6R1        -0.0075
     15 C22       -21.3980  -45.0930  -12.0240 C.3       1 6R1        -0.0243
     16 N23       -24.9010  -44.1720  -13.2150 N.4       1 6R1         0.2406
     17 C24       -25.3290  -43.4850  -14.4410 C.3       1 6R1        -0.0076
     18 C27       -27.2390  -44.4220  -12.5710 C.3       1 6R1         0.0878
     19 N2        -16.4170  -43.4250   -7.4470 N.pl3     1 6R1        -0.2756
     20 N4        -18.6910  -43.3180   -6.6370 N.ar      1 6R1        -0.2785
     21 C5        -19.9470  -43.4430   -7.0820 C.ar      1 6R1         0.0493
     22 O13       -15.0550  -45.5120  -13.1880 O.3       1 6R1        -0.3795
     23 N16       -19.8340  -43.9270  -10.5490 N.pl3     1 6R1        -0.2984
     24 C17       -21.2310  -44.0390  -10.9460 C.3       1 6R1         0.0416
     25 C18       -21.8210  -42.7060  -11.3960 C.3       1 6R1        -0.0243
     26 C25       -26.7090  -43.9600  -14.8230 C.3       1 6R1         0.0878
     27 O26       -27.6480  -43.7450  -13.7650 O.3       1 6R1        -0.3693
     28 C28       -25.8680  -43.9770  -12.1190 C.3       1 6R1        -0.0076
     29 H1        -14.7422  -43.6925   -8.8158 H         1 6R1         0.0786
     30 H2        -17.3300  -43.7406  -11.6257 H         1 6R1         0.0392
     31 H3        -17.6250  -46.0877  -11.0912 H         1 6R1         0.0304
     32 H4        -15.8748  -46.2635  -10.7269 H         1 6R1         0.0304
     33 H5        -17.1115  -45.5174  -13.4124 H         1 6R1         0.0561
     34 H6        -16.3706  -47.0940  -12.9740 H         1 6R1         0.0561
     35 H7        -14.0192  -43.7313  -13.3906 H         1 6R1         0.0561
     36 H8        -15.7931  -43.6358  -13.6568 H         1 6R1         0.0561
     37 H9        -14.3637  -44.0701  -10.9985 H         1 6R1         0.0304
     38 H10       -15.2049  -42.5779  -11.5395 H         1 6R1         0.0304
     39 H11       -23.8894  -43.0764  -10.8844 H         1 6R1         0.0320
     40 H12       -23.6503  -41.8929  -12.2144 H         1 6R1         0.0320
     41 H13       -22.9540  -43.6428  -13.7195 H         1 6R1         0.0851
     42 H14       -22.9515  -46.0183  -13.1953 H         1 6R1         0.0320
     43 H15       -23.4056  -45.6669  -11.4933 H         1 6R1         0.0320
     44 H16       -20.8521  -44.7755  -12.9247 H         1 6R1         0.0290
     45 H17       -20.9850  -46.0460  -11.6618 H         1 6R1         0.0290
     46 H18       -24.9531  -45.1532  -13.4398 H         1 6R1         0.2038
     47 H19       -24.6241  -43.7118  -15.2545 H         1 6R1         0.0837
     48 H20       -25.3496  -42.3993  -14.2657 H         1 6R1         0.0837
     49 H21       -27.2166  -45.5046  -12.7647 H         1 6R1         0.0613
     50 H22       -27.9648  -44.2072  -11.7728 H         1 6R1         0.0613
     51 H23       -15.9252  -43.2265   -6.5640 H         1 6R1         0.2269
     52 H24       -20.7232  -43.3271   -6.3343 H         1 6R1         0.0974
     53 H25       -19.1199  -43.9170  -11.2912 H         1 6R1         0.1867
     54 H26       -21.7987  -44.3685  -10.0633 H         1 6R1         0.0562
     55 H27       -21.7336  -41.9814  -10.5731 H         1 6R1         0.0290
     56 H28       -21.2562  -42.3418  -12.2668 H         1 6R1         0.0290
     57 H29       -26.6668  -45.0353  -15.0507 H         1 6R1         0.0613
     58 H30       -27.0427  -43.4092  -15.7147 H         1 6R1         0.0613
     59 H31       -25.9004  -42.9125  -11.8439 H         1 6R1         0.0837
     60 H32       -25.5586  -44.5719  -11.2470 H         1 6R1         0.0837
@<TRIPOS>BOND
     1    6    1 2  
     2    1   19 1  
     3    5    2 ar 
     4    2   19 1  
     5    2   20 ar 
     6    4    3 ar 
     7    3   21 ar 
     8    4    5 ar 
     9   23    4 1  
    10    5    6 1  
    11    6    7 1  
    12    7    8 1  
    13    7   11 1  
    14    8    9 1  
    15    9   22 1  
    16   11   10 1  
    17   10   22 1  
    18   13   12 1  
    19   12   25 1  
    20   14   13 1  
    21   13   16 1  
    22   15   14 1  
    23   24   15 1  
    24   16   17 1  
    25   16   28 1  
    26   17   26 1  
    27   18   27 1  
    28   28   18 1  
    29   21   20 ar 
    30   23   24 1  
    31   24   25 1  
    32   26   27 1  
    33    1   29 1  
    34    7   30 1  
    35    8   31 1  
    36    8   32 1  
    37    9   33 1  
    38    9   34 1  
    39   10   35 1  
    40   10   36 1  
    41   11   37 1  
    42   11   38 1  
    43   12   39 1  
    44   12   40 1  
    45   13   41 1  
    46   14   42 1  
    47   14   43 1  
    48   15   44 1  
    49   15   45 1  
    50   16   46 1  
    51   17   47 1  
    52   17   48 1  
    53   18   49 1  
    54   18   50 1  
    55   19   51 1  
    56   21   52 1  
    57   23   53 1  
    58   24   54 1  
    59   25   55 1  
    60   25   56 1  
    61   26   57 1  
    62   26   58 1  
    63   28   59 1  
    64   28   60 1  
@<TRIPOS>SUBSTRUCTURE
     1 6R1         1

