### 
### Created by X-TOOL on Mon Sep 10 21:13:27 2018
### 

@<TRIPOS>MOLECULE
5k8n_ligand
   18    18     1     0     0
SMALL
GAST_HUCK


@<TRIPOS>ATOM
      1 C01        65.2230  100.2640  -70.5390 C.ar      1 6R6        -0.0326
      2 C02        65.1380  100.8300  -69.2810 C.ar      1 6R6        -0.0316
      3 C03        66.1740  101.6080  -68.8150 C.ar      1 6R6         0.0627
      4 C04        67.2980  101.8270  -69.6030 C.ar      1 6R6         0.1000
      5 C05        67.3820  101.2580  -70.8610 C.ar      1 6R6        -0.0154
      6 C06        66.3380  100.4800  -71.3210 C.ar      1 6R6         0.1277
      7 N07        66.3950   99.8710  -72.6230 N.2       1 6R6         0.0332
      8 O08        65.9630   98.7940  -72.7300 O.2       1 6R6        -0.1554
      9 O09        66.9440  100.5230  -73.7360 O.2       1 6R6        -0.1554
     10 C10        68.4540  102.6860  -69.0970 C.2       1 6R6         0.3708
     11 O11        68.5180  102.9330  -67.8650 O.co2     1 6R6        -0.2587
     12 O12        69.3280  103.1380  -69.8970 O.co2     1 6R6        -0.2587
     13 N13        66.0570  102.1710  -67.4900 N.pl3     1 6R6        -0.3302
     14 H1         64.4117   99.6492  -70.9116 H         1 6R6         0.0679
     15 H2         64.2616  100.6625  -68.6654 H         1 6R6         0.0542
     16 H3         68.2576  101.4210  -71.4789 H         1 6R6         0.0696
     17 H4         65.2128  101.9928  -66.9274 H         1 6R6         0.1760
     18 H5         66.8177  102.7507  -67.1077 H         1 6R6         0.1760
@<TRIPOS>BOND
     1    1    2 ar 
     2    1    6 ar 
     3    2    3 ar 
     4    3    4 ar 
     5    3   13 1  
     6    4    5 ar 
     7    4   10 1  
     8    5    6 ar 
     9    6    7 1  
    10    7    8 2  
    11    7    9 2  
    12   10   11 ar 
    13   10   12 ar 
    14    1   14 1  
    15    2   15 1  
    16    5   16 1  
    17   13   17 1  
    18   13   18 1  
@<TRIPOS>SUBSTRUCTURE
     1 6R6         1

