### 
### Created by X-TOOL on Mon Sep 10 21:13:28 2018
### 

@<TRIPOS>MOLECULE
5k8o_ligand
   17    17     1     0     0
SMALL
GAST_HUCK


@<TRIPOS>ATOM
      1 OAA        34.2360   77.4270 -100.9100 O.co2     1 6R7        -0.2581
      2 CAB        34.3540   78.5150 -100.3070 C.2       1 6R7         0.3729
      3 OAC        33.5750   79.4680 -100.5430 O.co2     1 6R7        -0.2581
      4 CAD        35.3690   78.6580  -99.3800 C.ar      1 6R7         0.1113
      5 CAE        35.5220   79.8540  -98.7090 C.ar      1 6R7        -0.0124
      6 CAF        36.5470   79.9940  -97.7940 C.ar      1 6R7         0.1301
      7 NAK        36.6750   81.1540  -97.1540 N.2       1 6R7         0.0350
      8 OAM        37.6980   81.3330  -96.3550 O.2       1 6R7        -0.1543
      9 OAL        35.8070   82.1340  -97.4180 O.2       1 6R7        -0.1543
     10 CAG        37.4090   78.9300  -97.5450 C.ar      1 6R7        -0.0296
     11 CAH        37.2580   77.7200  -98.2110 C.ar      1 6R7        -0.0204
     12 CAI        36.2290   77.5990  -99.1280 C.ar      1 6R7         0.1149
     13 OAJ        36.0050   76.4530  -99.8260 O.3       1 6R7        -0.3250
     14 H1         34.8429   80.6774  -98.8986 H         1 6R7         0.0702
     15 H2         38.2084   79.0468  -96.8222 H         1 6R7         0.0685
     16 H3         37.9296   76.8915  -98.0170 H         1 6R7         0.0568
     17 H4         35.2573   76.5738 -100.3994 H         1 6R7         0.2523
@<TRIPOS>BOND
     1    1    2 ar 
     2    2    3 ar 
     3    2    4 1  
     4    4    5 ar 
     5    4   12 ar 
     6    5    6 ar 
     7    6    7 1  
     8    6   10 ar 
     9    7    8 2  
    10    7    9 2  
    11   10   11 ar 
    12   11   12 ar 
    13   12   13 1  
    14    5   14 1  
    15   10   15 1  
    16   11   16 1  
    17   13   17 1  
@<TRIPOS>SUBSTRUCTURE
     1 6R7         1

