### 
### Created by X-TOOL on Mon Sep 10 21:13:28 2018
### 

@<TRIPOS>MOLECULE
5k8v_ligand
   42    44     1     0     0
SMALL
GAST_HUCK


@<TRIPOS>ATOM
      1 N1         51.0340   42.1500  126.3190 N.ar      1 6RE        -0.2698
      2 C2         50.8430   42.0550  127.6390 C.ar      1 6RE         0.0533
      3 N3         50.6230   40.9640  128.3780 N.ar      1 6RE        -0.2714
      4 C4         50.6040   39.8650  127.6160 C.ar      1 6RE         0.1613
      5 C5         50.7890   39.8040  126.2440 C.ar      1 6RE         0.1045
      6 C6         51.0150   41.0220  125.5770 C.ar      1 6RE         0.1298
      7 N6         51.2140   41.1240  124.2600 N.pl3     1 6RE        -0.3152
      8 N7         50.7060   38.4950  125.7950 N.2       1 6RE        -0.2958
      9 C8         50.4760   37.8060  126.8870 C.2       1 6RE         0.1123
     10 N9         50.3990   38.5680  128.0230 N.pl3     1 6RE        -0.1919
     11 C1'        50.1390   38.1020  129.3810 C.3       1 6RE         0.2009
     12 C2'        48.8610   37.2750  129.5350 C.3       1 6RE         0.1384
     13 O2'        47.7340   38.1070  129.7890 O.3       1 6RE        -0.3836
     14 C3'        49.2290   36.4130  130.7400 C.3       1 6RE         0.1125
     15 O3'        49.0660   37.1070  131.9720 O.3       1 6RE        -0.3865
     16 C4'        50.6950   36.1000  130.4680 C.3       1 6RE         0.0938
     17 O4'        51.2090   37.2630  129.7800 O.3       1 6RE        -0.3390
     18 C5'        50.9590   34.9020  129.5820 C.3       1 6RE         0.0092
     19 C6'        51.3370   33.6900  130.4080 C.3       1 6RE         0.0650
     20 N7'        51.4980   32.4960  129.5860 N.pl3     1 6RE        -0.2722
     21 C8'        52.6350   31.8600  129.3400 C.cat     1 6RE         0.2882
     22 N9'        52.6410   30.7960  128.5580 N.pl3     1 6RE        -0.2849
     23 N10        53.7700   32.2890  129.8660 N.pl3     1 6RE        -0.2849
     24 H1         50.8704   42.9915  128.1842 H         1 6RE         0.0996
     25 H2         51.2046   40.2792  123.6708 H         1 6RE         0.1820
     26 H3         51.3769   42.0474  123.8338 H         1 6RE         0.1820
     27 H4         50.3567   36.7236  126.8905 H         1 6RE         0.1349
     28 H5         50.0779   38.9776  130.0440 H         1 6RE         0.0996
     29 H6         48.6660   36.6592  128.6446 H         1 6RE         0.0676
     30 H7         47.8769   38.5957  130.5910 H         1 6RE         0.2101
     31 H8         48.6257   35.4935  130.7635 H         1 6RE         0.0647
     32 H9         49.6250   37.8751  131.9778 H         1 6RE         0.2100
     33 H10        51.2144   35.9508  131.4261 H         1 6RE         0.0625
     34 H11        51.7828   35.1388  128.8926 H         1 6RE         0.0325
     35 H12        50.0511   34.6747  129.0041 H         1 6RE         0.0325
     36 H13        50.5465   33.5058  131.1504 H         1 6RE         0.0689
     37 H14        52.2857   33.8951  130.9257 H         1 6RE         0.0689
     38 H15        50.6461   32.1096  129.1550 H         1 6RE         0.2642
     39 H16        53.5245   30.3021  128.3671 H         1 6RE         0.2615
     40 H17        51.7622   30.4599  128.1389 H         1 6RE         0.2615
     41 H18        53.7735   33.1182  130.4770 H         1 6RE         0.2615
     42 H19        54.6505   31.7939  129.6647 H         1 6RE         0.2615
@<TRIPOS>BOND
     1    1    2 ar 
     2    1    6 ar 
     3    2    3 ar 
     4    3    4 ar 
     5    4    5 ar 
     6    4   10 1  
     7    5    6 ar 
     8    5    8 1  
     9    6    7 1  
    10    8    9 2  
    11    9   10 1  
    12   10   11 1  
    13   11   12 1  
    14   11   17 1  
    15   12   13 1  
    16   12   14 1  
    17   14   15 1  
    18   14   16 1  
    19   16   17 1  
    20   16   18 1  
    21   18   19 1  
    22   19   20 1  
    23   20   21 ar 
    24   21   22 ar 
    25   21   23 ar 
    26    2   24 1  
    27    7   25 1  
    28    7   26 1  
    29    9   27 1  
    30   11   28 1  
    31   12   29 1  
    32   13   30 1  
    33   14   31 1  
    34   15   32 1  
    35   16   33 1  
    36   18   34 1  
    37   18   35 1  
    38   19   36 1  
    39   19   37 1  
    40   20   38 1  
    41   22   39 1  
    42   22   40 1  
    43   23   41 1  
    44   23   42 1  
@<TRIPOS>SUBSTRUCTURE
     1 6RE         1

