### 
### Created by X-TOOL on Mon Sep 10 21:13:32 2018
### 

@<TRIPOS>MOLECULE
5k9w_ligand
   27    28     1     0     0
SMALL
GAST_HUCK


@<TRIPOS>ATOM
      1 N1         32.0670  -34.5270  -17.4040 N.4       1 OTA         0.2365
      2 C2         32.4760  -34.6160  -15.9990 C.3       1 OTA        -0.0061
      3 C3         33.4500  -33.5490  -15.4930 C.2       1 OTA         0.0333
      4 C4         33.7610  -32.4940  -16.4130 C.2       1 OTA        -0.0668
      5 C5         33.1420  -32.3430  -17.7680 C.3       1 OTA        -0.0017
      6 C6         31.9310  -33.1680  -17.9770 C.3       1 OTA        -0.0288
      7 S13        34.2800  -33.3910  -14.1330 S.3       1 OTA        -0.0182
      8 C14        35.0470  -32.0480  -14.4250 C.2       1 OTA         0.1340
      9 C15        34.7910  -31.5580  -15.7110 C.2       1 OTA         0.0008
     10 C16        35.3860  -30.2670  -16.3530 C.2       1 OTA         0.0260
     11 O17        36.0300  -29.4660  -15.6460 O.co2     1 OTA        -0.5769
     12 O18        35.2010  -30.0150  -17.6110 O.co2     1 OTA        -0.5769
     13 N19        35.9570  -31.3140  -13.6440 N.am      1 OTA        -0.2107
     14 C20        36.4120  -31.7500  -12.4100 C.2       1 OTA         0.2766
     15 C21        37.4310  -30.8200  -11.8080 C.2       1 OTA         0.1508
     16 O22        38.3940  -31.4070  -11.2100 O.co2     1 OTA        -0.5455
     17 O23        37.2960  -29.5930  -12.0130 O.co2     1 OTA        -0.5455
     18 O24        36.0560  -32.7960  -11.8450 O.2       1 OTA        -0.3509
     19 H1         31.1732  -34.9849  -17.4907 H         1 OTA         0.2024
     20 H2         32.7527  -35.0217  -17.9528 H         1 OTA         0.2024
     21 H3         32.9521  -35.5968  -15.8528 H         1 OTA         0.0921
     22 H4         31.5665  -34.5545  -15.3834 H         1 OTA         0.0921
     23 H5         33.8892  -32.6298  -18.5226 H         1 OTA         0.0400
     24 H6         32.8679  -31.2867  -17.9063 H         1 OTA         0.0400
     25 H7         31.0759  -32.6673  -17.4994 H         1 OTA         0.0829
     26 H8         31.7468  -33.2572  -19.0578 H         1 OTA         0.0829
     27 H9         36.2905  -30.4388  -13.9945 H         1 OTA         0.2352
@<TRIPOS>BOND
     1    1    2 1  
     2    1    6 1  
     3    2    3 1  
     4    3    4 2  
     5    3    7 1  
     6    4    5 1  
     7    4    9 1  
     8    5    6 1  
     9    7    8 1  
    10    8    9 2  
    11    8   13 1  
    12    9   10 1  
    13   10   11 ar 
    14   10   12 ar 
    15   13   14 am 
    16   14   15 1  
    17   14   18 2  
    18   15   16 ar 
    19   15   17 ar 
    20    1   19 1  
    21    1   20 1  
    22    2   21 1  
    23    2   22 1  
    24    5   23 1  
    25    5   24 1  
    26    6   25 1  
    27    6   26 1  
    28   13   27 1  
@<TRIPOS>SUBSTRUCTURE
     1 OTA         1

