### 
### Created by X-TOOL on Mon Sep 10 21:13:31 2018
### 

@<TRIPOS>MOLECULE
5ka1_ligand
   27    28     1     0     0
SMALL
GAST_HUCK


@<TRIPOS>ATOM
      1 N1          6.9520  117.6980   -6.5670 N.4       1 OTA         0.2365
      2 C2          6.8800  118.2870   -5.2480 C.3       1 OTA        -0.0061
      3 C3          5.5060  118.7250   -4.7590 C.2       1 OTA         0.0333
      4 C4          4.4010  118.2150   -5.5120 C.2       1 OTA        -0.0668
      5 C5          4.5650  117.3220   -6.6830 C.3       1 OTA        -0.0017
      6 C6          5.9050  116.7200   -6.8520 C.3       1 OTA        -0.0288
      7 S13         5.0090  119.6530   -3.5850 S.3       1 OTA        -0.0182
      8 C14         3.4510  119.5730   -3.7690 C.2       1 OTA         0.1340
      9 C15         3.0980  118.7620   -4.8590 C.2       1 OTA         0.0008
     10 C16         1.6450  118.4970   -5.3530 C.2       1 OTA         0.0260
     11 O17         0.6690  118.8160   -4.6230 O.co2     1 OTA        -0.5769
     12 O18         1.4760  117.9930   -6.5370 O.co2     1 OTA        -0.5769
     13 N19         2.3960  120.1520   -3.0480 N.am      1 OTA        -0.2107
     14 C20         2.5930  121.0030   -1.9750 C.2       1 OTA         0.2766
     15 C21         1.2990  121.4910   -1.3720 C.2       1 OTA         0.1508
     16 O22         1.1800  122.7110   -0.9940 O.co2     1 OTA        -0.5455
     17 O23         0.3600  120.6560   -1.2920 O.co2     1 OTA        -0.5455
     18 O24         3.7340  121.3220   -1.5660 O.2       1 OTA        -0.3509
     19 H1          7.8448  117.2390   -6.6585 H         1 OTA         0.2024
     20 H2          6.8839  118.4391   -7.2468 H         1 OTA         0.2024
     21 H3          7.5312  119.1735   -5.2448 H         1 OTA         0.0921
     22 H4          7.2658  117.5460   -4.5325 H         1 OTA         0.0921
     23 H5          4.3417  117.9071   -7.5873 H         1 OTA         0.0400
     24 H6          3.8370  116.5030   -6.5872 H         1 OTA         0.0400
     25 H7          6.0081  115.8697   -6.1619 H         1 OTA         0.0829
     26 H8          6.0137  116.3667   -7.8880 H         1 OTA         0.0829
     27 H9          1.4581  119.9398   -3.3223 H         1 OTA         0.2352
@<TRIPOS>BOND
     1    1    2 1  
     2    1    6 1  
     3    2    3 1  
     4    3    4 2  
     5    3    7 1  
     6    4    5 1  
     7    4    9 1  
     8    5    6 1  
     9    7    8 1  
    10    8    9 2  
    11    8   13 1  
    12    9   10 1  
    13   10   11 ar 
    14   10   12 ar 
    15   13   14 am 
    16   14   15 1  
    17   14   18 2  
    18   15   16 ar 
    19   15   17 ar 
    20    1   19 1  
    21    1   20 1  
    22    2   21 1  
    23    2   22 1  
    24    5   23 1  
    25    5   24 1  
    26    6   25 1  
    27    6   26 1  
    28   13   27 1  
@<TRIPOS>SUBSTRUCTURE
     1 OTA         1

