### 
### Created by X-TOOL on Mon Sep 10 21:13:33 2018
### 

@<TRIPOS>MOLECULE
5ka3_ligand
   27    28     1     0     0
SMALL
GAST_HUCK


@<TRIPOS>ATOM
      1 N1        -42.5840   10.3940    0.0580 N.4       1 OTA         0.2365
      2 C2        -42.3620   10.8300    1.4400 C.3       1 OTA        -0.0061
      3 C3        -42.7800   12.2500    1.8520 C.2       1 OTA         0.0333
      4 C4        -43.5800   13.0190    0.9300 C.2       1 OTA        -0.0668
      5 C5        -43.9970   12.4320   -0.3870 C.3       1 OTA        -0.0017
      6 C6        -43.7820   10.9650   -0.6230 C.3       1 OTA        -0.0288
      7 S13       -42.5050   13.1110    3.1360 S.3       1 OTA        -0.0182
      8 C14       -43.2260   14.4710    2.8820 C.2       1 OTA         0.1340
      9 C15       -43.8650   14.4380    1.5920 C.2       1 OTA         0.0008
     10 C16       -44.6670   15.5860    0.9870 C.2       1 OTA         0.0260
     11 O17       -45.1090   16.4950    1.7350 O.co2     1 OTA        -0.5769
     12 O18       -44.8790   15.6290   -0.2520 O.co2     1 OTA        -0.5769
     13 N19       -43.3170   15.6440    3.7110 N.am      1 OTA        -0.2107
     14 C20       -42.8290   15.7920    5.0590 C.2       1 OTA         0.2766
     15 C21       -43.0770   17.1550    5.6760 C.2       1 OTA         0.1508
     16 O22       -42.1540   17.7620    6.2730 O.co2     1 OTA        -0.5455
     17 O23       -44.2270   17.6610    5.5520 O.co2     1 OTA        -0.5455
     18 O24       -42.2890   14.9230    5.6500 O.2       1 OTA        -0.3509
     19 H1        -42.6810    9.3907    0.0629 H         1 OTA         0.2024
     20 H2        -41.7715   10.6505   -0.4807 H         1 OTA         0.2024
     21 H3        -41.2831   10.7426    1.6357 H         1 OTA         0.0921
     22 H4        -42.9102   10.1319    2.0897 H         1 OTA         0.0921
     23 H5        -43.4443   12.9704   -1.1710 H         1 OTA         0.0400
     24 H6        -45.0742   12.6236   -0.5003 H         1 OTA         0.0400
     25 H7        -44.6706   10.4260   -0.2626 H         1 OTA         0.0829
     26 H8        -43.6699   10.8048   -1.7055 H         1 OTA         0.0829
     27 H9        -43.7668   16.4414    3.3088 H         1 OTA         0.2352
@<TRIPOS>BOND
     1    1    2 1  
     2    1    6 1  
     3    2    3 1  
     4    3    4 2  
     5    3    7 1  
     6    4    5 1  
     7    4    9 1  
     8    5    6 1  
     9    7    8 1  
    10    8    9 2  
    11    8   13 1  
    12    9   10 1  
    13   10   11 ar 
    14   10   12 ar 
    15   13   14 am 
    16   14   15 1  
    17   14   18 2  
    18   15   16 ar 
    19   15   17 ar 
    20    1   19 1  
    21    1   20 1  
    22    2   21 1  
    23    2   22 1  
    24    5   23 1  
    25    5   24 1  
    26    6   25 1  
    27    6   26 1  
    28   13   27 1  
@<TRIPOS>SUBSTRUCTURE
     1 OTA         1

