### 
### Created by X-TOOL on Mon Sep 10 21:13:32 2018
### 

@<TRIPOS>MOLECULE
5ka7_ligand
   27    28     1     0     0
SMALL
GAST_HUCK


@<TRIPOS>ATOM
      1 N1        -42.5890   10.4530    0.0390 N.4       1 OTA         0.2365
      2 C2        -42.3690   10.7370    1.4510 C.3       1 OTA        -0.0061
      3 C3        -42.7580   12.1250    1.9570 C.2       1 OTA         0.0333
      4 C4        -43.5590   12.8950    1.0600 C.2       1 OTA        -0.0668
      5 C5        -44.0300   12.3910   -0.2600 C.3       1 OTA        -0.0017
      6 C6        -43.8550   10.9500   -0.4920 C.3       1 OTA        -0.0288
      7 S13       -42.4200   12.9490    3.2750 S.3       1 OTA        -0.0182
      8 C14       -43.2020   14.2950    2.9980 C.2       1 OTA         0.1340
      9 C15       -43.8370   14.2760    1.7430 C.2       1 OTA         0.0008
     10 C16       -44.6680   15.4390    1.1120 C.2       1 OTA         0.0260
     11 O17       -45.1170   16.3800    1.8830 O.co2     1 OTA        -0.5769
     12 O18       -44.8830   15.4590   -0.1330 O.co2     1 OTA        -0.5769
     13 N19       -43.3560   15.4780    3.7600 N.am      1 OTA        -0.2107
     14 C20       -42.8180   15.6630    5.0330 C.2       1 OTA         0.2766
     15 C21       -43.1320   17.0180    5.6200 C.2       1 OTA         0.1508
     16 O22       -42.2000   17.6530    6.2240 O.co2     1 OTA        -0.5455
     17 O23       -44.2680   17.4900    5.4010 O.co2     1 OTA        -0.5455
     18 O24       -42.1210   14.8110    5.6160 O.2       1 OTA        -0.3509
     19 H1        -42.5660    9.4533   -0.0877 H         1 OTA         0.2024
     20 H2        -41.8402   10.8757   -0.4869 H         1 OTA         0.2024
     21 H3        -41.2960   10.6012    1.6518 H         1 OTA         0.0921
     22 H4        -42.9464   10.0010    2.0297 H         1 OTA         0.0921
     23 H5        -43.4770   12.9290   -1.0440 H         1 OTA         0.0400
     24 H6        -45.1027   12.6191   -0.3456 H         1 OTA         0.0400
     25 H7        -44.6797   10.4104   -0.0035 H         1 OTA         0.0829
     26 H8        -43.8832   10.7601   -1.5751 H         1 OTA         0.0829
     27 H9        -43.8835   16.2277    3.3604 H         1 OTA         0.2352
@<TRIPOS>BOND
     1    1    2 1  
     2    1    6 1  
     3    2    3 1  
     4    3    4 2  
     5    3    7 1  
     6    4    5 1  
     7    4    9 1  
     8    5    6 1  
     9    7    8 1  
    10    8    9 2  
    11    8   13 1  
    12    9   10 1  
    13   10   11 ar 
    14   10   12 ar 
    15   13   14 am 
    16   14   15 1  
    17   14   18 2  
    18   15   16 ar 
    19   15   17 ar 
    20    1   19 1  
    21    1   20 1  
    22    2   21 1  
    23    2   22 1  
    24    5   23 1  
    25    5   24 1  
    26    6   25 1  
    27    6   26 1  
    28   13   27 1  
@<TRIPOS>SUBSTRUCTURE
     1 OTA         1

