### 
### Created by X-TOOL on Mon Sep 10 21:13:32 2018
### 

@<TRIPOS>MOLECULE
5ka9_ligand
   27    28     1     0     0
SMALL
GAST_HUCK


@<TRIPOS>ATOM
      1 N1         31.4230  -30.5800   -0.9150 N.4       1 OTA         0.2365
      2 C2         31.5910  -30.3730   -2.3380 C.3       1 OTA        -0.0061
      3 C3         32.9950  -30.0800   -2.8540 C.2       1 OTA         0.0333
      4 C4         34.0630  -30.3910   -1.9520 C.2       1 OTA        -0.0668
      5 C5         33.8380  -30.9850   -0.6020 C.3       1 OTA        -0.0017
      6 C6         32.4580  -31.3730   -0.2390 C.3       1 OTA        -0.0288
      7 S13        33.5570  -29.4700   -4.1980 S.3       1 OTA        -0.0182
      8 C14        35.1050  -29.4920   -3.9700 C.2       1 OTA         0.1340
      9 C15        35.4070  -30.0050   -2.6800 C.2       1 OTA         0.0008
     10 C16        36.8440  -30.1550   -2.0870 C.2       1 OTA         0.0260
     11 O17        37.0100  -30.3680   -0.8120 O.co2     1 OTA        -0.5769
     12 O18        37.8450  -30.0410   -2.8590 O.co2     1 OTA        -0.5769
     13 N19        36.1680  -29.0530   -4.7980 N.am      1 OTA        -0.2107
     14 C20        36.0470  -28.5940   -6.1170 C.2       1 OTA         0.2766
     15 C21        37.3420  -28.1420   -6.7590 C.2       1 OTA         0.1508
     16 O22        38.3820  -28.8190   -6.5420 O.co2     1 OTA        -0.5455
     17 O23        37.3540  -27.0640   -7.4720 O.co2     1 OTA        -0.5455
     18 O24        34.9510  -28.5720   -6.7310 O.2       1 OTA        -0.3509
     19 H1         30.5406  -31.0469   -0.7760 H         1 OTA         0.2024
     20 H2         31.3964  -29.6734   -0.4751 H         1 OTA         0.2024
     21 H3         30.9530  -29.5235   -2.6233 H         1 OTA         0.0921
     22 H4         31.2385  -31.2830   -2.8455 H         1 OTA         0.0921
     23 H5         34.1775  -30.2483    0.1410 H         1 OTA         0.0400
     24 H6         34.4613  -31.8888   -0.5335 H         1 OTA         0.0400
     25 H7         32.3137  -32.4306   -0.5048 H         1 OTA         0.0829
     26 H8         32.3368  -31.2480    0.8471 H         1 OTA         0.0829
     27 H9         37.0877  -29.0724   -4.4058 H         1 OTA         0.2352
@<TRIPOS>BOND
     1    1    2 1  
     2    1    6 1  
     3    2    3 1  
     4    3    4 2  
     5    3    7 1  
     6    4    5 1  
     7    4    9 1  
     8    5    6 1  
     9    7    8 1  
    10    8    9 2  
    11    8   13 1  
    12    9   10 1  
    13   10   11 ar 
    14   10   12 ar 
    15   13   14 am 
    16   14   15 1  
    17   14   18 2  
    18   15   16 ar 
    19   15   17 ar 
    20    1   19 1  
    21    1   20 1  
    22    2   21 1  
    23    2   22 1  
    24    5   23 1  
    25    5   24 1  
    26    6   25 1  
    27    6   26 1  
    28   13   27 1  
@<TRIPOS>SUBSTRUCTURE
     1 OTA         1

