### 
### Created by X-TOOL on Mon Sep 10 21:13:31 2018
### 

@<TRIPOS>MOLECULE
5kab_ligand
   22    23     1     0     0
SMALL
GAST_HUCK


@<TRIPOS>ATOM
      1 N1         34.7350  -11.1920  -18.3220 N.ar      1 OTA        -0.3226
      2 C2         33.7230  -10.7040  -17.4250 C.ar      1 OTA         0.0097
      3 C3         32.6010  -11.6480  -17.0050 C.ar      1 OTA         0.0576
      4 C4         32.4700  -12.8510  -17.7620 C.ar      1 OTA        -0.0177
      5 C5         33.3670  -13.1700  -18.8970 C.ar      1 OTA        -0.0528
      6 C6         34.3510  -12.1580  -19.3430 C.ar      1 OTA        -0.0134
      7 S13        31.5040  -11.5880  -15.8820 S.3       1 OTA         0.0162
      8 C14        30.7150  -12.9260  -16.0680 C.2       1 OTA         0.1598
      9 C15        31.2640  -13.6540  -17.1660 C.2       1 OTA         0.0325
     10 C16        30.7550  -15.0220  -17.7250 C.2       1 OTA         0.0306
     11 O17        29.9060  -15.6790  -17.0580 O.co2     1 OTA        -0.5774
     12 O18        31.1910  -15.4540  -18.8830 O.co2     1 OTA        -0.5774
     13 N19        29.5840  -13.4040  -15.3560 N.am      1 OTA        -0.1949
     14 C20        29.0810  -12.9740  -14.1150 C.2       1 OTA         0.2847
     15 C21        27.8000  -13.6770  -13.6930 C.2       1 OTA         0.1528
     16 O22        26.7970  -12.9040  -13.3980 O.co2     1 OTA        -0.5453
     17 O23        27.7460  -14.9500  -13.6750 O.co2     1 OTA        -0.5453
     18 O24        29.6200  -12.0960  -13.3760 O.2       1 OTA        -0.3464
     19 H1         33.7567   -9.6858  -17.0547 H         1 OTA         0.0744
     20 H2         33.3037  -14.1312  -19.3941 H         1 OTA         0.0582
     21 H3         34.7538  -12.1372  -20.3492 H         1 OTA         0.0715
     22 H4         29.0771  -14.1456  -15.7955 H         1 OTA         0.2452
@<TRIPOS>BOND
     1    1    2 ar 
     2    1    6 ar 
     3    2    3 ar 
     4    3    4 ar 
     5    3    7 1  
     6    4    5 ar 
     7    4    9 1  
     8    5    6 ar 
     9    7    8 1  
    10    8    9 2  
    11    8   13 1  
    12    9   10 1  
    13   10   11 ar 
    14   10   12 ar 
    15   13   14 am 
    16   14   15 1  
    17   14   18 2  
    18   15   16 ar 
    19   15   17 ar 
    20    2   19 1  
    21    5   20 1  
    22    6   21 1  
    23   13   22 1  
@<TRIPOS>SUBSTRUCTURE
     1 OTA         1

