### 
### Created by X-TOOL on Mon Sep 10 21:13:28 2018
### 

@<TRIPOS>MOLECULE
5kat_ligand
   45    48     1     0     0
SMALL
GAST_HUCK


@<TRIPOS>ATOM
      1 P         -15.8290  -13.1260   -8.4580 P.3       1 P4P         0.0123
      2 C1A       -14.5440  -12.3050   -9.4450 C.ar      1 P4P         0.0071
      3 C2A       -13.4780  -11.6670   -8.8350 C.ar      1 P4P        -0.0533
      4 C3A       -12.5090  -11.0490   -9.6120 C.ar      1 P4P        -0.0664
      5 C4A       -12.6040  -11.0680  -10.9950 C.ar      1 P4P        -0.0673
      6 C5A       -13.6700  -11.7070  -11.6040 C.ar      1 P4P        -0.0664
      7 C6A       -14.6390  -12.3260  -10.8300 C.ar      1 P4P        -0.0533
      8 C1C       -17.3290  -12.0910   -8.4970 C.ar      1 P4P         0.0071
      9 C6C       -17.2670  -10.8070   -9.0230 C.ar      1 P4P        -0.0533
     10 C5C       -18.4010  -10.0080   -9.0560 C.ar      1 P4P        -0.0664
     11 C4C       -19.6020  -10.4900   -8.5610 C.ar      1 P4P        -0.0673
     12 C3C       -19.6660  -11.7710   -8.0340 C.ar      1 P4P        -0.0664
     13 C2C       -18.5320  -12.5700   -8.0010 C.ar      1 P4P        -0.0533
     14 C1D       -16.1040  -14.7470   -9.2360 C.ar      1 P4P         0.0071
     15 C6D       -15.2640  -15.8120   -8.9520 C.ar      1 P4P        -0.0533
     16 C5D       -15.4640  -17.0480   -9.5490 C.ar      1 P4P        -0.0664
     17 C4D       -16.5070  -17.2190  -10.4430 C.ar      1 P4P        -0.0673
     18 C3D       -17.3370  -16.1520  -10.7380 C.ar      1 P4P        -0.0664
     19 C2D       -17.1390  -14.9200  -10.1350 C.ar      1 P4P        -0.0533
     20 C6B       -16.0590  -12.7860   -5.7000 C.ar      1 P4P        -0.0533
     21 C5B       -15.6700  -12.9460   -4.3780 C.ar      1 P4P        -0.0664
     22 C4B       -14.5220  -13.6590   -4.0760 C.ar      1 P4P        -0.0673
     23 C3B       -13.7650  -14.2120   -5.0960 C.ar      1 P4P        -0.0664
     24 C2B       -14.1550  -14.0520   -6.4170 C.ar      1 P4P        -0.0533
     25 C1B       -15.3040  -13.3390   -6.7260 C.ar      1 P4P         0.0071
     26 H1        -13.4005  -11.6502   -7.7539 H         1 P4P         0.0598
     27 H2        -11.6736  -10.5489   -9.1355 H         1 P4P         0.0600
     28 H3        -11.8448  -10.5833  -11.5982 H         1 P4P         0.0570
     29 H4        -13.7470  -11.7234  -12.6851 H         1 P4P         0.0600
     30 H5        -15.4730  -12.8277  -11.3072 H         1 P4P         0.0598
     31 H6        -16.3282  -10.4272   -9.4096 H         1 P4P         0.0598
     32 H7        -18.3473   -9.0071   -9.4689 H         1 P4P         0.0600
     33 H8        -20.4891   -9.8675   -8.5856 H         1 P4P         0.0570
     34 H9        -20.6050  -12.1495   -7.6465 H         1 P4P         0.0600
     35 H10       -18.5867  -13.5703   -7.5868 H         1 P4P         0.0598
     36 H11       -14.4431  -15.6779   -8.2569 H         1 P4P         0.0598
     37 H12       -14.8058  -17.8772   -9.3163 H         1 P4P         0.0600
     38 H13       -16.6725  -18.1835  -10.9093 H         1 P4P         0.0570
     39 H14       -18.1479  -16.2806  -11.4458 H         1 P4P         0.0600
     40 H15       -17.7970  -14.0909  -10.3689 H         1 P4P         0.0598
     41 H16       -16.9574  -12.2261   -5.9334 H         1 P4P         0.0598
     42 H17       -16.2645  -12.5130   -3.5817 H         1 P4P         0.0600
     43 H18       -14.2163  -13.7842   -3.0436 H         1 P4P         0.0570
     44 H19       -12.8663  -14.7707   -4.8610 H         1 P4P         0.0600
     45 H20       -13.5593  -14.4861   -7.2118 H         1 P4P         0.0598
@<TRIPOS>BOND
     1    1    2 1  
     2    1    8 1  
     3    1   14 1  
     4   25    1 1  
     5    2    3 ar 
     6    2    7 ar 
     7    3    4 ar 
     8    4    5 ar 
     9    6    5 ar 
    10    7    6 ar 
    11    8    9 ar 
    12    8   13 ar 
    13    9   10 ar 
    14   10   11 ar 
    15   12   11 ar 
    16   13   12 ar 
    17   14   15 ar 
    18   14   19 ar 
    19   15   16 ar 
    20   16   17 ar 
    21   18   17 ar 
    22   19   18 ar 
    23   20   21 ar 
    24   20   25 ar 
    25   21   22 ar 
    26   22   23 ar 
    27   23   24 ar 
    28   24   25 ar 
    29    3   26 1  
    30    4   27 1  
    31    5   28 1  
    32    6   29 1  
    33    7   30 1  
    34    9   31 1  
    35   10   32 1  
    36   11   33 1  
    37   12   34 1  
    38   13   35 1  
    39   15   36 1  
    40   16   37 1  
    41   17   38 1  
    42   18   39 1  
    43   19   40 1  
    44   20   41 1  
    45   21   42 1  
    46   22   43 1  
    47   23   44 1  
    48   24   45 1  
@<TRIPOS>SUBSTRUCTURE
     1 P4P         1

