### 
### Created by X-TOOL on Mon Sep 10 21:13:26 2018
### 

@<TRIPOS>MOLECULE
5kau_ligand
   65    68     1     0     0
SMALL
GAST_HUCK


@<TRIPOS>ATOM
      1 C1          1.7750  -12.1680  -18.2180 C.ar      1 RHQ         0.1011
      2 C2          2.8410  -11.2860  -18.0690 C.ar      1 RHQ        -0.0056
      3 C3          3.9640  -11.4910  -18.9220 C.ar      1 RHQ        -0.0731
      4 C4          4.0050  -12.4940  -19.8400 C.ar      1 RHQ        -0.0438
      5 C5          2.8890  -13.3830  -19.9700 C.ar      1 RHQ         0.0256
      6 C6          1.7800  -13.2070  -19.1320 C.ar      1 RHQ        -0.0234
      7 O1          0.6680  -12.0350  -17.4470 O.3       1 RHQ        -0.2780
      8 C7          0.5690  -11.0330  -16.5210 C.ar      1 RHQ         0.1011
      9 C8          1.6220  -10.1280  -16.3300 C.ar      1 RHQ        -0.0056
     10 C9          2.7430  -10.2520  -17.1410 C.3       1 RHQ         0.0455
     11 C10        -0.6020  -10.9830  -15.7990 C.ar      1 RHQ        -0.0234
     12 C11        -0.7530   -9.9940  -14.8210 C.ar      1 RHQ         0.0256
     13 C12         0.3140   -9.0540  -14.6000 C.ar      1 RHQ        -0.0438
     14 C13         1.4520   -9.1240  -15.3340 C.ar      1 RHQ        -0.0731
     15 N1         -1.8810   -9.9060  -14.0710 N.pl3     1 RHQ        -0.3313
     16 C14         3.8590   -9.3850  -16.8940 C.ar      1 RHQ        -0.0040
     17 C15         4.4180   -9.7400  -15.6740 C.ar      1 RHQ        -0.0515
     18 C16         5.5280   -9.1020  -15.1890 C.ar      1 RHQ        -0.0639
     19 C17         6.0820   -8.1360  -15.9770 C.ar      1 RHQ        -0.0628
     20 C18         5.5430   -7.7840  -17.2320 C.ar      1 RHQ        -0.0471
     21 C19         4.4120   -8.4080  -17.7450 C.ar      1 RHQ         0.0658
     22 C20         0.1740   -7.9870  -13.5780 C.3       1 RHQ        -0.0410
     23 C21         5.1960  -12.6360  -20.7380 C.3       1 RHQ        -0.0410
     24 C22        -3.1100  -10.6610  -14.3360 C.3       1 RHQ         0.0184
     25 C23        -3.8310  -10.1510  -15.5750 C.3       1 RHQ        -0.0460
     26 N2          2.9830  -14.3980  -20.8820 N.pl3     1 RHQ        -0.3313
     27 C24         1.9030  -15.3300  -21.2300 C.3       1 RHQ         0.0184
     28 C25         2.3330  -16.2550  -22.3600 C.3       1 RHQ        -0.0460
     29 C26         4.1220   -8.3600  -19.1950 C.2       1 RHQ         0.2582
     30 O27         2.8790   -8.7440  -19.5180 O.2       1 RHQ        -0.3611
     31 O2          4.9650   -8.5470  -20.0630 O.3       1 RHQ        -0.2790
     32 C28         4.7450   -7.7170  -21.1750 C.3       1 RHQ         0.0727
     33 C29         6.0420   -7.6010  -21.9490 C.3       1 RHQ        -0.0373
     34 H1          4.8148  -10.8248  -18.8364 H         1 RHQ         0.0442
     35 H2          0.9325  -13.8795  -19.1991 H         1 RHQ         0.0410
     36 H3          2.3247   -9.5696  -17.8956 H         1 RHQ         0.0695
     37 H4         -1.3946  -11.6986  -15.9853 H         1 RHQ         0.0410
     38 H5          2.2444   -8.4050  -15.1602 H         1 RHQ         0.0442
     39 H6         -1.8732   -9.2672  -13.2630 H         1 RHQ         0.1715
     40 H7          3.9672  -10.5374  -15.0944 H         1 RHQ         0.0572
     41 H8          5.9480   -9.3533  -14.2218 H         1 RHQ         0.0636
     42 H9          6.9685   -7.6203  -15.6260 H         1 RHQ         0.0571
     43 H10         6.0242   -7.0052  -17.8125 H         1 RHQ         0.0653
     44 H11        -0.8036   -8.0801  -13.0823 H         1 RHQ         0.0344
     45 H12         0.2467   -7.0026  -14.0633 H         1 RHQ         0.0344
     46 H13         0.9750   -8.0876  -12.8308 H         1 RHQ         0.0344
     47 H14         5.9404  -11.8670  -20.4840 H         1 RHQ         0.0344
     48 H15         4.8827  -12.5114  -21.7850 H         1 RHQ         0.0344
     49 H16         5.6393  -13.6338  -20.6042 H         1 RHQ         0.0344
     50 H17        -3.7805  -10.5652  -13.4693 H         1 RHQ         0.0503
     51 H18        -2.8522  -11.7199  -14.4849 H         1 RHQ         0.0503
     52 H19        -4.7442  -10.7424  -15.7373 H         1 RHQ         0.0248
     53 H20        -3.1709  -10.2483  -16.4495 H         1 RHQ         0.0248
     54 H21        -4.0993   -9.0936  -15.4340 H         1 RHQ         0.0248
     55 H22         3.8852  -14.5184  -21.3641 H         1 RHQ         0.1715
     56 H23         1.0202  -14.7566  -21.5491 H         1 RHQ         0.0503
     57 H24         1.6485  -15.9337  -20.3464 H         1 RHQ         0.0503
     58 H25         1.5102  -16.9432  -22.6037 H         1 RHQ         0.0248
     59 H26         3.2139  -16.8337  -22.0451 H         1 RHQ         0.0248
     60 H27         2.5856  -15.6566  -23.2477 H         1 RHQ         0.0248
     61 H28         4.4236   -6.7207  -20.8372 H         1 RHQ         0.0608
     62 H29         3.9669   -8.1550  -21.8174 H         1 RHQ         0.0608
     63 H30         5.8895   -6.9536  -22.8252 H         1 RHQ         0.0255
     64 H31         6.3608   -8.5997  -22.2821 H         1 RHQ         0.0255
     65 H32         6.8175   -7.1654  -21.3019 H         1 RHQ         0.0255
@<TRIPOS>BOND
     1    1    2 ar 
     2    1    6 ar 
     3    1    7 1  
     4    2    3 ar 
     5    2   10 1  
     6    3    4 ar 
     7    4    5 ar 
     8    4   23 1  
     9    5    6 ar 
    10    5   26 1  
    11    7    8 1  
    12    8    9 ar 
    13    8   11 ar 
    14    9   10 1  
    15    9   14 ar 
    16   10   16 1  
    17   11   12 ar 
    18   12   13 ar 
    19   12   15 1  
    20   13   14 ar 
    21   13   22 1  
    22   15   24 1  
    23   16   17 ar 
    24   16   21 ar 
    25   17   18 ar 
    26   18   19 ar 
    27   19   20 ar 
    28   20   21 ar 
    29   21   29 1  
    30   24   25 1  
    31   26   27 1  
    32   27   28 1  
    33   29   30 2  
    34   29   31 1  
    35   31   32 1  
    36   32   33 1  
    37    3   34 1  
    38    6   35 1  
    39   10   36 1  
    40   11   37 1  
    41   14   38 1  
    42   15   39 1  
    43   17   40 1  
    44   18   41 1  
    45   19   42 1  
    46   20   43 1  
    47   22   44 1  
    48   22   45 1  
    49   22   46 1  
    50   23   47 1  
    51   23   48 1  
    52   23   49 1  
    53   24   50 1  
    54   24   51 1  
    55   25   52 1  
    56   25   53 1  
    57   25   54 1  
    58   26   55 1  
    59   27   56 1  
    60   27   57 1  
    61   28   58 1  
    62   28   59 1  
    63   28   60 1  
    64   32   61 1  
    65   32   62 1  
    66   33   63 1  
    67   33   64 1  
    68   33   65 1  
@<TRIPOS>SUBSTRUCTURE
     1 RHQ         1

