### 
### Created by X-TOOL on Mon Sep 10 21:13:26 2018
### 

@<TRIPOS>MOLECULE
5kax_ligand
   65    68     1     0     0
SMALL
GAST_HUCK


@<TRIPOS>ATOM
      1 C1         -3.2580   22.4770  -10.7370 C.ar      1 RHQ         0.1011
      2 C2         -1.9150   22.7360  -10.3930 C.ar      1 RHQ        -0.0056
      3 C3         -1.1850   21.7260   -9.7450 C.ar      1 RHQ        -0.0731
      4 C4         -1.7550   20.4710   -9.4330 C.ar      1 RHQ        -0.0438
      5 C5         -3.0830   20.2020   -9.7760 C.ar      1 RHQ         0.0256
      6 C6         -3.8340   21.2040  -10.4240 C.ar      1 RHQ        -0.0234
      7 O1         -4.0030   23.4510  -11.3770 O.3       1 RHQ        -0.2780
      8 C7         -3.4890   24.6810  -11.7010 C.ar      1 RHQ         0.1011
      9 C8         -2.1620   25.0170  -11.3920 C.ar      1 RHQ        -0.0056
     10 C9         -1.3080   24.0460  -10.7130 C.3       1 RHQ         0.0455
     11 C10        -4.3190   25.6280  -12.3500 C.ar      1 RHQ        -0.0234
     12 C11        -3.8070   26.8850  -12.6930 C.ar      1 RHQ         0.0256
     13 C12        -2.5150   27.2010  -12.3940 C.ar      1 RHQ        -0.0438
     14 C13        -1.6810   26.2940  -11.7420 C.ar      1 RHQ        -0.0731
     15 N1         -4.6240   27.8950  -13.3690 N.pl3     1 RHQ        -0.3313
     16 C14         0.1690   24.3040  -10.3370 C.ar      1 RHQ        -0.0040
     17 C15         0.5830   24.2180   -8.8810 C.ar      1 RHQ        -0.0515
     18 C16         1.9120   24.4150   -8.4800 C.ar      1 RHQ        -0.0639
     19 C17         2.9680   24.7210   -9.5090 C.ar      1 RHQ        -0.0628
     20 C18         2.6230   24.7940  -10.8400 C.ar      1 RHQ        -0.0471
     21 C19         1.1760   24.5760  -11.2710 C.ar      1 RHQ         0.0658
     22 C20        -2.0090   28.5400  -12.7780 C.3       1 RHQ        -0.0410
     23 C21        -0.8970   19.4290   -8.7320 C.3       1 RHQ        -0.0410
     24 C22        -6.0530   27.7480  -13.3770 C.3       1 RHQ         0.0184
     25 C23        -6.7310   28.9710  -13.9340 C.3       1 RHQ        -0.0460
     26 N2         -3.6540   18.8950   -9.4350 N.pl3     1 RHQ        -0.3313
     27 C24        -4.8210   18.3710  -10.1340 C.3       1 RHQ         0.0184
     28 C25        -5.3070   17.0960   -9.4730 C.3       1 RHQ        -0.0460
     29 C26         0.9200   24.6820  -12.7620 C.2       1 RHQ         0.2582
     30 O27         0.1380   23.9260  -13.3020 O.2       1 RHQ        -0.3611
     31 O2          1.5770   25.6290  -13.5230 O.3       1 RHQ        -0.2790
     32 C28         0.7800   26.4850  -14.3030 C.3       1 RHQ         0.0727
     33 C29         1.3030   26.5770  -15.6850 C.3       1 RHQ        -0.0373
     34 H1         -0.1521   21.9151   -9.4758 H         1 RHQ         0.0442
     35 H2         -4.8662   21.0071  -10.6901 H         1 RHQ         0.0410
     36 H3         -1.6186   24.4518   -9.7389 H         1 RHQ         0.0695
     37 H4         -5.3487   25.3798  -12.5806 H         1 RHQ         0.0410
     38 H5         -0.6606   26.5718  -11.5039 H         1 RHQ         0.0442
     39 H6         -4.1798   28.7003  -13.8327 H         1 RHQ         0.1715
     40 H7         -0.1679   23.9985   -8.1306 H         1 RHQ         0.0572
     41 H8          2.1787   24.3472   -7.4315 H         1 RHQ         0.0636
     42 H9          3.9953   24.8831   -9.2032 H         1 RHQ         0.0571
     43 H10         3.3821   25.0071  -11.5840 H         1 RHQ         0.0653
     44 H11        -2.8096   29.1050  -13.2778 H         1 RHQ         0.0344
     45 H12        -1.1567   28.4270  -13.4641 H         1 RHQ         0.0344
     46 H13        -1.6852   29.0819  -11.8772 H         1 RHQ         0.0344
     47 H14         0.1076   19.8404   -8.5545 H         1 RHQ         0.0344
     48 H15        -0.8195   18.5322   -9.3643 H         1 RHQ         0.0344
     49 H16        -1.3585   19.1608   -7.7702 H         1 RHQ         0.0344
     50 H17        -6.4012   27.5847  -12.3464 H         1 RHQ         0.0503
     51 H18        -6.3193   26.8787  -13.9962 H         1 RHQ         0.0503
     52 H19        -7.8209   28.8224  -13.9245 H         1 RHQ         0.0248
     53 H20        -6.3929   29.1392  -14.9671 H         1 RHQ         0.0248
     54 H21        -6.4748   29.8452  -13.3174 H         1 RHQ         0.0248
     55 H22        -3.2215   18.3356   -8.6860 H         1 RHQ         0.1715
     56 H23        -4.5515   18.1571  -11.1788 H         1 RHQ         0.0503
     57 H24        -5.6252   19.1211  -10.1089 H         1 RHQ         0.0503
     58 H25        -6.1866   16.7154  -10.0128 H         1 RHQ         0.0248
     59 H26        -5.5804   17.3057   -8.4284 H         1 RHQ         0.0248
     60 H27        -4.5067   16.3418   -9.4983 H         1 RHQ         0.0248
     61 H28         0.7783   27.4877  -13.8507 H         1 RHQ         0.0608
     62 H29        -0.2477   26.0940  -14.3318 H         1 RHQ         0.0608
     63 H30         0.6641   27.2509  -16.2747 H         1 RHQ         0.0255
     64 H31         1.3037   25.5774  -16.1441 H         1 RHQ         0.0255
     65 H32         2.3297   26.9711  -15.6630 H         1 RHQ         0.0255
@<TRIPOS>BOND
     1    1    2 ar 
     2    1    6 ar 
     3    1    7 1  
     4    2    3 ar 
     5    2   10 1  
     6    3    4 ar 
     7    4    5 ar 
     8    4   23 1  
     9    5    6 ar 
    10    5   26 1  
    11    7    8 1  
    12    8    9 ar 
    13    8   11 ar 
    14    9   10 1  
    15    9   14 ar 
    16   10   16 1  
    17   11   12 ar 
    18   12   13 ar 
    19   12   15 1  
    20   13   14 ar 
    21   13   22 1  
    22   15   24 1  
    23   16   17 ar 
    24   16   21 ar 
    25   17   18 ar 
    26   18   19 ar 
    27   19   20 ar 
    28   20   21 ar 
    29   21   29 1  
    30   24   25 1  
    31   26   27 1  
    32   27   28 1  
    33   29   30 2  
    34   29   31 1  
    35   31   32 1  
    36   32   33 1  
    37    3   34 1  
    38    6   35 1  
    39   10   36 1  
    40   11   37 1  
    41   14   38 1  
    42   15   39 1  
    43   17   40 1  
    44   18   41 1  
    45   19   42 1  
    46   20   43 1  
    47   22   44 1  
    48   22   45 1  
    49   22   46 1  
    50   23   47 1  
    51   23   48 1  
    52   23   49 1  
    53   24   50 1  
    54   24   51 1  
    55   25   52 1  
    56   25   53 1  
    57   25   54 1  
    58   26   55 1  
    59   27   56 1  
    60   27   57 1  
    61   28   58 1  
    62   28   59 1  
    63   28   60 1  
    64   32   61 1  
    65   32   62 1  
    66   33   63 1  
    67   33   64 1  
    68   33   65 1  
@<TRIPOS>SUBSTRUCTURE
     1 RHQ         1

