### 
### Created by X-TOOL on Mon Sep 10 21:13:28 2018
### 

@<TRIPOS>MOLECULE
5kbe_ligand
   13    13     1     0     0
SMALL
GAST_HUCK


@<TRIPOS>ATOM
      1 C1         28.8940    2.4690  -12.9560 C.ar      1 IPH         0.0876
      2 C2         29.0160    2.7720  -14.3170 C.ar      1 IPH        -0.0334
      3 C3         30.2380    3.0720  -14.8530 C.ar      1 IPH        -0.0707
      4 C4         31.4000    3.0530  -14.0530 C.ar      1 IPH        -0.0729
      5 C5         31.3070    2.7670  -12.6990 C.ar      1 IPH        -0.0707
      6 C6         30.0520    2.4680  -12.1630 C.ar      1 IPH        -0.0334
      7 O1         27.6400    2.2110  -12.4030 O.3       1 IPH        -0.3331
      8 H1         28.1363    2.7689  -14.9503 H         1 IPH         0.0542
      9 H2         30.3146    3.3271  -15.9038 H         1 IPH         0.0589
     10 H3         32.3665    3.2622  -14.4970 H         1 IPH         0.0523
     11 H4         32.1897    2.7753  -12.0698 H         1 IPH         0.0589
     12 H5         29.9706    2.2294  -11.1087 H         1 IPH         0.0542
     13 H6         27.4500    2.8597  -11.7355 H         1 IPH         0.2481
@<TRIPOS>BOND
     1    1    2 ar 
     2    1    6 ar 
     3    1    7 1  
     4    2    3 ar 
     5    3    4 ar 
     6    4    5 ar 
     7    5    6 ar 
     8    2    8 1  
     9    3    9 1  
    10    4   10 1  
    11    5   11 1  
    12    6   12 1  
    13    7   13 1  
@<TRIPOS>SUBSTRUCTURE
     1 IPH         1

