### 
### Created by X-TOOL on Mon Sep 10 21:13:28 2018
### 

@<TRIPOS>MOLECULE
5kbg_ligand
   16    16     1     0     0
SMALL
GAST_HUCK


@<TRIPOS>ATOM
      1 C9         31.2840    2.8200  -13.0680 C.ar      1 JZ0        -0.0691
      2 C10        31.2030    3.1950  -14.3990 C.ar      1 JZ0        -0.0797
      3 C11        29.9750    3.1970  -15.0380 C.ar      1 JZ0        -0.0776
      4 C12        28.8000    2.8310  -14.3770 C.ar      1 JZ0        -0.0399
      5 C13        28.8410    2.4630  -13.0470 C.ar      1 JZ0         0.0890
      6 C14        30.1420    2.4720  -12.4010 C.ar      1 JZ0        -0.0170
      7 C15        30.2140    2.0600  -10.9790 C.3       1 JZ0        -0.0331
      8 OAB        27.7240    2.0980  -12.3540 O.3       1 JZ0        -0.3369
      9 H1         32.2419    2.8026  -12.5608 H         1 JZ0         0.0526
     10 H2         32.0975    3.4857  -14.9380 H         1 JZ0         0.0505
     11 H3         29.9237    3.4907  -16.0802 H         1 JZ0         0.0531
     12 H4         27.8554    2.8359  -14.9087 H         1 JZ0         0.0521
     13 H5         31.2565    2.1182  -10.6328 H         1 JZ0         0.0368
     14 H6         29.8513    1.0265  -10.8778 H         1 JZ0         0.0368
     15 H7         29.5878    2.7296  -10.3711 H         1 JZ0         0.0368
     16 H8         27.6048    2.6843  -11.6162 H         1 JZ0         0.2456
@<TRIPOS>BOND
     1    1    2 ar 
     2    1    6 ar 
     3    2    3 ar 
     4    3    4 ar 
     5    4    5 ar 
     6    5    6 ar 
     7    5    8 1  
     8    6    7 1  
     9    1    9 1  
    10    2   10 1  
    11    3   11 1  
    12    4   12 1  
    13    7   13 1  
    14    7   14 1  
    15    7   15 1  
    16    8   16 1  
@<TRIPOS>SUBSTRUCTURE
     1 JZ0         1

