### 
### Created by X-TOOL on Mon Sep 10 21:13:29 2018
### 

@<TRIPOS>MOLECULE
5kbh_ligand
   13    13     1     0     0
SMALL
GAST_HUCK


@<TRIPOS>ATOM
      1 C4         31.3500    3.2170  -14.6740 C.ar      1 3CH        -0.0590
      2 C5         30.1170    3.3100  -15.2810 C.ar      1 3CH        -0.0701
      3 C3         31.3990    2.7950  -13.3600 C.ar      1 3CH         0.0318
      4 C6         28.9930    2.9730  -14.5340 C.ar      1 3CH        -0.0332
      5 C2         30.3220    2.4690  -12.6110 C.ar      1 3CH        -0.0196
      6 C1         29.0990    2.5670  -13.2070 C.ar      1 3CH         0.0880
      7 OH         27.9930    2.2430  -12.4960 O.3       1 3CH        -0.3331
      8 CL         32.9510    2.6690  -12.5960 Cl        1 3CH        -0.0736
      9 H1         32.2565    3.4681  -15.2127 H         1 3CH         0.0529
     10 H2         30.0253    3.6363  -16.3107 H         1 3CH         0.0589
     11 H3         28.0136    3.0278  -14.9953 H         1 3CH         0.0544
     12 H4         30.4257    2.1440  -11.5821 H         1 3CH         0.0547
     13 H5         27.9322    2.8059  -11.7331 H         1 3CH         0.2481
@<TRIPOS>BOND
     1    1    2 ar 
     2    1    3 ar 
     3    2    4 ar 
     4    3    5 ar 
     5    3    8 1  
     6    4    6 ar 
     7    5    6 ar 
     8    6    7 1  
     9    1    9 1  
    10    2   10 1  
    11    4   11 1  
    12    5   12 1  
    13    7   13 1  
@<TRIPOS>SUBSTRUCTURE
     1 3CH         1

