### 
### Created by X-TOOL on Mon Sep 10 21:13:29 2018
### 

@<TRIPOS>MOLECULE
5kbi_ligand
   14    14     1     0     0
SMALL
GAST_HUCK


@<TRIPOS>ATOM
      1 C1         31.4700    2.7640  -13.0710 C.ar      1 CAQ        -0.0819
      2 C2         30.3580    2.4950  -12.2770 C.ar      1 CAQ        -0.0417
      3 C3         29.0920    2.4620  -12.8670 C.ar      1 CAQ         0.1160
      4 O3         27.9250    2.2080  -12.1920 O.3       1 CAQ        -0.3369
      5 C4         28.9770    2.7040  -14.2250 C.ar      1 CAQ         0.1160
      6 O4         27.7140    2.6340  -14.6980 O.3       1 CAQ        -0.3369
      7 C5         30.0790    2.9940  -15.0360 C.ar      1 CAQ        -0.0417
      8 C6         31.3180    3.0090  -14.4350 C.ar      1 CAQ        -0.0819
      9 H1         32.4584    2.7830  -12.6264 H         1 CAQ         0.0495
     10 H2         30.4732    2.3135  -11.2145 H         1 CAQ         0.0509
     11 H3         27.8023    2.8640  -11.5159 H         1 CAQ         0.2442
     12 H4         27.1746    3.2779  -14.2541 H         1 CAQ         0.2442
     13 H5         29.9626    3.1985  -16.0941 H         1 CAQ         0.0509
     14 H6         32.1956    3.2162  -15.0366 H         1 CAQ         0.0495
@<TRIPOS>BOND
     1    1    2 ar 
     2    1    8 ar 
     3    2    3 ar 
     4    3    4 1  
     5    3    5 ar 
     6    5    6 1  
     7    5    7 ar 
     8    7    8 ar 
     9    1    9 1  
    10    2   10 1  
    11    4   11 1  
    12    6   12 1  
    13    7   13 1  
    14    8   14 1  
@<TRIPOS>SUBSTRUCTURE
     1 CAQ         1

