### 
### Created by X-TOOL on Mon Sep 10 21:13:27 2018
### 

@<TRIPOS>MOLECULE
5kbq_ligand
   63    66     1     0     0
SMALL
GAST_HUCK


@<TRIPOS>ATOM
      1 C1          2.8060  -33.7250   19.6590 C.ar      1 IPV        -0.0279
      2 C2          1.6840  -33.9470   20.4550 C.ar      1 IPV        -0.0759
      3 C3          0.6570  -33.0280   20.5370 C.ar      1 IPV        -0.0762
      4 C7          4.8860  -31.1750   18.5130 C.3       1 IPV         0.0371
      5 C8          4.2170  -32.8870   16.8130 C.ar      1 IPV         0.1348
      6 C9          3.2520  -33.6710   16.1880 C.ar      1 IPV        -0.0019
      7 C10         3.6140  -34.2140   14.9720 C.ar      1 IPV         0.0010
      8 C11         5.6620  -33.2330   15.0810 C.ar      1 IPV         0.1947
      9 C12         8.0010  -32.2100   14.7950 C.ar      1 IPV         0.0549
     10 C13         8.0120  -31.4140   15.9380 C.ar      1 IPV        -0.0220
     11 C14         9.1710  -30.7160   16.2870 C.ar      1 IPV         0.0319
     12 C15        10.3170  -30.8620   15.5040 C.ar      1 IPV        -0.0311
     13 C16        10.2990  -31.6530   14.3680 C.ar      1 IPV         0.0676
     14 C19         9.6060  -30.3150   18.6660 C.3       1 IPV         0.0500
     15 C20        10.0140  -29.1290   19.5140 C.3       1 IPV         0.0673
     16 C21         8.5670  -27.6930   18.3280 C.3       1 IPV         0.0673
     17 C22         8.1140  -28.8220   17.4280 C.3       1 IPV         0.0500
     18 O1         12.8320  -32.2540   14.2980 O.2       1 IPV        -0.1700
     19 S          11.7760  -31.8500   13.4140 S.o2      1 IPV        -0.0111
     20 O          11.4800  -32.6930   12.2920 O.2       1 IPV        -0.1700
     21 C18        12.1330  -30.2410   12.8230 C.3       1 IPV         0.0591
     22 N4          9.1620  -29.8450   17.3520 N.pl3     1 IPV        -0.3067
     23 O2          8.9570  -28.1670   19.6250 O.3       1 IPV        -0.3759
     24 C17         9.1390  -32.3140   13.9970 C.ar      1 IPV        -0.0268
     25 N3          6.8560  -32.9750   14.4870 N.pl3     1 IPV        -0.2474
     26 N1          4.8130  -34.0200   14.3990 N.ar      1 IPV        -0.2691
     27 N2          5.4240  -32.6640   16.2770 N.ar      1 IPV        -0.2349
     28 N           3.9920  -32.2360   18.0370 N.pl3     1 IPV        -0.2493
     29 C6          2.8420  -32.5450   18.8960 C.ar      1 IPV         0.0623
     30 C           3.9500  -34.7080   19.7020 C.3       1 IPV        -0.0365
     31 C5          1.7860  -31.6330   18.9690 C.ar      1 IPV        -0.0408
     32 C4          0.6980  -31.8520   19.8100 C.ar      1 IPV        -0.0341
     33 C23        -0.3480  -30.7900   20.0030 C.3       1 IPV         0.0727
     34 O3          0.1560  -29.6470   20.6770 O.3       1 IPV        -0.3837
     35 H1          1.6157  -34.8663   21.0254 H         1 IPV         0.0508
     36 H2         -0.1924  -33.2306   21.1793 H         1 IPV         0.0445
     37 H3          5.7044  -31.0341   17.7916 H         1 IPV         0.0535
     38 H4          5.3035  -31.4584   19.4904 H         1 IPV         0.0535
     39 H5          4.3206  -30.2369   18.6138 H         1 IPV         0.0535
     40 H6          2.2769  -33.8444   16.6287 H         1 IPV         0.0583
     41 H7          2.8909  -34.8309   14.4508 H         1 IPV         0.0848
     42 H8          7.1241  -31.3363   16.5549 H         1 IPV         0.0427
     43 H9         11.2299  -30.3512   15.7880 H         1 IPV         0.0441
     44 H10         8.7838  -30.8536   19.1599 H         1 IPV         0.0536
     45 H11        10.4652  -30.9907   18.5427 H         1 IPV         0.0536
     46 H12        10.8886  -28.6459   19.0538 H         1 IPV         0.0579
     47 H13        10.2790  -29.4849   20.5205 H         1 IPV         0.0579
     48 H14         7.7398  -26.9774   18.4448 H         1 IPV         0.0579
     49 H15         9.4254  -27.1882   17.8608 H         1 IPV         0.0579
     50 H16         7.9136  -28.4285   16.4205 H         1 IPV         0.0536
     51 H17         7.1957  -29.2691   17.8364 H         1 IPV         0.0536
     52 H18        13.0473  -30.2693   12.2121 H         1 IPV         0.0468
     53 H19        12.2825  -29.5620   13.6754 H         1 IPV         0.0468
     54 H20        11.2936  -29.8808   12.2101 H         1 IPV         0.0468
     55 H21         9.1167  -32.9088   13.0910 H         1 IPV         0.0448
     56 H22         6.9492  -33.4605   13.5834 H         1 IPV         0.2174
     57 H23         3.6880  -35.5468   20.3637 H         1 IPV         0.0356
     58 H24         4.8506  -34.2060   20.0854 H         1 IPV         0.0356
     59 H25         4.1454  -35.0879   18.6883 H         1 IPV         0.0356
     60 H26         1.8143  -30.7374   18.3590 H         1 IPV         0.0455
     61 H27        -1.1744  -31.2120   20.5937 H         1 IPV         0.0707
     62 H28        -0.7231  -30.4808   19.0163 H         1 IPV         0.0707
     63 H29        -0.5388  -29.0066   20.7751 H         1 IPV         0.2124
@<TRIPOS>BOND
     1    1    2 ar 
     2   29    1 ar 
     3    1   30 1  
     4    2    3 ar 
     5    3   32 ar 
     6   28    4 1  
     7    5    6 ar 
     8    5   27 ar 
     9   28    5 1  
    10    6    7 ar 
    11    7   26 ar 
    12    8   25 1  
    13    8   26 ar 
    14   27    8 ar 
    15    9   10 ar 
    16    9   24 ar 
    17   25    9 1  
    18   10   11 ar 
    19   11   12 ar 
    20   11   22 1  
    21   13   12 ar 
    22   13   19 1  
    23   24   13 ar 
    24   14   15 1  
    25   22   14 1  
    26   15   23 1  
    27   17   16 1  
    28   16   23 1  
    29   22   17 1  
    30   19   18 2  
    31   19   20 2  
    32   19   21 1  
    33   28   29 1  
    34   29   31 ar 
    35   31   32 ar 
    36   32   33 1  
    37   33   34 1  
    38    2   35 1  
    39    3   36 1  
    40    4   37 1  
    41    4   38 1  
    42    4   39 1  
    43    6   40 1  
    44    7   41 1  
    45   10   42 1  
    46   12   43 1  
    47   14   44 1  
    48   14   45 1  
    49   15   46 1  
    50   15   47 1  
    51   16   48 1  
    52   16   49 1  
    53   17   50 1  
    54   17   51 1  
    55   21   52 1  
    56   21   53 1  
    57   21   54 1  
    58   24   55 1  
    59   25   56 1  
    60   30   57 1  
    61   30   58 1  
    62   30   59 1  
    63   31   60 1  
    64   33   61 1  
    65   33   62 1  
    66   34   63 1  
@<TRIPOS>SUBSTRUCTURE
     1 IPV         1

