### 
### Created by X-TOOL on Mon Sep 10 21:13:28 2018
### 

@<TRIPOS>MOLECULE
5kbr_ligand
   50    54     1     0     0
SMALL
GAST_HUCK


@<TRIPOS>ATOM
      1 C1          1.7770  -33.5120   22.1940 C.ar      1 IPW        -0.0423
      2 C2          0.6210  -32.8010   21.9350 C.ar      1 IPW         0.0451
      3 C3          0.5220  -31.9700   20.8360 C.ar      1 IPW        -0.0423
      4 C7          4.0620  -33.2140   18.1650 C.2       1 IPW         0.0417
      5 C8          3.1140  -34.1140   17.7350 C.2       1 IPW         0.0533
      6 C9          4.7300  -34.1850   16.2040 C.ar      1 IPW         0.1380
      7 C10         5.1230  -33.2590   17.1850 C.ar      1 IPW         0.0127
      8 C11         6.3380  -32.6040   16.9790 C.ar      1 IPW        -0.0545
      9 C12         7.1080  -32.9210   15.8600 C.ar      1 IPW        -0.0235
     10 C13         6.6070  -33.8580   14.9630 C.ar      1 IPW        -0.0038
     11 C14         8.4090  -32.2580   15.5630 C.2       1 IPW         0.0001
     12 C15         9.3040  -32.4810   14.4490 C.2       1 IPW         0.0052
     13 C16         9.0240  -31.2840   16.3100 C.2       1 IPW         0.0630
     14 C19        11.8130  -28.1670   17.7940 C.3       1 IPW        -0.0306
     15 C20        13.6000  -29.5790   16.9270 C.3       1 IPW        -0.0306
     16 C21        12.6180  -30.6090   16.4000 C.3       1 IPW         0.0204
     17 CL         -0.7450  -32.9720   23.0040 Cl        1 IPW        -0.0665
     18 C4          1.6120  -31.8300   19.9960 C.ar      1 IPW        -0.0438
     19 C5          2.7960  -32.5220   20.2430 C.ar      1 IPW         0.0273
     20 C           2.8690  -33.3530   21.3590 C.ar      1 IPW        -0.0438
     21 C6          3.9720  -32.3430   19.3480 C.2       1 IPW         0.1354
     22 O           4.7950  -31.4660   19.6010 O.2       1 IPW        -0.3868
     23 N1          5.4340  -34.4890   15.1020 N.ar      1 IPW        -0.2878
     24 N           3.5180  -34.6990   16.5640 N.pl3     1 IPW        -0.2568
     25 N3         10.1910  -30.9910   15.7140 N.pl3     1 IPW        -0.2002
     26 N2         10.3730  -31.7170   14.5800 N.2       1 IPW        -0.2137
     27 C17        11.2410  -29.9740   16.1770 C.3       1 IPW         0.0924
     28 N4         13.0930  -28.8430   18.1010 N.4       1 IPW         0.2271
     29 C18        10.7640  -29.1900   17.4020 C.3       1 IPW         0.0204
     30 H1          1.8280  -34.1863   23.0412 H         1 IPW         0.0634
     31 H2         -0.3985  -31.4342   20.6344 H         1 IPW         0.0634
     32 H3          2.1792  -34.3297   18.2503 H         1 IPW         0.1097
     33 H4          6.6807  -31.8546   17.6833 H         1 IPW         0.0616
     34 H5          7.2070  -34.0938   14.0915 H         1 IPW         0.0720
     35 H6          9.1238  -33.1731   13.6278 H         1 IPW         0.0671
     36 H7          8.6356  -30.8310   17.2210 H         1 IPW         0.1026
     37 H8         11.9636  -27.4633   16.9621 H         1 IPW         0.0815
     38 H9         11.4701  -27.6165   18.6824 H         1 IPW         0.0815
     39 H10        13.8126  -28.8560   16.1257 H         1 IPW         0.0815
     40 H11        14.5290  -30.0946   17.2116 H         1 IPW         0.0815
     41 H12        12.5253  -31.4271   17.1295 H         1 IPW         0.0349
     42 H13        12.9907  -31.0092   15.4456 H         1 IPW         0.0349
     43 H14         1.5444  -31.1743   19.1355 H         1 IPW         0.0668
     44 H15         3.7909  -33.8805   21.5754 H         1 IPW         0.0668
     45 H16         2.9916  -35.4122   16.0395 H         1 IPW         0.2352
     46 H17        11.3586  -29.2468   15.3601 H         1 IPW         0.0683
     47 H18        12.9493  -29.4915   18.8592 H         1 IPW         0.2013
     48 H19        13.7732  -28.1513   18.3748 H         1 IPW         0.2013
     49 H20         9.8222  -28.6747   17.1624 H         1 IPW         0.0349
     50 H21        10.5994  -29.8843   18.2392 H         1 IPW         0.0349
@<TRIPOS>BOND
     1    1    2 ar 
     2   20    1 ar 
     3    3    2 ar 
     4    2   17 1  
     5   18    3 ar 
     6    4    5 2  
     7    7    4 1  
     8    4   21 1  
     9   24    5 1  
    10    7    6 ar 
    11   23    6 ar 
    12    6   24 1  
    13    8    7 ar 
    14    9    8 ar 
    15    9   10 ar 
    16   11    9 1  
    17   10   23 ar 
    18   12   11 1  
    19   13   11 2  
    20   26   12 2  
    21   25   13 1  
    22   28   14 1  
    23   14   29 1  
    24   16   15 1  
    25   15   28 1  
    26   27   16 1  
    27   19   18 ar 
    28   19   20 ar 
    29   21   19 1  
    30   21   22 2  
    31   25   26 1  
    32   25   27 1  
    33   27   29 1  
    34    1   30 1  
    35    3   31 1  
    36    5   32 1  
    37    8   33 1  
    38   10   34 1  
    39   12   35 1  
    40   13   36 1  
    41   14   37 1  
    42   14   38 1  
    43   15   39 1  
    44   15   40 1  
    45   16   41 1  
    46   16   42 1  
    47   18   43 1  
    48   20   44 1  
    49   24   45 1  
    50   27   46 1  
    51   28   47 1  
    52   28   48 1  
    53   29   49 1  
    54   29   50 1  
@<TRIPOS>SUBSTRUCTURE
     1 IPW         1

