### 
### Created by X-TOOL on Mon Sep 10 21:13:27 2018
### 

@<TRIPOS>MOLECULE
5kby_ligand
   47    49     1     0     0
SMALL
GAST_HUCK


@<TRIPOS>ATOM
      1 C5         43.9770   32.3690   14.4610 C.2       1 6RL         0.0079
      2 C6         43.4400   33.6270   14.6290 C.2       1 6RL         0.1621
      3 C8         44.8530   35.4150   15.2340 C.3       1 6RL         0.0360
      4 C10        45.3460   35.8820   17.6450 C.3       1 6RL        -0.0060
      5 C17        40.3950   35.4590   13.9750 C.ar      1 6RL         0.0207
      6 C21        37.5950   35.6120   14.0260 C.ar      1 6RL        -0.0233
      7 C22        38.2350   34.7210   14.8600 C.ar      1 6RL        -0.0349
      8 C24        40.2440   33.6880   15.7460 C.1       1 6RL         0.0894
      9 C26        42.1290   33.3460   12.6710 C.2       1 6RL         0.3337
     10 C1         42.2630   31.2770   11.3230 C.3       1 6RL         0.0468
     11 N2         42.6540   32.1060   12.4810 N.am      1 6RL        -0.1815
     12 C3         43.5580   31.6020   13.3610 C.2       1 6RL         0.1613
     13 O4         44.0140   30.4860   13.1800 O.2       1 6RL        -0.4289
     14 N7         43.8330   34.4390   15.6660 N.pl3     1 6RL        -0.2673
     15 C9         44.9270   36.5340   16.3020 C.3       1 6RL        -0.0268
     16 C11        44.3000   34.8320   18.0420 C.3       1 6RL        -0.0030
     17 N13        42.9880   35.4890   18.2090 N.4       1 6RL         0.2222
     18 C14        44.2210   33.7610   16.9250 C.3       1 6RL         0.0782
     19 N15        42.4910   34.0930   13.7350 N.am      1 6RL        -0.1511
     20 C16        41.9100   35.4460   13.9150 C.3       1 6RL         0.1069
     21 C18        39.7370   36.3580   13.1610 C.ar      1 6RL        -0.0124
     22 C19        38.3540   36.4270   13.1930 C.ar      1 6RL         0.1363
     23 F20        37.7280   37.3080   12.3910 F         1 6RL        -0.1773
     24 C23        39.6440   34.6380   14.8470 C.ar      1 6RL         0.0953
     25 N25        40.7550   32.9460   16.4390 N.1       1 6RL        -0.3380
     26 O27        41.2960   33.8000   11.8860 O.2       1 6RL        -0.3821
     27 H1         44.7099   31.9781   15.1653 H         1 6RL         0.0003
     28 H2         44.5702   35.8450   14.2618 H         1 6RL         0.0529
     29 H3         45.8306   34.9187   15.1450 H         1 6RL         0.0529
     30 H4         45.4073   36.6542   18.4259 H         1 6RL         0.0321
     31 H5         46.3273   35.3987   17.5294 H         1 6RL         0.0321
     32 H6         36.5130   35.6769   14.0193 H         1 6RL         0.0574
     33 H7         37.6586   34.0864   15.5234 H         1 6RL         0.0690
     34 H8         41.5299   31.8236   10.7117 H         1 6RL         0.0538
     35 H9         41.8156   30.3373   11.6791 H         1 6RL         0.0538
     36 H10        43.1523   31.0527   10.7157 H         1 6RL         0.0538
     37 H11        43.9430   37.0136   16.4101 H         1 6RL         0.0287
     38 H12        45.6712   37.2871   16.0037 H         1 6RL         0.0287
     39 H13        44.5937   34.3552   18.9888 H         1 6RL         0.0870
     40 H14        42.2987   34.8014   18.4699 H         1 6RL         0.1997
     41 H15        42.7170   35.9238   17.3409 H         1 6RL         0.1997
     42 H16        43.0527   36.1902   18.9302 H         1 6RL         0.1997
     43 H17        45.2013   33.2775   16.8017 H         1 6RL         0.0586
     44 H18        43.4686   33.0028   17.1877 H         1 6RL         0.0586
     45 H19        42.2978   35.8677   14.8540 H         1 6RL         0.0799
     46 H20        42.2290   36.0753   13.0711 H         1 6RL         0.0799
     47 H21        40.2996   37.0071   12.4997 H         1 6RL         0.0567
@<TRIPOS>BOND
     1    2    1 2  
     2    1   12 1  
     3    2   14 1  
     4   19    2 1  
     5   14    3 1  
     6    3   15 1  
     7   15    4 1  
     8   16    4 1  
     9   20    5 1  
    10    5   21 ar 
    11    5   24 ar 
    12    7    6 ar 
    13    6   22 ar 
    14   24    7 ar 
    15   24    8 1  
    16    8   25 3  
    17    9   11 am 
    18   19    9 am 
    19    9   26 2  
    20   11   10 1  
    21   11   12 am 
    22   12   13 2  
    23   14   18 1  
    24   16   17 1  
    25   18   16 1  
    26   19   20 1  
    27   21   22 ar 
    28   22   23 1  
    29    1   27 1  
    30    3   28 1  
    31    3   29 1  
    32    4   30 1  
    33    4   31 1  
    34    6   32 1  
    35    7   33 1  
    36   10   34 1  
    37   10   35 1  
    38   10   36 1  
    39   15   37 1  
    40   15   38 1  
    41   16   39 1  
    42   17   40 1  
    43   17   41 1  
    44   17   42 1  
    45   18   43 1  
    46   18   44 1  
    47   20   45 1  
    48   20   46 1  
    49   21   47 1  
@<TRIPOS>SUBSTRUCTURE
     1 6RL         1

