### 
### Created by X-TOOL on Mon Sep 10 21:13:28 2018
### 

@<TRIPOS>MOLECULE
5kcb_ligand
   45    48     1     0     0
SMALL
GAST_HUCK


@<TRIPOS>ATOM
      1 C1        -12.2360   -0.5430   -0.1160 C.ar      1 ET         -0.0789
      2 C2        -11.3870   -0.1460    0.8960 C.ar      1 ET         -0.0582
      3 C3        -10.3260   -0.9540    1.2800 C.ar      1 ET          0.0225
      4 C4        -10.0740   -2.1750    0.6640 C.ar      1 ET         -0.0279
      5 N5        -10.6520   -3.8770   -1.0110 N.pl3     1 ET         -0.2864
      6 C6        -11.4610   -4.3130   -2.0080 C.3       1 ET          0.1019
      7 C7        -13.4470   -3.9140   -3.4710 C.ar      1 ET         -0.0409
      8 C8        -14.5120   -3.1180   -3.8620 C.ar      1 ET          0.0271
      9 C9        -14.7800   -1.8980   -3.2620 C.ar      1 ET         -0.0530
     10 C10       -13.9810   -1.4300   -2.2390 C.ar      1 ET         -0.0760
     11 C11       -12.6170   -3.4900   -2.4550 C.ar      1 ET         -0.0145
     12 C12       -12.9100   -2.1930   -1.8250 C.ar      1 ET         -0.0361
     13 C13       -12.0210   -1.7520   -0.7460 C.ar      1 ET         -0.0206
     14 C14       -10.8950   -2.6340   -0.3540 C.ar      1 ET          0.0395
     15 C15       -11.2460   -5.6220   -2.7000 C.ar      1 ET         -0.0075
     16 C16       -12.1730   -6.6430   -2.5410 C.ar      1 ET         -0.0562
     17 C17       -11.9890   -7.8600   -3.1720 C.ar      1 ET         -0.0681
     18 C18       -10.8630   -8.0800   -3.9620 C.ar      1 ET         -0.0685
     19 C19        -9.9250   -7.0670   -4.1270 C.ar      1 ET         -0.0681
     20 C20       -10.1290   -5.8340   -3.5000 C.ar      1 ET         -0.0562
     21 C21        -9.5150   -4.6960   -0.5510 C.3       1 ET          0.0287
     22 C22        -9.7690   -5.2710    0.8260 C.3       1 ET         -0.0449
     23 N23        -9.5160   -0.5320    2.2740 N.pl3     1 ET         -0.3397
     24 N24       -15.3130   -3.5440   -4.8510 N.pl3     1 ET         -0.3390
     25 H1        -13.0648    0.0890   -0.4139 H         1 ET          0.0537
     26 H2        -11.5495    0.8028    1.3944 H         1 ET          0.0412
     27 H3         -9.2280   -2.7731    0.9828 H         1 ET          0.0403
     28 H4        -10.8094   -3.8152   -2.7412 H         1 ET          0.0872
     29 H5        -13.2677   -4.8642   -3.9610 H         1 ET          0.0452
     30 H6        -15.6238   -1.3068   -3.5989 H         1 ET          0.0460
     31 H7        -14.1922   -0.4768   -1.7680 H         1 ET          0.0544
     32 H8        -13.0464   -6.4855   -1.9185 H         1 ET          0.0561
     33 H9        -12.7249   -8.6467   -3.0511 H         1 ET          0.0600
     34 H10       -10.7184   -9.0386   -4.4470 H         1 ET          0.0561
     35 H11        -9.0436   -7.2316   -4.7362 H         1 ET          0.0600
     36 H12        -9.4091   -5.0356   -3.6391 H         1 ET          0.0561
     37 H13        -8.6128   -4.0678   -0.5155 H         1 ET          0.0516
     38 H14        -9.3589   -5.5221   -1.2604 H         1 ET          0.0516
     39 H15        -8.9033   -5.8743    1.1368 H         1 ET          0.0249
     40 H16       -10.6672   -5.9054    0.7985 H         1 ET          0.0249
     41 H17        -9.9210   -4.4511    1.5434 H         1 ET          0.0249
     42 H18        -9.6951    0.3710    2.7359 H         1 ET          0.1719
     43 H19        -8.7189   -1.1130    2.5705 H         1 ET          0.1719
     44 H20       -15.1296   -4.4482   -5.3089 H         1 ET          0.1716
     45 H21       -16.1111   -2.9668   -5.1521 H         1 ET          0.1716
@<TRIPOS>BOND
     1    2    1 ar 
     2    1   13 ar 
     3    3    2 ar 
     4    4    3 ar 
     5    3   23 1  
     6   14    4 ar 
     7    6    5 1  
     8    5   14 1  
     9    5   21 1  
    10   11    6 1  
    11    6   15 1  
    12    7    8 ar 
    13    7   11 ar 
    14    8    9 ar 
    15    8   24 1  
    16    9   10 ar 
    17   10   12 ar 
    18   11   12 ar 
    19   12   13 1  
    20   13   14 ar 
    21   15   16 ar 
    22   15   20 ar 
    23   16   17 ar 
    24   17   18 ar 
    25   18   19 ar 
    26   19   20 ar 
    27   21   22 1  
    28    1   25 1  
    29    2   26 1  
    30    4   27 1  
    31    6   28 1  
    32    7   29 1  
    33    9   30 1  
    34   10   31 1  
    35   16   32 1  
    36   17   33 1  
    37   18   34 1  
    38   19   35 1  
    39   20   36 1  
    40   21   37 1  
    41   21   38 1  
    42   22   39 1  
    43   22   40 1  
    44   22   41 1  
    45   23   42 1  
    46   23   43 1  
    47   24   44 1  
    48   24   45 1  
@<TRIPOS>SUBSTRUCTURE
     1 ET          1

