### 
### Created by X-TOOL on Mon Sep 10 21:13:29 2018
### 

@<TRIPOS>MOLECULE
5kcv_ligand
   58    63     1     0     0
SMALL
GAST_HUCK


@<TRIPOS>ATOM
      1 C5        -11.8930    0.2980  -16.4550 C.ar      1 6S1        -0.0158
      2 C8         -9.1840   -0.5250  -16.6760 C.ar      1 6S1         0.1302
      3 C3        -14.3570    1.4180  -17.9730 C.3       1 6S1        -0.0606
      4 C6        -11.5000   -0.9850  -16.1640 C.ar      1 6S1        -0.0395
      5 C1        -13.2720    0.6540  -16.2710 C.3       1 6S1        -0.0277
      6 C17        -6.1760   -1.6000  -17.9510 C.ar      1 6S1         0.0656
      7 C14        -7.9890   -2.9180  -12.1900 C.ar      1 6S1         0.0004
      8 C9         -9.5550    0.7580  -17.0100 C.ar      1 6S1         0.0032
      9 C4        -14.2180    0.0510  -17.3030 C.3       1 6S1        -0.0369
     10 C13        -7.2180   -3.5430  -14.3360 C.ar      1 6S1         0.1312
     11 C7        -10.1960   -1.3870  -16.2860 C.ar      1 6S1         0.0032
     12 C2        -13.7510    1.9980  -16.7640 C.3       1 6S1        -0.0369
     13 C18        -7.3110   -0.9210  -18.0130 C.ar      1 6S1         0.1794
     14 N1        -13.6860    0.4550  -14.8870 N.4       1 6S1         0.1659
     15 C10       -10.8810    1.1590  -16.8810 C.ar      1 6S1        -0.0395
     16 N2         -7.9370   -1.0300  -16.8440 N.pl3     1 6S1        -0.1563
     17 N6         -7.6680   -0.2610  -19.1180 N.ar      1 6S1        -0.2722
     18 C21        -6.8690   -0.2140  -20.1920 C.ar      1 6S1         0.0391
     19 C22        -7.2740    0.5280  -21.2990 C.ar      1 6S1        -0.0058
     20 C23        -8.0920    1.6460  -21.0840 C.ar      1 6S1        -0.0519
     21 C24        -8.5130    2.4170  -22.1580 C.ar      1 6S1        -0.0599
     22 C25        -8.1070    2.1130  -23.4600 C.ar      1 6S1        -0.0606
     23 C26        -7.2890    1.0030  -23.6640 C.ar      1 6S1        -0.0599
     24 C27        -6.8670    0.2030  -22.6010 C.ar      1 6S1        -0.0519
     25 C20        -5.6510   -0.9070  -20.1540 C.ar      1 6S1        -0.0400
     26 C19        -5.3290   -1.6020  -18.9920 C.ar      1 6S1        -0.0398
     27 N5         -6.1080   -2.1820  -16.7480 N.2       1 6S1        -0.2915
     28 C11        -7.1900   -1.8380  -16.0620 C.2       1 6S1         0.1739
     29 C12        -7.4430   -2.2410  -14.8010 C.ar      1 6S1         0.0876
     30 C16        -7.9360   -1.3000  -13.9110 C.ar      1 6S1        -0.0349
     31 C15        -8.2000   -1.6030  -12.5930 C.ar      1 6S1        -0.0426
     32 N4         -7.4980   -3.8950  -13.0830 N.ar      1 6S1        -0.2780
     33 N3         -6.7500   -4.4500  -15.1850 N.pl3     1 6S1        -0.3164
     34 H1        -15.3937    1.7328  -18.1631 H         1 6S1         0.0251
     35 H2        -13.7620    1.5426  -18.8897 H         1 6S1         0.0251
     36 H3        -12.2424   -1.7000  -15.8283 H         1 6S1         0.0826
     37 H4         -8.2068   -3.1990  -11.1659 H         1 6S1         0.0815
     38 H5         -8.8118    1.4579  -17.3746 H         1 6S1         0.0672
     39 H6        -13.7563   -0.7171  -17.9409 H         1 6S1         0.0205
     40 H7        -15.1552   -0.3390  -16.8794 H         1 6S1         0.0205
     41 H8         -9.9465   -2.4193  -16.0690 H         1 6S1         0.0672
     42 H9        -14.4810    2.4757  -16.0940 H         1 6S1         0.0205
     43 H10       -12.9340    2.7027  -16.9783 H         1 6S1         0.0205
     44 H11       -13.3626   -0.4439  -14.5655 H         1 6S1         0.1949
     45 H12       -14.6917    0.4908  -14.8286 H         1 6S1         0.1949
     46 H13       -13.2899    1.1805  -14.3101 H         1 6S1         0.1949
     47 H14       -11.1389    2.1840  -17.1217 H         1 6S1         0.0826
     48 H15        -8.3961    1.9085  -20.0772 H         1 6S1         0.0634
     49 H16        -9.1649    3.2656  -21.9849 H         1 6S1         0.0621
     50 H17        -8.4220    2.7283  -24.2950 H         1 6S1         0.0627
     51 H18        -6.9734    0.7555  -24.6711 H         1 6S1         0.0621
     52 H19        -6.2331   -0.6580  -22.7795 H         1 6S1         0.0634
     53 H20        -4.9795   -0.9017  -21.0049 H         1 6S1         0.0626
     54 H21        -4.3932   -2.1454  -18.9277 H         1 6S1         0.0681
     55 H22        -8.1201   -0.2916  -14.2636 H         1 6S1         0.0745
     56 H23        -8.5566   -0.8495  -11.9001 H         1 6S1         0.0610
     57 H24        -6.5769   -5.4137  -14.8653 H         1 6S1         0.1805
     58 H25        -6.5600   -4.1900  -16.1634 H         1 6S1         0.1805
@<TRIPOS>BOND
     1    4    1 ar 
     2    1    5 1  
     3   15    1 ar 
     4    2    8 ar 
     5    2   11 ar 
     6   16    2 1  
     7    9    3 1  
     8   12    3 1  
     9   11    4 ar 
    10    5    9 1  
    11    5   12 1  
    12    5   14 1  
    13    6   13 ar 
    14    6   26 ar 
    15   27    6 1  
    16    7   31 ar 
    17   32    7 ar 
    18    8   15 ar 
    19   29   10 ar 
    20   10   32 ar 
    21   10   33 1  
    22   16   13 1  
    23   13   17 ar 
    24   28   16 1  
    25   17   18 ar 
    26   18   19 1  
    27   25   18 ar 
    28   19   20 ar 
    29   19   24 ar 
    30   20   21 ar 
    31   21   22 ar 
    32   23   22 ar 
    33   24   23 ar 
    34   26   25 ar 
    35   28   27 2  
    36   28   29 1  
    37   29   30 ar 
    38   30   31 ar 
    39    3   34 1  
    40    3   35 1  
    41    4   36 1  
    42    7   37 1  
    43    8   38 1  
    44    9   39 1  
    45    9   40 1  
    46   11   41 1  
    47   12   42 1  
    48   12   43 1  
    49   14   44 1  
    50   14   45 1  
    51   14   46 1  
    52   15   47 1  
    53   20   48 1  
    54   21   49 1  
    55   22   50 1  
    56   23   51 1  
    57   24   52 1  
    58   25   53 1  
    59   26   54 1  
    60   30   55 1  
    61   31   56 1  
    62   33   57 1  
    63   33   58 1  
@<TRIPOS>SUBSTRUCTURE
     1 6S1         1

