### 
### Created by X-TOOL on Mon Sep 10 21:13:32 2018
### 

@<TRIPOS>MOLECULE
5kcx_ligand
   50    53     1     0     0
SMALL
GAST_HUCK


@<TRIPOS>ATOM
      1 CAT        25.2540   42.0810   -6.5610 C.3       1 6S3         0.0678
      2 CAU        24.6070   42.4710   -7.8800 C.3       1 6S3        -0.0118
      3 NAV        24.0040   43.8080   -7.7960 N.4       1 6S3         0.2359
      4 CAY        23.4010   44.1570   -9.0910 C.3       1 6S3        -0.0430
      5 CAW        22.9670   43.8140   -6.7550 C.3       1 6S3        -0.0118
      6 CAX        23.5570   43.4710   -5.3970 C.3       1 6S3         0.0678
      7 NAS        24.2870   42.1840   -5.4450 N.pl3     1 6S3        -0.2967
      8 CAP        24.0900   41.2000   -4.5570 C.ar      1 6S3         0.0443
      9 CAO        23.6850   41.5020   -3.2620 C.ar      1 6S3        -0.0407
     10 CAN        23.4810   40.4810   -2.3410 C.ar      1 6S3        -0.0604
     11 CAQ        24.2900   39.8760   -4.9310 C.ar      1 6S3        -0.0407
     12 CAR        24.0850   38.8550   -4.0110 C.ar      1 6S3        -0.0604
     13 CAM        23.6810   39.1580   -2.7160 C.ar      1 6S3        -0.0024
     14 CAH        23.4630   38.0710   -1.7350 C.2       1 6S3         0.0655
     15 CAI        23.7460   38.1450   -0.4410 C.2       1 6S3        -0.0477
     16 CAE        23.4080   36.9730    0.0930 C.ar      1 6S3         0.0164
     17 CAD        23.4850   36.5230    1.3430 C.ar      1 6S3         0.0503
     18 CLAK       24.1130   37.5380    2.5880 Cl        1 6S3        -0.0648
     19 CAA        23.0580   35.2370    1.6440 C.ar      1 6S3        -0.0199
     20 CAB        22.5580   34.4490    0.6180 C.ar      1 6S3         0.1029
     21 CAJ        22.0860   33.0530    0.8970 C.2       1 6S3         0.2128
     22 OBA        21.9460   32.6510    2.0510 O.2       1 6S3        -0.3828
     23 NAZ        21.8410   32.3160   -0.1820 N.am      1 6S3        -0.2994
     24 NAC        22.5010   34.9450   -0.6250 N.ar      1 6S3        -0.2667
     25 CAF        22.9220   36.1940   -0.8800 C.ar      1 6S3         0.1414
     26 NAG        22.9570   36.8790   -2.0200 N.pl3     1 6S3        -0.2487
     27 CAL        22.5150   36.4030   -3.3500 C.3       1 6S3         0.0421
     28 H1         26.1030   42.7522   -6.3644 H         1 6S3         0.0569
     29 H2         25.6146   41.0441   -6.6299 H         1 6S3         0.0569
     30 H3         23.8245   41.7385   -8.1272 H         1 6S3         0.0834
     31 H4         25.3724   42.4707   -8.6700 H         1 6S3         0.0834
     32 H5         24.7158   44.4831   -7.5644 H         1 6S3         0.2032
     33 H6         22.9497   45.1581   -9.0274 H         1 6S3         0.0778
     34 H7         22.6245   43.4202   -9.3444 H         1 6S3         0.0778
     35 H8         24.1777   44.1538   -9.8699 H         1 6S3         0.0778
     36 H9         22.1965   43.0716   -7.0104 H         1 6S3         0.0834
     37 H10        22.5112   44.8139   -6.7070 H         1 6S3         0.0834
     38 H11        22.7438   43.3959   -4.6601 H         1 6S3         0.0569
     39 H12        24.2526   44.2679   -5.0954 H         1 6S3         0.0569
     40 H13        23.5282   42.5341   -2.9702 H         1 6S3         0.0527
     41 H14        23.1661   40.7167   -1.3309 H         1 6S3         0.0605
     42 H15        24.6060   39.6401   -5.9407 H         1 6S3         0.0527
     43 H16        24.2401   37.8227   -4.3031 H         1 6S3         0.0605
     44 H17        24.1723   38.9991    0.0831 H         1 6S3         0.0314
     45 H18        23.1140   34.8573    2.6578 H         1 6S3         0.0644
     46 H19        21.5226   31.3734   -0.0819 H         1 6S3         0.1809
     47 H20        21.9751   32.7043   -1.0937 H         1 6S3         0.1809
     48 H21        22.6697   37.1983   -4.0941 H         1 6S3         0.0562
     49 H22        21.4474   36.1413   -3.3096 H         1 6S3         0.0562
     50 H23        23.0995   35.5157   -3.6348 H         1 6S3         0.0562
@<TRIPOS>BOND
     1    1    2 1  
     2    1    7 1  
     3    2    3 1  
     4    3    4 1  
     5    3    5 1  
     6    5    6 1  
     7    6    7 1  
     8    7    8 1  
     9    8    9 ar 
    10    8   11 ar 
    11    9   10 ar 
    12   10   13 ar 
    13   11   12 ar 
    14   12   13 ar 
    15   13   14 1  
    16   14   15 2  
    17   14   26 1  
    18   15   16 1  
    19   16   17 ar 
    20   16   25 ar 
    21   17   18 1  
    22   17   19 ar 
    23   19   20 ar 
    24   20   21 1  
    25   20   24 ar 
    26   21   22 2  
    27   21   23 am 
    28   24   25 ar 
    29   25   26 1  
    30   26   27 1  
    31    1   28 1  
    32    1   29 1  
    33    2   30 1  
    34    2   31 1  
    35    3   32 1  
    36    4   33 1  
    37    4   34 1  
    38    4   35 1  
    39    5   36 1  
    40    5   37 1  
    41    6   38 1  
    42    6   39 1  
    43    9   40 1  
    44   10   41 1  
    45   11   42 1  
    46   12   43 1  
    47   15   44 1  
    48   19   45 1  
    49   23   46 1  
    50   23   47 1  
    51   27   48 1  
    52   27   49 1  
    53   27   50 1  
@<TRIPOS>SUBSTRUCTURE
     1 6S3         1

