### 
### Created by X-TOOL on Mon Sep 10 21:13:29 2018
### 

@<TRIPOS>MOLECULE
5kde_ligand
   39    43     1     0     0
SMALL
GAST_HUCK


@<TRIPOS>ATOM
      1 C11        82.9930  -70.5390  118.7680 C.ar      1 6RT         0.1792
      2 C12        85.3080  -71.2300  117.5260 C.3       1 6RT         0.0566
      3 C13        85.6240  -71.1370  119.0570 C.3       1 6RT         0.0566
      4 C14        80.7090  -71.0860  118.7600 C.ar      1 6RT         0.1792
      5 N1         82.7060  -69.3130  119.2830 N.ar      1 6RT        -0.2529
      6 C16        78.5220  -72.2910  117.6860 C.3       1 6RT         0.0566
      7 C15        78.8700  -73.0710  118.9960 C.3       1 6RT         0.0566
      8 N3         81.9980  -71.4290  118.5060 N.ar      1 6RT        -0.2283
      9 N4         79.6430  -71.9620  118.5160 N.pl3     1 6RT        -0.2702
     10 N5         80.4350  -69.8670  119.2740 N.ar      1 6RT        -0.2529
     11 N2         84.3240  -70.8870  118.5100 N.pl3     1 6RT        -0.2702
     12 C          81.4170  -68.9700  119.5370 C.ar      1 6RT         0.1152
     13 C1         81.0790  -67.6240  120.1060 C.2       1 6RT         0.1119
     14 N          79.8880  -67.0190  120.2200 N.pl3     1 6RT        -0.2202
     15 C4         79.9250  -65.8120  120.7780 C.2       1 6RT         0.0457
     16 C3         81.2600  -65.5940  121.0630 C.2       1 6RT        -0.0629
     17 C2         81.9760  -66.7110  120.6500 C.2       1 6RT        -0.0547
     18 C5         78.7370  -67.5660  119.8070 C.ar      1 6RT         0.0966
     19 C10        78.2850  -67.4290  118.4860 C.ar      1 6RT        -0.0264
     20 C9         77.0950  -68.0050  118.0370 C.ar      1 6RT        -0.0655
     21 C8         76.3150  -68.7540  118.9130 C.ar      1 6RT        -0.0683
     22 C7         76.7340  -68.9140  120.2310 C.ar      1 6RT        -0.0655
     23 C6         77.9260  -68.3280  120.6630 C.ar      1 6RT        -0.0264
     24 H1         85.2757  -72.2065  117.0207 H         1 6RT         0.0552
     25 H2         85.6902  -70.4692  116.8296 H         1 6RT         0.0552
     26 H3         86.2319  -70.3099  119.4525 H         1 6RT         0.0552
     27 H4         85.8174  -72.0472  119.6436 H         1 6RT         0.0552
     28 H5         77.6437  -71.6300  117.6466 H         1 6RT         0.0552
     29 H6         78.6743  -72.7574  116.7015 H         1 6RT         0.0552
     30 H7         79.2711  -74.0941  118.9469 H         1 6RT         0.0552
     31 H8         78.2405  -72.9666  119.8920 H         1 6RT         0.0552
     32 H9         79.0874  -65.1426  120.9685 H         1 6RT         0.0958
     33 H10        81.6775  -64.7029  121.5295 H         1 6RT         0.0354
     34 H11        83.0529  -66.8478  120.7372 H         1 6RT         0.0441
     35 H12        78.8822  -66.8542  117.7874 H         1 6RT         0.0588
     36 H13        76.7795  -67.8692  117.0089 H         1 6RT         0.0601
     37 H14        75.3912  -69.2079  118.5728 H         1 6RT         0.0561
     38 H15        76.1343  -69.4942  120.9229 H         1 6RT         0.0601
     39 H16        78.2350  -68.4661  121.6928 H         1 6RT         0.0588
@<TRIPOS>BOND
     1    1    5 ar 
     2    8    1 ar 
     3    1   11 1  
     4    3    2 1  
     5   11    2 1  
     6   11    3 1  
     7    4    8 ar 
     8    9    4 1  
     9    4   10 ar 
    10    5   12 ar 
    11    6    7 1  
    12    6    9 1  
    13    7    9 1  
    14   10   12 ar 
    15   12   13 1  
    16   13   14 1  
    17   13   17 2  
    18   14   15 1  
    19   14   18 1  
    20   15   16 2  
    21   16   17 1  
    22   18   19 ar 
    23   18   23 ar 
    24   19   20 ar 
    25   20   21 ar 
    26   21   22 ar 
    27   22   23 ar 
    28    2   24 1  
    29    2   25 1  
    30    3   26 1  
    31    3   27 1  
    32    6   28 1  
    33    6   29 1  
    34    7   30 1  
    35    7   31 1  
    36   15   32 1  
    37   16   33 1  
    38   17   34 1  
    39   19   35 1  
    40   20   36 1  
    41   21   37 1  
    42   22   38 1  
    43   23   39 1  
@<TRIPOS>SUBSTRUCTURE
     1 6RT         1

