### 
### Created by X-TOOL on Mon Sep 10 21:13:28 2018
### 

@<TRIPOS>MOLECULE
5kdf_ligand
   43    45     1     0     0
SMALL
GAST_HUCK


@<TRIPOS>ATOM
      1 C1         34.6290   15.9930   25.0610 C.3       1 6RU         0.0239
      2 C2         32.3080   15.3460   25.8060 C.ar      1 6RU         0.1785
      3 C3         30.5760   14.9200   24.1980 C.ar      1 6RU         0.1152
      4 C4         30.0580   14.8470   22.7840 C.2       1 6RU         0.1119
      5 C5         28.9110   14.1850   22.3460 C.2       1 6RU        -0.0547
      6 C6         28.7980   14.3660   20.9710 C.2       1 6RU        -0.0629
      7 C7         29.8710   15.1360   20.5570 C.2       1 6RU         0.0457
      8 C8         31.6920   16.1060   21.7120 C.ar      1 6RU         0.0966
      9 C9         32.9430   15.5740   21.3600 C.ar      1 6RU        -0.0264
     10 C10        34.1120   16.3310   21.4470 C.ar      1 6RU        -0.0655
     11 C11        34.0670   17.6510   21.9070 C.ar      1 6RU        -0.0683
     12 C12        32.8460   18.2050   22.2800 C.ar      1 6RU        -0.0655
     13 C16        29.7230   13.8850   28.8180 C.3       1 6RU         0.0239
     14 N4         29.2540   14.2780   27.4930 N.pl3     1 6RU        -0.2803
     15 C15        27.8220   14.2650   27.1940 C.3       1 6RU         0.0239
     16 C14        30.1600   14.6410   26.4900 C.ar      1 6RU         0.1785
     17 N5         31.4320   15.0160   26.7920 N.ar      1 6RU        -0.2284
     18 N          33.6400   15.7470   26.1120 N.pl3     1 6RU        -0.2803
     19 C          34.1010   15.9520   27.4870 C.3       1 6RU         0.0239
     20 N3         29.7400   14.5940   25.2010 N.ar      1 6RU        -0.2529
     21 N1         31.8550   15.2910   24.5160 N.ar      1 6RU        -0.2529
     22 N2         30.5650   15.3830   21.6670 N.pl3     1 6RU        -0.2202
     23 C13        31.6860   17.4330   22.1850 C.ar      1 6RU        -0.0264
     24 H1         35.5841   16.2902   25.5186 H         1 6RU         0.0495
     25 H2         34.2717   16.7984   24.4025 H         1 6RU         0.0495
     26 H3         34.7744   15.0753   24.4722 H         1 6RU         0.0495
     27 H4         28.2213   13.6223   22.9734 H         1 6RU         0.0441
     28 H5         28.0069   13.9723   20.3345 H         1 6RU         0.0354
     29 H6         30.0983   15.4675   19.5449 H         1 6RU         0.0958
     30 H7         33.0021   14.5491   21.0118 H         1 6RU         0.0588
     31 H8         35.0603   15.8935   21.1564 H         1 6RU         0.0601
     32 H9         34.9760   18.2380   21.9725 H         1 6RU         0.0561
     33 H10        32.7958   19.2260   22.6408 H         1 6RU         0.0601
     34 H11        28.8601   13.6397   29.4545 H         1 6RU         0.0495
     35 H12        30.2867   14.7152   29.2686 H         1 6RU         0.0495
     36 H13        30.3756   13.0039   28.7296 H         1 6RU         0.0495
     37 H14        27.6614   14.5890   26.1551 H         1 6RU         0.0495
     38 H15        27.2986   14.9503   27.8769 H         1 6RU         0.0495
     39 H16        27.4293   13.2459   27.3251 H         1 6RU         0.0495
     40 H17        33.2782   15.7388   28.1852 H         1 6RU         0.0495
     41 H18        34.4275   16.9949   27.6126 H         1 6RU         0.0495
     42 H19        34.9435   15.2763   27.6959 H         1 6RU         0.0495
     43 H20        30.7426   17.8728   22.4876 H         1 6RU         0.0588
@<TRIPOS>BOND
     1   18    1 1  
     2   17    2 ar 
     3    2   18 1  
     4    2   21 ar 
     5    3    4 1  
     6    3   20 ar 
     7   21    3 ar 
     8    4    5 2  
     9    4   22 1  
    10    5    6 1  
    11    7    6 2  
    12   22    7 1  
    13    8    9 ar 
    14   22    8 1  
    15    8   23 ar 
    16    9   10 ar 
    17   10   11 ar 
    18   12   11 ar 
    19   23   12 ar 
    20   14   13 1  
    21   14   15 1  
    22   16   14 1  
    23   16   17 ar 
    24   16   20 ar 
    25   18   19 1  
    26    1   24 1  
    27    1   25 1  
    28    1   26 1  
    29    5   27 1  
    30    6   28 1  
    31    7   29 1  
    32    9   30 1  
    33   10   31 1  
    34   11   32 1  
    35   12   33 1  
    36   13   34 1  
    37   13   35 1  
    38   13   36 1  
    39   15   37 1  
    40   15   38 1  
    41   15   39 1  
    42   19   40 1  
    43   19   41 1  
    44   19   42 1  
    45   23   43 1  
@<TRIPOS>SUBSTRUCTURE
     1 6RU         1

