### 
### Created by X-TOOL on Mon Sep 10 21:13:30 2018
### 

@<TRIPOS>MOLECULE
5kdr_ligand
   68    69     1     0     0
SMALL
GAST_HUCK


@<TRIPOS>ATOM
      1 CAI         8.9190   -8.9130   19.8790 C.3       1 YT5        -0.0403
      2 CAD         8.8970   -7.6020   20.6530 C.3       1 YT5         0.0867
      3 CAC         7.6520   -7.0050   20.5590 C.2       1 YT5         0.2122
      4 OAG         6.6060   -7.5870   20.8610 O.2       1 YT5        -0.3856
      5 NAB         7.7400   -5.7080   20.2580 N.am      1 YT5        -0.1969
      6 CAA         9.0190   -5.3860   20.0840 C.2       1 YT5         0.2285
      7 OAF         9.3630   -4.2510   19.7450 O.2       1 YT5        -0.3822
      8 CAE         9.8450   -6.5390   20.0760 C.3       1 YT5         0.1481
      9 C          11.1320   -6.4030   20.6730 C.2       1 YT5         0.1555
     10 O          11.7700   -5.3590   20.5770 O.2       1 YT5        -0.3852
     11 CA         11.7880   -7.6430   21.3120 C.3       1 YT5         0.1199
     12 CB         12.4710   -7.2620   22.6270 C.3       1 YT5        -0.0072
     13 CG2        12.7420   -8.5470   23.4180 C.3       1 YT5        -0.0584
     14 CG1        11.6000   -6.3270   23.4730 C.3       1 YT5        -0.0584
     15 N          12.8320   -8.2220   20.4430 N.am      1 YT5        -0.2661
     16 CAQ        12.7710   -9.4820   19.9710 C.2       1 YT5         0.1825
     17 OAS        11.8360  -10.2510   20.1780 O.2       1 YT5        -0.3967
     18 CAR        13.9720   -9.9530   19.1300 C.3       1 YT5         0.0702
     19 CAT        14.8080  -10.9680   19.9410 C.3       1 YT5         0.0922
     20 CBB        15.7380  -11.6440   19.1300 C.ar      1 YT5        -0.0157
     21 CBC        15.6440  -13.0240   18.9260 C.ar      1 YT5        -0.0580
     22 CBD        16.5780  -13.6770   18.1250 C.ar      1 YT5        -0.0685
     23 CBE        17.6180  -12.9630   17.5320 C.ar      1 YT5        -0.0687
     24 CBF        17.7260  -11.5890   17.7390 C.ar      1 YT5        -0.0685
     25 CBG        16.7910  -10.9370   18.5390 C.ar      1 YT5        -0.0580
     26 NAU        15.5770  -10.3120   21.0140 N.am      1 YT5        -0.2705
     27 CAV        15.8820  -11.0000   22.1270 C.2       1 YT5         0.1782
     28 OBH        15.5400  -12.1700   22.3220 O.2       1 YT5        -0.3969
     29 CAW        16.7380  -10.2570   23.1180 C.3       1 YT5         0.0374
     30 CAX        16.5070  -10.9270   24.4650 C.3       1 YT5        -0.0361
     31 CAY        17.7930  -10.6390   25.2200 C.3       1 YT5        -0.0512
     32 CAZ        17.5540  -11.2280   26.5950 C.3       1 YT5        -0.0558
     33 CBA        18.8220  -10.9240   27.4020 C.3       1 YT5        -0.0653
     34 H1          8.2212   -9.6250   20.3439 H         1 YT5         0.0260
     35 H2          9.9359   -9.3320   19.8963 H         1 YT5         0.0260
     36 H3          8.6157   -8.7292   18.8377 H         1 YT5         0.0260
     37 H4          9.1522   -7.8070   21.7032 H         1 YT5         0.0593
     38 H5          6.9675   -5.0783   20.1762 H         1 YT5         0.2258
     39 H6         10.0466   -6.8045   19.0278 H         1 YT5         0.0800
     40 H7         11.0097   -8.3969   21.5015 H         1 YT5         0.0795
     41 H8         13.4229   -6.7576   22.4044 H         1 YT5         0.0343
     42 H9         13.2338   -8.2952   24.3692 H         1 YT5         0.0235
     43 H10        13.3963   -9.2080   22.8307 H         1 YT5         0.0235
     44 H11        11.7904   -9.0597   23.6218 H         1 YT5         0.0235
     45 H12        11.4016   -5.4024   22.9110 H         1 YT5         0.0235
     46 H13        12.1255   -6.0822   24.4078 H         1 YT5         0.0235
     47 H14        10.6477   -6.8251   23.7073 H         1 YT5         0.0235
     48 H15        13.6172   -7.6549   20.1945 H         1 YT5         0.1883
     49 H16        14.5989   -9.0872   18.8704 H         1 YT5         0.0548
     50 H17        13.6084  -10.4317   18.2088 H         1 YT5         0.0548
     51 H18        14.1191  -11.7003   20.3873 H         1 YT5         0.0745
     52 H19        14.8431  -13.5866   19.3919 H         1 YT5         0.0557
     53 H20        16.4957  -14.7455   17.9620 H         1 YT5         0.0599
     54 H21        18.3425  -13.4762   16.9101 H         1 YT5         0.0559
     55 H22        18.5337  -11.0307   17.2796 H         1 YT5         0.0599
     56 H23        16.8800   -9.8696   18.7058 H         1 YT5         0.0557
     57 H24        15.8698   -9.3610   20.9141 H         1 YT5         0.1882
     58 H25        16.4395   -9.1992   23.1621 H         1 YT5         0.0502
     59 H26        17.7984  -10.3272   22.8341 H         1 YT5         0.0502
     60 H27        16.3534  -12.0097   24.3460 H         1 YT5         0.0290
     61 H28        15.6401  -10.4881   24.9805 H         1 YT5         0.0290
     62 H29        17.9734   -9.5559   25.2852 H         1 YT5         0.0267
     63 H30        18.6502  -11.1247   24.7308 H         1 YT5         0.0267
     64 H31        17.3952  -12.3142   26.5248 H         1 YT5         0.0263
     65 H32        16.6777  -10.7590   27.0663 H         1 YT5         0.0263
     66 H33        18.7146  -11.3278   28.4195 H         1 YT5         0.0230
     67 H34        18.9717   -9.8355   27.4535 H         1 YT5         0.0230
     68 H35        19.6892  -11.3907   26.9120 H         1 YT5         0.0230
@<TRIPOS>BOND
     1    1    2 1  
     2    2    3 1  
     3    2    8 1  
     4    3    4 2  
     5    3    5 am 
     6    5    6 am 
     7    6    7 2  
     8    6    8 1  
     9    8    9 1  
    10    9   10 2  
    11    9   11 1  
    12   11   12 1  
    13   11   15 1  
    14   12   13 1  
    15   12   14 1  
    16   15   16 am 
    17   16   17 2  
    18   16   18 1  
    19   18   19 1  
    20   19   20 1  
    21   19   26 1  
    22   20   21 ar 
    23   20   25 ar 
    24   21   22 ar 
    25   22   23 ar 
    26   23   24 ar 
    27   24   25 ar 
    28   26   27 am 
    29   27   28 2  
    30   27   29 1  
    31   29   30 1  
    32   30   31 1  
    33   31   32 1  
    34   32   33 1  
    35    1   34 1  
    36    1   35 1  
    37    1   36 1  
    38    2   37 1  
    39    5   38 1  
    40    8   39 1  
    41   11   40 1  
    42   12   41 1  
    43   13   42 1  
    44   13   43 1  
    45   13   44 1  
    46   14   45 1  
    47   14   46 1  
    48   14   47 1  
    49   15   48 1  
    50   18   49 1  
    51   18   50 1  
    52   19   51 1  
    53   21   52 1  
    54   22   53 1  
    55   23   54 1  
    56   24   55 1  
    57   25   56 1  
    58   26   57 1  
    59   29   58 1  
    60   29   59 1  
    61   30   60 1  
    62   30   61 1  
    63   31   62 1  
    64   31   63 1  
    65   32   64 1  
    66   32   65 1  
    67   33   66 1  
    68   33   67 1  
    69   33   68 1  
@<TRIPOS>SUBSTRUCTURE
     1 YT5         1

