### 
### Created by X-TOOL on Mon Sep 10 21:13:26 2018
### 

@<TRIPOS>MOLECULE
5ke0_ligand
   45    48     1     0     0
SMALL
GAST_HUCK


@<TRIPOS>ATOM
      1 O          50.0450   17.2430    9.0120 O.2       1 6S9        -0.3889
      2 C5         49.5720   16.1150    9.1480 C.2       1 6S9         0.2923
      3 N2         48.4810   15.8760    9.9140 N.am      1 6S9        -0.2560
      4 C6         47.8080   16.9220   10.6780 C.3       1 6S9         0.0655
      5 C7         46.6480   17.5940    9.9870 C.ar      1 6S9        -0.0212
      6 C12        46.2960   18.8940   10.3280 C.ar      1 6S9        -0.0584
      7 C11        45.2190   19.5190    9.7250 C.ar      1 6S9        -0.0685
      8 C10        44.4670   18.8490    8.7860 C.ar      1 6S9        -0.0687
      9 C9         44.8100   17.5600    8.4280 C.ar      1 6S9        -0.0685
     10 C8         45.8980   16.9390    9.0200 C.ar      1 6S9        -0.0584
     11 N1         50.1520   15.0010    8.5820 N.am      1 6S9        -0.2075
     12 C3         49.8590   13.6240    8.6010 C.ar      1 6S9         0.1282
     13 N          48.7630   13.2820    9.3050 N.ar      1 6S9        -0.2922
     14 C2         48.4520   11.9830    9.4020 C.ar      1 6S9        -0.0020
     15 C4         50.6720   12.6880    7.9510 C.ar      1 6S9         0.0079
     16 C          50.3160   11.3470    8.0880 C.ar      1 6S9         0.0938
     17 N4         50.9190   10.2070    7.6550 N.pl3     1 6S9        -0.2081
     18 N3         50.2390    9.0760    8.0560 N.2       1 6S9        -0.1924
     19 C13        49.2010    9.5030    8.7690 C.2       1 6S9         0.0731
     20 C1         49.1860   10.9460    8.8290 C.ar      1 6S9         0.0343
     21 C14        48.2300    8.5680    9.4060 C.ar      1 6S9         0.0025
     22 C18        47.8870    7.3700    8.7840 C.ar      1 6S9        -0.0275
     23 C17        46.8840    6.5710    9.3240 C.ar      1 6S9         0.0223
     24 C19        46.4140    5.3210    8.6440 C.3       1 6S9        -0.0163
     25 N5         46.2540    6.9190   10.4610 N.ar      1 6S9        -0.3020
     26 C16        46.5990    8.0680   11.0650 C.ar      1 6S9         0.0004
     27 C15        47.5700    8.9190   10.5770 C.ar      1 6S9        -0.0354
     28 H1         48.1214   14.9439    9.9581 H         1 6S9         0.1880
     29 H2         48.5517   17.6958   10.9193 H         1 6S9         0.0681
     30 H3         47.4320   16.4719   11.6086 H         1 6S9         0.0681
     31 H4         46.8727   19.4256   11.0763 H         1 6S9         0.0557
     32 H5         44.9665   20.5387    9.9924 H         1 6S9         0.0599
     33 H6         43.6098   19.3310    8.3299 H         1 6S9         0.0559
     34 H7         44.2265   17.0327    7.6819 H         1 6S9         0.0599
     35 H8         46.1663   15.9310    8.7249 H         1 6S9         0.0557
     36 H9         50.9611   15.2188    8.0362 H         1 6S9         0.2295
     37 H10        47.5653   11.7190    9.9670 H         1 6S9         0.0789
     38 H11        51.5356   12.9908    7.3699 H         1 6S9         0.0498
     39 H12        51.7823   10.1904    7.0934 H         1 6S9         0.2490
     40 H13        48.4005    7.0606    7.8809 H         1 6S9         0.0638
     41 H14        45.6208    4.8526    9.2452 H         1 6S9         0.0418
     42 H15        47.2564    4.6214    8.5396 H         1 6S9         0.0418
     43 H16        46.0197    5.5714    7.6481 H         1 6S9         0.0418
     44 H17        46.0892    8.3407   11.9819 H         1 6S9         0.0793
     45 H18        47.8120    9.8398   11.0954 H         1 6S9         0.0646
@<TRIPOS>BOND
     1    1    2 2  
     2    2    3 am 
     3    2   11 am 
     4    3    4 1  
     5    4    5 1  
     6    5    6 ar 
     7    5   10 ar 
     8    6    7 ar 
     9    7    8 ar 
    10    8    9 ar 
    11    9   10 ar 
    12   11   12 1  
    13   12   13 ar 
    14   12   15 ar 
    15   13   14 ar 
    16   14   20 ar 
    17   15   16 ar 
    18   16   17 1  
    19   16   20 ar 
    20   17   18 1  
    21   18   19 2  
    22   19   20 1  
    23   19   21 1  
    24   21   22 ar 
    25   21   27 ar 
    26   22   23 ar 
    27   23   24 1  
    28   23   25 ar 
    29   25   26 ar 
    30   26   27 ar 
    31    3   28 1  
    32    4   29 1  
    33    4   30 1  
    34    6   31 1  
    35    7   32 1  
    36    8   33 1  
    37    9   34 1  
    38   10   35 1  
    39   11   36 1  
    40   14   37 1  
    41   15   38 1  
    42   17   39 1  
    43   22   40 1  
    44   24   41 1  
    45   24   42 1  
    46   24   43 1  
    47   26   44 1  
    48   27   45 1  
@<TRIPOS>SUBSTRUCTURE
     1 6S9         1

