### 
### Created by X-TOOL on Mon Sep 10 21:13:32 2018
### 

@<TRIPOS>MOLECULE
5kej_ligand
   54    53     1     0     0
SMALL
GAST_HUCK


@<TRIPOS>ATOM
      1 N1        -33.2480    5.9580  -31.4900 N.4       1 GTX         0.2328
      2 CA1       -33.8940    5.2370  -32.5840 C.3       1 GTX         0.0304
      3 C1        -33.4200    5.8130  -33.8700 C.2       1 GTX         0.0846
      4 O11       -33.1330    5.0580  -34.7500 O.co2     1 GTX        -0.5643
      5 O12       -33.3070    7.0110  -34.0120 O.co2     1 GTX        -0.5643
      6 CB1       -35.4100    5.3200  -32.4610 C.3       1 GTX         0.0193
      7 CG1       -36.0600    3.9650  -32.6150 C.3       1 GTX         0.0441
      8 CD1       -37.5360    4.0140  -32.3590 C.2       1 GTX         0.1785
      9 OE1       -37.9440    4.4830  -31.3560 O.2       1 GTX        -0.3969
     10 N2        -38.3600    3.5640  -33.2770 N.am      1 GTX        -0.2648
     11 CA2       -39.7690    3.3870  -33.0240 C.3       1 GTX         0.1397
     12 C2        -40.0490    2.0110  -32.5580 C.2       1 GTX         0.2040
     13 O2        -41.1710    1.5730  -32.5850 O.2       1 GTX        -0.3944
     14 CB2       -40.6270    3.6230  -34.2570 C.3       1 GTX         0.0341
     15 SG2       -41.0760    5.2950  -34.6010 S.3       1 GTX        -0.1560
     16 C1S       -41.4500    5.9950  -33.0440 C.3       1 GTX        -0.0061
     17 C2S       -42.6200    6.9760  -33.1520 C.3       1 GTX        -0.0440
     18 C3S       -43.9650    6.2800  -32.9450 C.3       1 GTX        -0.0523
     19 C4S       -44.6300    5.8930  -34.2510 C.3       1 GTX        -0.0533
     20 C5S       -44.4590    4.4310  -34.6430 C.3       1 GTX        -0.0559
     21 C6S       -44.4530    3.4980  -33.4580 C.3       1 GTX        -0.0653
     22 N3        -39.0200    1.3150  -32.1560 N.am      1 GTX        -0.2722
     23 CA3       -39.1560    0.0250  -31.5930 C.3       1 GTX         0.0833
     24 C3        -39.3490    0.1990  -30.1200 C.2       1 GTX         0.0570
     25 O31       -39.1490   -0.7610  -29.3510 O.co2     1 GTX        -0.5669
     26 O32       -39.7130    1.3250  -29.7490 O.co2     1 GTX        -0.5669
     27 H1        -33.5585    5.5798  -30.6088 H         1 GTX         0.2010
     28 H2        -33.4918    6.9347  -31.5410 H         1 GTX         0.2010
     29 H3        -32.2479    5.8570  -31.5653 H         1 GTX         0.2010
     30 H4        -33.5994    4.1782  -32.5388 H         1 GTX         0.1026
     31 H5        -35.7946    5.9905  -33.2436 H         1 GTX         0.0363
     32 H6        -35.6653    5.7270  -31.4715 H         1 GTX         0.0363
     33 H7        -35.5993    3.2675  -31.9000 H         1 GTX         0.0505
     34 H8        -35.8899    3.6047  -33.6403 H         1 GTX         0.0505
     35 H9        -37.9988    3.3365  -34.1813 H         1 GTX         0.1883
     36 H10       -40.0675    4.1017  -32.2429 H         1 GTX         0.0808
     37 H11       -41.5559    3.0473  -34.1321 H         1 GTX         0.0424
     38 H12       -40.0729    3.2408  -35.1270 H         1 GTX         0.0424
     39 H13       -40.5654    6.5298  -32.6679 H         1 GTX         0.0376
     40 H14       -41.7180    5.1910  -32.3428 H         1 GTX         0.0376
     41 H15       -42.6075    7.4366  -34.1508 H         1 GTX         0.0273
     42 H16       -42.5017    7.7570  -32.3865 H         1 GTX         0.0273
     43 H17       -44.6334    6.9612  -32.3981 H         1 GTX         0.0266
     44 H18       -43.8023    5.3695  -32.3496 H         1 GTX         0.0266
     45 H19       -44.2018    6.5147  -35.0511 H         1 GTX         0.0265
     46 H20       -45.7066    6.1003  -34.1620 H         1 GTX         0.0265
     47 H21       -43.5050    4.3216  -35.1796 H         1 GTX         0.0263
     48 H22       -45.2883    4.1474  -35.3077 H         1 GTX         0.0263
     49 H23       -44.3267    2.4626  -33.8072 H         1 GTX         0.0230
     50 H24       -45.4055    3.5883  -32.9153 H         1 GTX         0.0230
     51 H25       -43.6223    3.7625  -32.7872 H         1 GTX         0.0230
     52 H26       -38.1050    1.7074  -32.2494 H         1 GTX         0.1873
     53 H27       -38.2494   -0.5672  -31.7862 H         1 GTX         0.0689
     54 H28       -40.0274   -0.4857  -32.0288 H         1 GTX         0.0689
@<TRIPOS>BOND
     1    1    2 1  
     2    2    3 1  
     3    2    6 1  
     4    3    4 ar 
     5    3    5 ar 
     6    6    7 1  
     7    7    8 1  
     8    8    9 2  
     9    8   10 am 
    10   10   11 1  
    11   11   12 1  
    12   11   14 1  
    13   12   13 2  
    14   12   22 am 
    15   14   15 1  
    16   15   16 1  
    17   16   17 1  
    18   17   18 1  
    19   18   19 1  
    20   19   20 1  
    21   20   21 1  
    22   22   23 1  
    23   23   24 1  
    24   24   25 ar 
    25   24   26 ar 
    26    1   27 1  
    27    1   28 1  
    28    1   29 1  
    29    2   30 1  
    30    6   31 1  
    31    6   32 1  
    32    7   33 1  
    33    7   34 1  
    34   10   35 1  
    35   11   36 1  
    36   14   37 1  
    37   14   38 1  
    38   16   39 1  
    39   16   40 1  
    40   17   41 1  
    41   17   42 1  
    42   18   43 1  
    43   18   44 1  
    44   19   45 1  
    45   19   46 1  
    46   20   47 1  
    47   20   48 1  
    48   21   49 1  
    49   21   50 1  
    50   21   51 1  
    51   22   52 1  
    52   23   53 1  
    53   23   54 1  
@<TRIPOS>SUBSTRUCTURE
     1 GTX         1

