### 
### Created by X-TOOL on Mon Sep 10 21:13:28 2018
### 

@<TRIPOS>MOLECULE
5kew_ligand
   78    81     1     0     0
SMALL
GAST_HUCK


@<TRIPOS>ATOM
      1 S01        -2.1340   16.2720  -13.2340 S.o2      1 6SB        -0.1896
      2 O02        -1.4700   12.0240   -2.3930 O.3       1 6SB        -0.3912
      3 O03         1.7520    8.2640    1.1680 O.3       1 6SB        -0.3918
      4 O04        -1.4270   16.8360   -9.1680 O.2       1 6SB        -0.3971
      5 O05        -2.9010   17.2100  -14.1350 O.co2     1 6SB        -0.4845
      6 O06        -2.0610   15.0290  -14.0900 O.co2     1 6SB        -0.4845
      7 O07        -0.7540   16.8090  -12.9340 O.co2     1 6SB        -0.4845
      8 N08        -2.6180   14.8720   -9.4830 N.am      1 6SB        -0.2855
      9 C09        -0.4280   14.0300   -2.7810 C.3       1 6SB         0.0001
     10 C10         1.1030   13.5770   -2.6750 C.3       1 6SB        -0.0299
     11 C11         1.6540   13.4180   -1.2340 C.3       1 6SB        -0.0342
     12 C12         0.6470   12.5630   -0.2280 C.3       1 6SB        -0.0299
     13 C13         1.2300   12.4600    1.2140 C.3       1 6SB        -0.0259
     14 C14        -0.6280   14.0960   -4.3810 C.3       1 6SB        -0.0303
     15 C15        -1.3360   13.2410   -1.8950 C.3       1 6SB         0.0614
     16 C16        -0.7520   13.1140   -0.2740 C.3       1 6SB        -0.0227
     17 C17         2.6820   11.8920    1.2020 C.3       1 6SB        -0.0330
     18 C18         1.8820   14.4980   -3.7410 C.3       1 6SB        -0.0491
     19 C19         3.0300   12.8290   -1.2660 C.3       1 6SB        -0.0494
     20 C20         0.9020   14.6900   -4.9380 C.3       1 6SB        -0.0491
     21 C21         3.6570   12.7000    0.1990 C.3       1 6SB        -0.0494
     22 C22         0.3200   11.5870    2.1180 C.3       1 6SB        -0.0448
     23 C23        -0.4910   15.4610   -2.2420 C.3       1 6SB        -0.0567
     24 C24        -1.6390   14.9030   -4.8190 C.3       1 6SB        -0.0384
     25 C25         2.7230   10.4220    0.8040 C.3       1 6SB        -0.0235
     26 C26         1.2890   13.8560    1.8560 C.3       1 6SB        -0.0590
     27 C27         0.3440   10.1120    1.7170 C.3       1 6SB        -0.0263
     28 C28         1.7830    9.5520    1.6840 C.3       1 6SB         0.0555
     29 C29        -1.7390   14.7690   -6.4390 C.3       1 6SB        -0.0332
     30 C30        -3.0210   14.4490   -4.2290 C.3       1 6SB        -0.0620
     31 C31        -2.3780   16.0250   -7.1300 C.3       1 6SB         0.0375
     32 C32        -2.0840   15.9890   -8.6680 C.2       1 6SB         0.1760
     33 C33        -2.3360   14.8110  -10.9280 C.3       1 6SB         0.0472
     34 C34        -3.0350   15.9520  -11.6840 C.3       1 6SB         0.0508
     35 H1         -2.0466   11.5161   -1.8343 H         1 6SB         0.2098
     36 H2          1.1792    7.7245    1.7003 H         1 6SB         0.2098
     37 H3         -3.1704   14.1588   -9.0516 H         1 6SB         0.1851
     38 H4          1.1522   12.5558   -3.0809 H         1 6SB         0.0310
     39 H5          1.7400   14.4294   -0.8101 H         1 6SB         0.0306
     40 H6          0.5950   11.5362   -0.6192 H         1 6SB         0.0310
     41 H7         -0.8116   13.0827   -4.7678 H         1 6SB         0.0310
     42 H8         -2.3183   13.7356   -1.8743 H         1 6SB         0.0599
     43 H9         -0.7569   14.1132    0.1859 H         1 6SB         0.0293
     44 H10        -1.4170   12.4461    0.2931 H         1 6SB         0.0293
     45 H11         3.0811   11.9864    2.2227 H         1 6SB         0.0307
     46 H12         2.8028   13.9988   -4.0770 H         1 6SB         0.0268
     47 H13         2.1345   15.4707   -3.2937 H         1 6SB         0.0268
     48 H14         3.6794   13.4749   -1.8752 H         1 6SB         0.0268
     49 H15         2.9782   11.8284   -1.7200 H         1 6SB         0.0268
     50 H16         0.8269   15.7540   -5.2069 H         1 6SB         0.0268
     51 H17         1.2435   14.1144   -5.8109 H         1 6SB         0.0268
     52 H18         4.6166   12.1669    0.1295 H         1 6SB         0.0268
     53 H19         3.8264   13.7088    0.6034 H         1 6SB         0.0268
     54 H20        -0.7131   11.9570    2.0420 H         1 6SB         0.0271
     55 H21         0.6657   11.6759    3.1585 H         1 6SB         0.0271
     56 H22         0.1582   16.1100   -2.8481 H         1 6SB         0.0236
     57 H23        -0.1494   15.4744   -1.1965 H         1 6SB         0.0236
     58 H24        -1.5269   15.8272   -2.2941 H         1 6SB         0.0236
     59 H25        -1.4328   15.9445   -4.5312 H         1 6SB         0.0302
     60 H26         3.7535   10.0533    0.9139 H         1 6SB         0.0293
     61 H27         2.4108   10.3301   -0.2467 H         1 6SB         0.0293
     62 H28         1.9266   14.5132    1.2465 H         1 6SB         0.0235
     63 H29         1.7082   13.7760    2.8698 H         1 6SB         0.0235
     64 H30         0.2745   14.2775    1.9109 H         1 6SB         0.0235
     65 H31        -0.1022   10.0072    0.7171 H         1 6SB         0.0290
     66 H32        -0.2463    9.5352    2.4443 H         1 6SB         0.0290
     67 H33         2.1785    9.5268    2.7101 H         1 6SB         0.0593
     68 H34        -2.3535   13.8888   -6.6788 H         1 6SB         0.0292
     69 H35        -0.7246   14.6285   -6.8406 H         1 6SB         0.0292
     70 H36        -2.9942   14.5253   -3.1320 H         1 6SB         0.0233
     71 H37        -3.2190   13.4067   -4.5193 H         1 6SB         0.0233
     72 H38        -3.8182   15.0970   -4.6221 H         1 6SB         0.0233
     73 H39        -1.9468   16.9395   -6.6968 H         1 6SB         0.0502
     74 H40        -3.4656   16.0189   -6.9656 H         1 6SB         0.0502
     75 H41        -2.6938   13.8485  -11.3223 H         1 6SB         0.0535
     76 H42        -1.2501   14.8905  -11.0845 H         1 6SB         0.0535
     77 H43        -4.0715   15.6630  -11.9123 H         1 6SB         0.0488
     78 H44        -3.0358   16.8601  -11.0632 H         1 6SB         0.0488
@<TRIPOS>BOND
     1    1    5 ar 
     2    1    6 ar 
     3    1    7 ar 
     4   34    1 1  
     5   15    2 1  
     6   28    3 1  
     7   32    4 2  
     8    8   32 am 
     9   33    8 1  
    10    9   10 1  
    11   14    9 1  
    12    9   15 1  
    13    9   23 1  
    14   10   11 1  
    15   18   10 1  
    16   11   12 1  
    17   11   19 1  
    18   12   13 1  
    19   16   12 1  
    20   13   17 1  
    21   13   22 1  
    22   13   26 1  
    23   14   20 1  
    24   24   14 1  
    25   15   16 1  
    26   21   17 1  
    27   17   25 1  
    28   20   18 1  
    29   19   21 1  
    30   22   27 1  
    31   29   24 1  
    32   24   30 1  
    33   25   28 1  
    34   27   28 1  
    35   31   29 1  
    36   32   31 1  
    37   33   34 1  
    38    2   35 1  
    39    3   36 1  
    40    8   37 1  
    41   10   38 1  
    42   11   39 1  
    43   12   40 1  
    44   14   41 1  
    45   15   42 1  
    46   16   43 1  
    47   16   44 1  
    48   17   45 1  
    49   18   46 1  
    50   18   47 1  
    51   19   48 1  
    52   19   49 1  
    53   20   50 1  
    54   20   51 1  
    55   21   52 1  
    56   21   53 1  
    57   22   54 1  
    58   22   55 1  
    59   23   56 1  
    60   23   57 1  
    61   23   58 1  
    62   24   59 1  
    63   25   60 1  
    64   25   61 1  
    65   26   62 1  
    66   26   63 1  
    67   26   64 1  
    68   27   65 1  
    69   27   66 1  
    70   28   67 1  
    71   29   68 1  
    72   29   69 1  
    73   30   70 1  
    74   30   71 1  
    75   30   72 1  
    76   31   73 1  
    77   31   74 1  
    78   33   75 1  
    79   33   76 1  
    80   34   77 1  
    81   34   78 1  
@<TRIPOS>SUBSTRUCTURE
     1 6SB         1

