### 
### Created by X-TOOL on Mon Sep 10 21:13:28 2018
### 

@<TRIPOS>MOLECULE
5kgw_ligand
   55    58     1     0     0
SMALL
GAST_HUCK


@<TRIPOS>ATOM
      1 C10       -26.0160  -12.1250   -2.7750 C.2       1 7SK         0.0816
      2 C13       -27.0180  -14.9420   -4.7590 C.2       1 7SK        -0.0159
      3 C15       -29.2570  -14.7980   -5.6180 C.ar      1 7SK        -0.0817
      4 C17       -31.0950  -14.4500   -4.0960 C.ar      1 7SK         0.0858
      5 C20       -32.1670  -13.8170   -1.5620 C.3       1 7SK        -0.0174
      6 C21       -30.7240  -14.2480   -1.5660 C.3       1 7SK        -0.0201
      7 C22       -30.2040  -14.4450   -3.0190 C.ar      1 7SK        -0.0211
      8 C24       -26.2960  -16.0650   -5.1820 C.ar      1 7SK        -0.0248
      9 C26       -25.6630  -18.2870   -5.8820 C.ar      1 7SK        -0.0814
     10 C28       -23.9940  -16.5680   -5.6640 C.ar      1 7SK        -0.0455
     11 C01       -23.6960  -13.5670   -4.8930 C.3       1 7SK         0.0427
     12 N02       -24.9130  -14.3550   -4.9250 N.pl3     1 7SK        -0.2535
     13 C03       -26.1170  -13.9030   -4.6170 C.2       1 7SK         0.1023
     14 C04       -26.5080  -12.4850   -4.1790 C.3       1 7SK         0.1730
     15 O05       -25.9610  -11.5390   -5.0630 O.3       1 7SK        -0.3393
     16 C06       -26.6200  -11.2650   -6.2800 C.3       1 7SK         0.0670
     17 C07       -26.2950  -12.3480   -7.3050 C.3       1 7SK        -0.0359
     18 C08       -28.1420  -11.1550   -6.1420 C.3       1 7SK        -0.0359
     19 C09       -26.0960   -9.9250   -6.8000 C.3       1 7SK        -0.0359
     20 O11       -26.0110  -12.9920   -1.8600 O.co2     1 7SK        -0.5634
     21 O12       -25.6270  -10.9500   -2.5330 O.co2     1 7SK        -0.5634
     22 C14       -28.3730  -14.8080   -4.5330 C.ar      1 7SK        -0.0638
     23 C16       -30.6170  -14.6270   -5.3980 C.ar      1 7SK        -0.0468
     24 O18       -32.5030  -14.2710   -3.9110 O.3       1 7SK        -0.3259
     25 C19       -32.9770  -14.4770   -2.6310 C.3       1 7SK         0.0690
     26 C23       -28.8390  -14.6140   -3.2370 C.ar      1 7SK        -0.0734
     27 C25       -26.6440  -17.3870   -5.4890 C.ar      1 7SK        -0.0776
     28 C27       -24.3380  -17.8750   -5.9680 C.ar      1 7SK        -0.0786
     29 C29       -24.9840  -15.6540   -5.2680 C.ar      1 7SK         0.0652
     30 H1        -28.8809  -14.9234   -6.6269 H         1 7SK         0.0464
     31 H2        -32.2080  -12.7282   -1.7131 H         1 7SK         0.0310
     32 H3        -32.6051  -14.0683   -0.5848 H         1 7SK         0.0310
     33 H4        -30.6309  -15.1978   -1.0190 H         1 7SK         0.0403
     34 H5        -30.1171  -13.4772   -1.0684 H         1 7SK         0.0403
     35 H6        -25.9298  -19.3100   -6.1216 H         1 7SK         0.0507
     36 H7        -22.9598  -16.2505   -5.7318 H         1 7SK         0.0537
     37 H8        -23.9324  -12.5399   -4.5779 H         1 7SK         0.0565
     38 H9        -23.2449  -13.5481   -5.8961 H         1 7SK         0.0565
     39 H10       -22.9876  -14.0151   -4.1807 H         1 7SK         0.0565
     40 H11       -27.6053  -12.4111   -4.1983 H         1 7SK         0.0992
     41 H12       -26.8128  -12.1259   -8.2497 H         1 7SK         0.0257
     42 H13       -26.6287  -13.3247   -6.9248 H         1 7SK         0.0257
     43 H14       -25.2092  -12.3739   -7.4794 H         1 7SK         0.0257
     44 H15       -28.5849  -10.9414   -7.1260 H         1 7SK         0.0257
     45 H16       -28.3891  -10.3413   -5.4443 H         1 7SK         0.0257
     46 H17       -28.5448  -12.1033   -5.7567 H         1 7SK         0.0257
     47 H18       -26.5919   -9.6816   -7.7513 H         1 7SK         0.0257
     48 H19       -25.0098   -9.9931   -6.9597 H         1 7SK         0.0257
     49 H20       -26.3096   -9.1368   -6.0630 H         1 7SK         0.0257
     50 H21       -31.3070  -14.6307   -6.2340 H         1 7SK         0.0506
     51 H22       -34.0036  -14.0857   -2.5766 H         1 7SK         0.0610
     52 H23       -32.9865  -15.5597   -2.4372 H         1 7SK         0.0610
     53 H24       -28.1457  -14.5945   -2.4039 H         1 7SK         0.0454
     54 H25       -27.6776  -17.7064   -5.4197 H         1 7SK         0.0517
     55 H26       -23.5720  -18.5784   -6.2738 H         1 7SK         0.0512
@<TRIPOS>BOND
     1   14    1 1  
     2    1   20 ar 
     3    1   21 ar 
     4    2    8 1  
     5   13    2 2  
     6    2   22 1  
     7   22    3 ar 
     8    3   23 ar 
     9    4    7 ar 
    10   23    4 ar 
    11    4   24 1  
    12    6    5 1  
    13    5   25 1  
    14    7    6 1  
    15    7   26 ar 
    16    8   27 ar 
    17   29    8 ar 
    18   27    9 ar 
    19   28    9 ar 
    20   10   28 ar 
    21   29   10 ar 
    22   12   11 1  
    23   13   12 1  
    24   12   29 1  
    25   13   14 1  
    26   14   15 1  
    27   15   16 1  
    28   16   17 1  
    29   16   18 1  
    30   16   19 1  
    31   22   26 ar 
    32   24   25 1  
    33    3   30 1  
    34    5   31 1  
    35    5   32 1  
    36    6   33 1  
    37    6   34 1  
    38    9   35 1  
    39   10   36 1  
    40   11   37 1  
    41   11   38 1  
    42   11   39 1  
    43   14   40 1  
    44   17   41 1  
    45   17   42 1  
    46   17   43 1  
    47   18   44 1  
    48   18   45 1  
    49   18   46 1  
    50   19   47 1  
    51   19   48 1  
    52   19   49 1  
    53   23   50 1  
    54   25   51 1  
    55   25   52 1  
    56   26   53 1  
    57   27   54 1  
    58   28   55 1  
@<TRIPOS>SUBSTRUCTURE
     1 7SK         1

