### 
### Created by X-TOOL on Mon Sep 10 21:13:28 2018
### 

@<TRIPOS>MOLECULE
5kgx_ligand
   55    58     1     0     0
SMALL
GAST_HUCK


@<TRIPOS>ATOM
      1 C10        12.6940  -46.0840  -13.7920 C.2       1 7SK         0.0816
      2 C13         9.7580  -46.5560  -15.8530 C.2       1 7SK        -0.0159
      3 C15         8.7100  -44.6050  -16.7570 C.ar      1 7SK        -0.0817
      4 C17         7.9950  -42.8380  -15.2800 C.ar      1 7SK         0.0858
      5 C20         7.5670  -41.6800  -12.7130 C.3       1 7SK        -0.0174
      6 C21         8.3300  -42.9820  -12.7460 C.3       1 7SK        -0.0201
      7 C22         8.4640  -43.5600  -14.1850 C.ar      1 7SK        -0.0211
      8 C24         9.1540  -47.7400  -16.2880 C.ar      1 7SK        -0.0248
      9 C26         7.5440  -49.3770  -17.0540 C.ar      1 7SK        -0.0814
     10 C28         9.8560  -49.9910  -16.7360 C.ar      1 7SK        -0.0455
     11 C01        12.5910  -48.7840  -15.8530 C.3       1 7SK         0.0427
     12 N02        11.3080  -48.1050  -15.9400 N.pl3     1 7SK        -0.2535
     13 C03        11.0960  -46.8300  -15.6500 C.2       1 7SK         0.1023
     14 C04        12.1160  -45.7930  -15.1810 C.3       1 7SK         0.1730
     15 O05        13.1580  -45.7650  -16.1200 O.3       1 7SK        -0.3393
     16 C06        13.0000  -45.1860  -17.4000 C.3       1 7SK         0.0670
     17 C07        12.1040  -43.9480  -17.4510 C.3       1 7SK        -0.0359
     18 C08        14.3810  -44.7190  -17.8550 C.3       1 7SK        -0.0359
     19 C09        12.5220  -46.2350  -18.4060 C.3       1 7SK        -0.0359
     20 O11        13.9190  -45.9070  -13.5660 O.co2     1 7SK        -0.5634
     21 O12        11.9450  -46.4910  -12.8620 O.co2     1 7SK        -0.5634
     22 C14         9.1640  -45.3270  -15.6600 C.ar      1 7SK        -0.0638
     23 C16         8.1250  -43.3640  -16.5670 C.ar      1 7SK        -0.0468
     24 O18         7.3910  -41.5510  -15.1200 O.3       1 7SK        -0.3259
     25 C19         7.7350  -40.8740  -13.9650 C.3       1 7SK         0.0690
     26 C23         9.0550  -44.8060  -14.3740 C.ar      1 7SK        -0.0734
     27 C25         7.8420  -48.0790  -16.6540 C.ar      1 7SK        -0.0776
     28 C27         8.5540  -50.3310  -17.0910 C.ar      1 7SK        -0.0786
     29 C29        10.1570  -48.6800  -16.3280 C.ar      1 7SK         0.0652
     30 H1          8.8132  -45.0111  -17.7568 H         1 7SK         0.0464
     31 H2          7.9263  -41.0841  -11.8611 H         1 7SK         0.0310
     32 H3          6.4981  -41.9028  -12.5798 H         1 7SK         0.0310
     33 H4          7.8022  -43.7158  -12.1192 H         1 7SK         0.0403
     34 H5          9.3378  -42.8103  -12.3399 H         1 7SK         0.0403
     35 H6          6.5313  -49.6428  -17.3349 H         1 7SK         0.0507
     36 H7         10.6398  -50.7389  -16.7742 H         1 7SK         0.0537
     37 H8         13.3585  -48.0750  -15.5091 H         1 7SK         0.0565
     38 H9         12.8684  -49.1722  -16.8441 H         1 7SK         0.0565
     39 H10        12.5167  -49.6183  -15.1400 H         1 7SK         0.0565
     40 H11        11.6252  -44.8090  -15.1501 H         1 7SK         0.0992
     41 H12        12.0482  -43.5782  -18.4855 H         1 7SK         0.0257
     42 H13        12.5243  -43.1642  -16.8037 H         1 7SK         0.0257
     43 H14        11.0950  -44.2109  -17.1007 H         1 7SK         0.0257
     44 H15        14.3029  -44.2600  -18.8516 H         1 7SK         0.0257
     45 H16        15.0629  -45.5809  -17.9007 H         1 7SK         0.0257
     46 H17        14.7719  -43.9796  -17.1405 H         1 7SK         0.0257
     47 H18        12.4046  -45.7679  -19.3949 H         1 7SK         0.0257
     48 H19        11.5557  -46.6449  -18.0771 H         1 7SK         0.0257
     49 H20        13.2621  -47.0463  -18.4693 H         1 7SK         0.0257
     50 H21         7.7669  -42.7992  -17.4202 H         1 7SK         0.0506
     51 H22         8.7897  -40.5714  -14.0426 H         1 7SK         0.0610
     52 H23         7.1012  -39.9783  -13.8874 H         1 7SK         0.0610
     53 H24         9.4281  -45.3671  -13.5248 H         1 7SK         0.0454
     54 H25         7.0605  -47.3284  -16.6248 H         1 7SK         0.0517
     55 H26         8.3264  -51.3454  -17.3980 H         1 7SK         0.0512
@<TRIPOS>BOND
     1   14    1 1  
     2    1   20 ar 
     3    1   21 ar 
     4    2    8 1  
     5   13    2 2  
     6    2   22 1  
     7   22    3 ar 
     8    3   23 ar 
     9    4    7 ar 
    10   23    4 ar 
    11    4   24 1  
    12    6    5 1  
    13    5   25 1  
    14    7    6 1  
    15    7   26 ar 
    16    8   27 ar 
    17   29    8 ar 
    18   27    9 ar 
    19   28    9 ar 
    20   10   28 ar 
    21   29   10 ar 
    22   12   11 1  
    23   13   12 1  
    24   12   29 1  
    25   13   14 1  
    26   14   15 1  
    27   15   16 1  
    28   16   17 1  
    29   16   18 1  
    30   16   19 1  
    31   22   26 ar 
    32   24   25 1  
    33    3   30 1  
    34    5   31 1  
    35    5   32 1  
    36    6   33 1  
    37    6   34 1  
    38    9   35 1  
    39   10   36 1  
    40   11   37 1  
    41   11   38 1  
    42   11   39 1  
    43   14   40 1  
    44   17   41 1  
    45   17   42 1  
    46   17   43 1  
    47   18   44 1  
    48   18   45 1  
    49   18   46 1  
    50   19   47 1  
    51   19   48 1  
    52   19   49 1  
    53   23   50 1  
    54   25   51 1  
    55   25   52 1  
    56   26   53 1  
    57   27   54 1  
    58   28   55 1  
@<TRIPOS>SUBSTRUCTURE
     1 7SK         1

