### 
### Created by X-TOOL on Wed Jan  1 15:39:34 2020
### 

@<TRIPOS>MOLECULE
5kh3_ligand
   22    23     1     0     0
SMALL
GAST_HUCK


@<TRIPOS>ATOM
      1 C9         -1.4030    2.2400    8.0780 C.ar      1 6U6         0.0530
      2 C1          3.4300    2.3720    7.6570 C.3       1 6U6         0.0183
      3 C3          0.9930    1.9860    7.8180 C.2       1 6U6         0.0991
      4 C2          2.3630    1.5490    8.1240 C.3       1 6U6         0.0338
      5 C5         -1.6140    4.0720    6.5290 C.ar      1 6U6        -0.0448
      6 C8         -2.7430    2.3280    8.4060 C.ar      1 6U6        -0.0497
      7 O1          3.0940    4.3250    9.2170 O.co2     1 6U6        -0.5688
      8 C7         -3.5240    3.2740    7.7970 C.ar      1 6U6        -0.0583
      9 C6         -2.9660    4.1110    6.8610 C.ar      1 6U6         0.0289
     10 C4         -0.8050    3.1180    7.1750 C.ar      1 6U6         0.0228
     11 CL         -4.0150    5.2110    6.0250 Cl        1 6U6        -0.0778
     12 N           0.5830    2.9450    7.0450 N.2       1 6U6        -0.3079
     13 S          -0.2390    1.1730    8.7290 S.3       1 6U6         0.0083
     14 C           3.5500    3.7530    8.1900 C.2       1 6U6         0.0378
     15 O           4.2250    4.2470    7.2720 O.co2     1 6U6        -0.5688
     16 H1          3.3218    2.4543    6.5654 H         1 6U6         0.0465
     17 H2          4.3691    1.8505    7.8941 H         1 6U6         0.0465
     18 H3          2.4519    1.4814    9.2183 H         1 6U6         0.0561
     19 H4          2.4979    0.5505    7.6828 H         1 6U6         0.0561
     20 H5         -1.1979    4.7544    5.7966 H         1 6U6         0.0564
     21 H6         -3.1719    1.6541    9.1388 H         1 6U6         0.0565
     22 H7         -4.5741    3.3617    8.0514 H         1 6U6         0.0558
@<TRIPOS>BOND
     1    1    6 ar 
     2   10    1 ar 
     3    1   13 1  
     4    4    2 1  
     5    2   14 1  
     6    3    4 1  
     7    3   12 2  
     8   13    3 1  
     9    5    9 ar 
    10    5   10 ar 
    11    6    8 ar 
    12   14    7 ar 
    13    8    9 ar 
    14    9   11 1  
    15   10   12 1  
    16   14   15 ar 
    17    2   16 1  
    18    2   17 1  
    19    4   18 1  
    20    4   19 1  
    21    5   20 1  
    22    6   21 1  
    23    8   22 1  
@<TRIPOS>SUBSTRUCTURE
     1 6U6         1

