### 
### Created by X-TOOL on Wed Jan  1 15:39:34 2020
### 

@<TRIPOS>MOLECULE
5kh7_ligand
   28    29     1     0     0
SMALL
GAST_HUCK


@<TRIPOS>ATOM
      1 C4         -0.4660    6.7040    3.3900 C.ar      1 6T7         0.0081
      2 C5         -0.4940    3.7950    6.4190 C.2       1 6T7         0.0971
      3 C6         -0.5810    1.9050    8.4830 C.2       1 6T7         0.2299
      4 N1          0.6610    3.2990    6.8090 N.2       1 6T7        -0.1385
      5 C7         -1.7660    2.4990    8.0060 C.2       1 6T7         0.0131
      6 C8         -1.7430    3.3960    7.0150 C.2       1 6T7        -0.0270
      7 N2          0.6070    2.3550    7.8360 N.am      1 6T7        -0.1332
      8 C9          1.8850    1.8470    8.3480 C.3       1 6T7         0.0980
      9 C10         3.1020    2.3260    7.5920 C.3       1 6T7         0.0320
     10 C11         3.5890    3.7000    7.9660 C.2       1 6T7         0.0378
     11 O1          4.3290    4.2910    7.2360 O.co2     1 6T7        -0.5689
     12 O2          3.1270    4.2010    9.0770 O.co2     1 6T7        -0.5689
     13 O          -0.5130    1.0860    9.3710 O.2       1 6T7        -0.4099
     14 C2         -0.4370    4.8340    5.3730 C.ar      1 6T7         0.0221
     15 C1          0.6040    4.8840    4.4570 C.ar      1 6T7        -0.0373
     16 C3         -1.4600    5.7630    5.2270 C.ar      1 6T7         0.0165
     17 N          -1.4950    6.6720    4.2480 N.ar      1 6T7        -0.2995
     18 C           0.6040    5.8450    3.4640 C.ar      1 6T7        -0.0368
     19 H1         -0.4784    7.4443    2.5983 H         1 6T7         0.0797
     20 H2         -2.7195    2.2221    8.4533 H         1 6T7         0.0608
     21 H3         -2.6757    3.8283    6.6557 H         1 6T7         0.0733
     22 H4          1.8616    0.7483    8.2991 H         1 6T7         0.0683
     23 H5          1.9853    2.1654    9.3961 H         1 6T7         0.0683
     24 H6          2.8559    2.3324    6.5199 H         1 6T7         0.0461
     25 H7          3.9194    1.6134    7.7764 H         1 6T7         0.0461
     26 H8          1.4168    4.1696    4.5203 H         1 6T7         0.0718
     27 H9         -2.2722    5.7497    5.9448 H         1 6T7         0.0809
     28 H10         1.4265    5.9193    2.7618 H         1 6T7         0.0700
@<TRIPOS>BOND
     1    1   17 ar 
     2   18    1 ar 
     3    2    4 2  
     4    2    6 1  
     5   14    2 1  
     6    5    3 1  
     7    7    3 am 
     8    3   13 2  
     9    4    7 1  
    10    6    5 2  
    11    7    8 1  
    12    8    9 1  
    13    9   10 1  
    14   10   11 ar 
    15   10   12 ar 
    16   15   14 ar 
    17   14   16 ar 
    18   15   18 ar 
    19   16   17 ar 
    20    1   19 1  
    21    5   20 1  
    22    6   21 1  
    23    8   22 1  
    24    8   23 1  
    25    9   24 1  
    26    9   25 1  
    27   15   26 1  
    28   16   27 1  
    29   18   28 1  
@<TRIPOS>SUBSTRUCTURE
     1 6T7         1

