### 
### Created by X-TOOL on Mon Sep 10 21:13:27 2018
### 

@<TRIPOS>MOLECULE
5khm_ligand
   69    73     1     0     0
SMALL
GAST_HUCK


@<TRIPOS>ATOM
      1 C1         61.8980   50.8730  126.2360 C.2       1 XNH         0.3123
      2 C2         62.9320   49.0800  126.8020 C.2       1 XNH         0.1703
      3 C3         63.6120   48.2470  127.7220 C.2       1 XNH         0.0042
      4 N6         62.3040   50.7080  142.5890 N.am      1 XNH        -0.2666
      5 C7         61.9660   51.2460  132.3270 C.3       1 XNH        -0.0218
      6 C8         62.8820   50.7530  133.4320 C.3       1 XNH        -0.0088
      7 C9         63.7520   49.6240  132.8860 C.3       1 XNH        -0.0218
      8 C10        64.5250   50.0710  131.6410 C.3       1 XNH         0.0313
      9 C11        62.1640   50.4430  134.7270 C.ar      1 XNH        -0.0505
     10 C12        61.8590   51.4610  135.6200 C.ar      1 XNH        -0.0685
     11 C13        61.2100   51.2000  136.8100 C.ar      1 XNH        -0.0396
     12 C14        60.8800   49.9020  137.1380 C.ar      1 XNH         0.0843
     13 C15        59.8340   48.5750  138.8490 C.3       1 XNH         0.1087
     14 C16        59.2770   48.8550  140.2110 C.3       1 XNH        -0.0015
     15 C19        63.4330   51.4120  143.1950 C.3       1 XNH         0.0230
     16 C20        62.1830   49.3820  142.7440 C.2       1 XNH         0.2267
     17 C21        61.0040   48.6680  142.1150 C.3       1 XNH         0.0659
     18 C22        60.0450   48.2260  143.2120 C.3       1 XNH        -0.0038
     19 C24        61.8220   49.1410  135.0760 C.ar      1 XNH        -0.0685
     20 O2         62.9390   48.7290  143.4340 O.2       1 XNH        -0.3907
     21 C18        61.3490   51.5460  141.8620 C.3       1 XNH         0.0737
     22 C17        60.0880   50.8260  141.4110 C.3       1 XNH        -0.0089
     23 N5         60.3640   49.4310  141.0280 N.4       1 XNH         0.2572
     24 O1         60.2480   49.8460  138.3470 O.3       1 XNH        -0.3172
     25 C23        61.1560   48.8720  136.2540 C.ar      1 XNH        -0.0396
     26 C6         62.7770   51.6940  131.1190 C.3       1 XNH         0.0313
     27 N4         63.6320   50.6110  130.6050 N.pl3     1 XNH        -0.2903
     28 C5         63.4390   50.0410  129.3340 C.2       1 XNH         0.1479
     29 C4         63.8670   48.7290  128.9670 C.2       1 XNH        -0.0002
     30 N2         62.8290   50.8670  128.5360 N.2       1 XNH        -0.1433
     31 N3         62.5860   50.3420  127.2560 N.pl3     1 XNH        -0.0904
     32 N1         62.5080   48.9180  125.5620 N.2       1 XNH        -0.2879
     33 N          61.8400   50.0980  125.1900 N.2       1 XNH        -0.2526
     34 O          61.4000   52.1000  126.3700 O.3       1 XNH        -0.2732
     35 C          60.4090   52.4990  125.3910 C.3       1 XNH         0.0665
     36 H1         63.9238   47.2427  127.4389 H         1 XNH         0.0752
     37 H2         61.3740   52.0948  132.6999 H         1 XNH         0.0307
     38 H3         61.2905   50.4314  132.0270 H         1 XNH         0.0307
     39 H4         63.5644   51.5827  133.6682 H         1 XNH         0.0442
     40 H5         63.1090   48.7715  132.6219 H         1 XNH         0.0307
     41 H6         64.4687   49.3163  133.6617 H         1 XNH         0.0307
     42 H7         65.0657   49.2063  131.2288 H         1 XNH         0.0518
     43 H8         65.2455   50.8501  131.9306 H         1 XNH         0.0518
     44 H9         62.1359   52.4808  135.3782 H         1 XNH         0.0530
     45 H10        60.9609   52.0119  137.4837 H         1 XNH         0.0525
     46 H11        59.0626   48.1360  138.1992 H         1 XNH         0.0665
     47 H12        60.6910   47.8887  138.9160 H         1 XNH         0.0665
     48 H13        58.9181   47.9214  140.6687 H         1 XNH         0.0841
     49 H14        58.4447   49.5703  140.1361 H         1 XNH         0.0841
     50 H15        63.3640   52.4848  142.9617 H         1 XNH         0.0486
     51 H16        64.3745   51.0093  142.7934 H         1 XNH         0.0486
     52 H17        63.4098   51.2718  144.2858 H         1 XNH         0.0486
     53 H18        61.3970   47.7522  141.6493 H         1 XNH         0.1097
     54 H19        60.5992   47.6662  143.9798 H         1 XNH         0.0310
     55 H20        59.2653   47.5817  142.7797 H         1 XNH         0.0310
     56 H21        59.5778   49.1108  143.6690 H         1 XNH         0.0310
     57 H22        62.0828   48.3247  134.4121 H         1 XNH         0.0530
     58 H23        61.8533   51.9455  140.9698 H         1 XNH         0.0575
     59 H24        61.0528   52.3771  142.5188 H         1 XNH         0.0575
     60 H25        59.6652   51.3563  140.5450 H         1 XNH         0.0835
     61 H26        59.3601   50.8317  142.2356 H         1 XNH         0.0835
     62 H27        61.1127   49.5080  140.3575 H         1 XNH         0.2057
     63 H28        60.8499   47.8585  136.4868 H         1 XNH         0.0525
     64 H29        63.4134   52.5422  131.4115 H         1 XNH         0.0518
     65 H30        62.0864   52.0109  130.3236 H         1 XNH         0.0518
     66 H31        64.4004   48.1116  129.6883 H         1 XNH         0.0696
     67 H32        60.0749   53.5250  125.6047 H         1 XNH         0.0584
     68 H33        59.5486   51.8155  125.4406 H         1 XNH         0.0584
     69 H34        60.8512   52.4595  124.3846 H         1 XNH         0.0584
@<TRIPOS>BOND
     1   31    1 1  
     2    1   33 2  
     3    1   34 1  
     4    3    2 1  
     5    2   31 1  
     6    2   32 2  
     7   29    3 2  
     8    4   15 1  
     9   16    4 am 
    10   21    4 1  
    11    5    6 1  
    12   26    5 1  
    13    7    6 1  
    14    6    9 1  
    15    8    7 1  
    16   27    8 1  
    17    9   10 ar 
    18    9   19 ar 
    19   10   11 ar 
    20   11   12 ar 
    21   12   24 1  
    22   25   12 ar 
    23   13   14 1  
    24   24   13 1  
    25   14   23 1  
    26   17   16 1  
    27   16   20 2  
    28   17   18 1  
    29   23   17 1  
    30   19   25 ar 
    31   22   21 1  
    32   23   22 1  
    33   27   26 1  
    34   28   27 1  
    35   28   29 1  
    36   28   30 2  
    37   30   31 1  
    38   32   33 1  
    39   34   35 1  
    40    3   36 1  
    41    5   37 1  
    42    5   38 1  
    43    6   39 1  
    44    7   40 1  
    45    7   41 1  
    46    8   42 1  
    47    8   43 1  
    48   10   44 1  
    49   11   45 1  
    50   13   46 1  
    51   13   47 1  
    52   14   48 1  
    53   14   49 1  
    54   15   50 1  
    55   15   51 1  
    56   15   52 1  
    57   17   53 1  
    58   18   54 1  
    59   18   55 1  
    60   18   56 1  
    61   19   57 1  
    62   21   58 1  
    63   21   59 1  
    64   22   60 1  
    65   22   61 1  
    66   23   62 1  
    67   25   63 1  
    68   26   64 1  
    69   26   65 1  
    70   29   66 1  
    71   35   67 1  
    72   35   68 1  
    73   35   69 1  
@<TRIPOS>SUBSTRUCTURE
     1 XNH         1

