### 
### Created by X-TOOL on Mon Sep 10 21:13:27 2018
### 

@<TRIPOS>MOLECULE
5khx_ligand
   37    39     1     0     0
SMALL
GAST_HUCK


@<TRIPOS>ATOM
      1 N3         13.9570   16.3090  -13.2340 N.ar      1 6TE        -0.2730
      2 C4          9.9450   13.7110  -16.4030 C.3       1 6TE         0.0417
      3 N2         10.1770   13.3210  -17.7770 N.am      1 6TE        -0.2488
      4 C7         12.7450   15.6610  -13.2900 C.ar      1 6TE         0.1212
      5 C6          8.5740   14.8430  -19.1480 C.3       1 6TE         0.0732
      6 C9         12.6530   15.8100  -10.8840 C.ar      1 6TE         0.1355
      7 C8         14.4220   16.6560  -11.9960 C.ar      1 6TE         0.0500
      8 N5         11.8450   15.4400   -9.8190 N.pl3     1 6TE        -0.2665
      9 C1         13.2740   15.4420  -15.6850 C.3       1 6TE         0.0220
     10 N1         12.3330   15.2960  -14.5630 N.pl3     1 6TE        -0.2877
     11 C2         11.0280   14.7260  -14.8110 C.3       1 6TE         0.0472
     12 C3         10.2660   15.2010  -16.0760 C.3       1 6TE        -0.0094
     13 C5         10.9840   13.2600  -15.3400 C.3       1 6TE        -0.0094
     14 S1          8.9690   13.2440  -18.8790 S.o2      1 6TE         0.0364
     15 O1          7.8390   12.6250  -18.2870 O.2       1 6TE        -0.1558
     16 O2          9.5440   12.7050  -20.0590 O.2       1 6TE        -0.1558
     17 N4         13.8650   16.4540  -10.7850 N.ar      1 6TE        -0.2772
     18 C10        12.0250   15.3860  -12.0980 C.ar      1 6TE         0.0435
     19 C11        10.8090   14.7360  -11.7130 C.2       1 6TE        -0.0545
     20 C12        10.7200   14.7770  -10.3380 C.2       1 6TE         0.0249
     21 H1          8.9173   13.4212  -16.1388 H         1 6TE         0.0513
     22 H2         11.1071   13.0906  -18.0631 H         1 6TE         0.1672
     23 H3          7.7594   14.9004  -19.8850 H         1 6TE         0.0482
     24 H4          9.4546   15.3786  -19.5323 H         1 6TE         0.0482
     25 H5          8.2476   15.3039  -18.2041 H         1 6TE         0.0482
     26 H6         15.3774   17.1680  -11.9868 H         1 6TE         0.0975
     27 H7         12.0360   15.6196   -8.8229 H         1 6TE         0.2318
     28 H8         14.2111   15.8890  -15.3218 H         1 6TE         0.0492
     29 H9         12.8308   16.0930  -16.4530 H         1 6TE         0.0492
     30 H10        13.4835   14.4532  -16.1189 H         1 6TE         0.0492
     31 H11        10.4360   14.8583  -13.8934 H         1 6TE         0.0566
     32 H12         9.3813   15.8203  -15.8668 H         1 6TE         0.0306
     33 H13        10.8971   15.7037  -16.8236 H         1 6TE         0.0306
     34 H14        11.9352   12.8999  -15.7591 H         1 6TE         0.0306
     35 H15        10.6021   12.5268  -14.6143 H         1 6TE         0.0306
     36 H16        10.0816   14.2876  -12.3882 H         1 6TE         0.0311
     37 H17         9.9056   14.3609   -9.7468 H         1 6TE         0.0922
@<TRIPOS>BOND
     1    4    1 ar 
     2    1    7 ar 
     3    2    3 1  
     4   12    2 1  
     5    2   13 1  
     6    3   14 am 
     7   10    4 1  
     8    4   18 ar 
     9   14    5 1  
    10    6    8 1  
    11    6   17 ar 
    12   18    6 ar 
    13    7   17 ar 
    14    8   20 1  
    15   10    9 1  
    16   11   10 1  
    17   11   12 1  
    18   11   13 1  
    19   14   15 2  
    20   14   16 2  
    21   18   19 1  
    22   19   20 2  
    23    2   21 1  
    24    3   22 1  
    25    5   23 1  
    26    5   24 1  
    27    5   25 1  
    28    7   26 1  
    29    8   27 1  
    30    9   28 1  
    31    9   29 1  
    32    9   30 1  
    33   11   31 1  
    34   12   32 1  
    35   12   33 1  
    36   13   34 1  
    37   13   35 1  
    38   19   36 1  
    39   20   37 1  
@<TRIPOS>SUBSTRUCTURE
     1 6TE         1

