### 
### Created by X-TOOL on Mon Sep 10 21:13:25 2018
### 

@<TRIPOS>MOLECULE
5kit_ligand
   56    59     1     0     0
SMALL
GAST_HUCK


@<TRIPOS>ATOM
      1 C4         16.4520    0.6760   -5.6580 C.3       1 6TA        -0.0320
      2 C6         14.2850    2.9680   -4.0160 C.2       1 6TA         0.3226
      3 C10        13.9520    5.4380   -1.7760 C.3       1 6TA        -0.0265
      4 C13        14.8600    2.6330   -1.7470 C.3       1 6TA         0.0363
      5 C15        15.6030    5.7690    0.3080 C.3       1 6TA        -0.0144
      6 C21        15.9360    8.5290    4.2940 C.2       1 6TA         0.0470
      7 C22        15.4490    8.7430    5.7300 C.ar      1 6TA        -0.0104
      8 C24        15.2080    8.7070    8.0950 C.ar      1 6TA         0.0113
      9 C26        13.6990    9.8770    6.8750 C.ar      1 6TA         0.0113
     10 C28        14.0250    9.8710    4.2290 C.2       1 6TA         0.0457
     11 C1         14.2240    1.5570   -6.4290 C.3       1 6TA        -0.0320
     12 C2         15.4940    1.8310   -5.6460 C.3       1 6TA         0.0905
     13 C3         16.1330    3.1020   -6.2160 C.3       1 6TA        -0.0320
     14 O5         15.1880    2.1000   -4.2630 O.3       1 6TA        -0.2580
     15 O7         13.6770    3.5100   -4.8500 O.2       1 6TA        -0.3774
     16 N8         14.0430    3.2800   -2.7410 N.am      1 6TA        -0.2489
     17 C9         13.1070    4.2980   -2.4020 C.3       1 6TA         0.0363
     18 C11        14.9590    4.8950   -0.7800 C.3       1 6TA        -0.0206
     19 C12        15.7960    3.7060   -1.2110 C.3       1 6TA        -0.0265
     20 C14        14.4210    4.8810    0.6380 C.3       1 6TA        -0.0417
     21 C16        15.4110    7.2880    0.2910 C.3       1 6TA         0.0379
     22 N17        15.5360    7.8010    1.6500 N.am      1 6TA        -0.2473
     23 C18        14.6490    8.6320    2.1590 C.2       1 6TA         0.3661
     24 O19        13.7040    9.0600    1.5850 O.2       1 6TA        -0.3433
     25 N20        14.8570    9.0100    3.4400 N.am      1 6TA        -0.2156
     26 C23        15.8930    8.3230    6.9700 C.ar      1 6TA        -0.0336
     27 N25        14.1460    9.4370    8.0220 N.ar      1 6TA        -0.2967
     28 C27        14.3210    9.5390    5.6860 C.ar      1 6TA        -0.0022
     29 H1         16.7176    0.4308   -6.6969 H         1 6TA         0.0260
     30 H2         15.9795   -0.1972   -5.1845 H         1 6TA         0.0260
     31 H3         17.3611    0.9478   -5.1015 H         1 6TA         0.0260
     32 H4         13.2804    6.1398   -1.2599 H         1 6TA         0.0290
     33 H5         14.4896    5.9667   -2.5769 H         1 6TA         0.0290
     34 H6         15.4374    1.8140   -2.2007 H         1 6TA         0.0522
     35 H7         14.2321    2.2340   -0.9367 H         1 6TA         0.0522
     36 H8         16.6062    5.5261    0.6883 H         1 6TA         0.0326
     37 H9         16.8883    8.1063    3.9773 H         1 6TA         0.0392
     38 H10        15.5669    8.3901    9.0675 H         1 6TA         0.0827
     39 H11        12.8252   10.5183    6.8550 H         1 6TA         0.0825
     40 H12        13.3208   10.6151    3.8597 H         1 6TA         0.0385
     41 H13        13.5668    2.4378   -6.3816 H         1 6TA         0.0260
     42 H14        13.7058    0.6891   -5.9951 H         1 6TA         0.0260
     43 H15        14.4784    1.3454   -7.4780 H         1 6TA         0.0260
     44 H16        17.0587    3.3255   -5.6655 H         1 6TA         0.0260
     45 H17        15.4321    3.9433   -6.1116 H         1 6TA         0.0260
     46 H18        16.3669    2.9494   -7.2800 H         1 6TA         0.0260
     47 H19        12.5837    4.6553   -3.3012 H         1 6TA         0.0522
     48 H20        12.3722    3.9197   -1.6761 H         1 6TA         0.0522
     49 H21        16.5002    4.0126   -1.9984 H         1 6TA         0.0290
     50 H22        16.3569    3.3141   -0.3497 H         1 6TA         0.0290
     51 H23        13.4417    5.3319    0.8564 H         1 6TA         0.0274
     52 H24        14.5640    3.9914    1.2689 H         1 6TA         0.0274
     53 H25        14.4125    7.5285   -0.1028 H         1 6TA         0.0524
     54 H26        16.1782    7.7489   -0.3485 H         1 6TA         0.0524
     55 H27        16.3140    7.5152    2.2096 H         1 6TA         0.1890
     56 H28        16.7737    7.6964    7.0526 H         1 6TA         0.0710
@<TRIPOS>BOND
     1   12    1 1  
     2    2   14 1  
     3    2   15 2  
     4   16    2 am 
     5    3   17 1  
     6   18    3 1  
     7    4   16 1  
     8   19    4 1  
     9    5   18 1  
    10    5   20 1  
    11   21    5 1  
    12    6    7 2  
    13   25    6 1  
    14    7   26 ar 
    15   28    7 ar 
    16   26    8 ar 
    17   27    8 ar 
    18    9   27 ar 
    19   28    9 ar 
    20   25   10 1  
    21   10   28 2  
    22   12   11 1  
    23   12   13 1  
    24   14   12 1  
    25   17   16 1  
    26   18   19 1  
    27   20   18 1  
    28   22   21 1  
    29   23   22 am 
    30   23   24 2  
    31   23   25 am 
    32    1   29 1  
    33    1   30 1  
    34    1   31 1  
    35    3   32 1  
    36    3   33 1  
    37    4   34 1  
    38    4   35 1  
    39    5   36 1  
    40    6   37 1  
    41    8   38 1  
    42    9   39 1  
    43   10   40 1  
    44   11   41 1  
    45   11   42 1  
    46   11   43 1  
    47   13   44 1  
    48   13   45 1  
    49   13   46 1  
    50   17   47 1  
    51   17   48 1  
    52   19   49 1  
    53   19   50 1  
    54   20   51 1  
    55   20   52 1  
    56   21   53 1  
    57   21   54 1  
    58   22   55 1  
    59   26   56 1  
@<TRIPOS>SUBSTRUCTURE
     1 6TA         1

