### 
### Created by X-TOOL on Mon Sep 10 21:13:30 2018
### 

@<TRIPOS>MOLECULE
5kj0_ligand
   81    85     1     0     0
SMALL
GAST_HUCK


@<TRIPOS>ATOM
      1 C10         6.4780   -8.6400    1.5720 C.ar      1 6TB         0.1200
      2 C13         6.7880   -7.5790    0.6910 C.ar      1 6TB         0.1002
      3 C15         7.5300   -8.1880   -1.5140 C.3       1 6TB         0.0364
      4 C20        12.1110   -7.0080   -3.0810 C.3       1 6TB         0.0438
      5 C21        10.9940   -6.4970   -4.0290 C.3       1 6TB        -0.0296
      6 C22        10.5760   -7.7050   -4.8910 C.3       1 6TB        -0.0509
      7 C24        11.9140   -8.5360   -3.0160 C.3       1 6TB        -0.0296
      8 C26        14.4520   -6.9690   -0.8630 C.3       1 6TB        -0.0147
      9 C28        13.4790   -4.7740   -0.3500 C.2       1 6TB         0.2284
     10 C01        -0.9740   -9.2590    7.8900 C.3       1 6TB        -0.0431
     11 N02         0.2380   -9.2090    7.0180 N.4       1 6TB         0.2332
     12 C03         1.3260   -8.3850    7.6430 C.3       1 6TB        -0.0300
     13 C04         2.6100   -8.3160    6.7770 C.3       1 6TB         0.0106
     14 C05         2.2480   -7.8960    5.3280 C.3       1 6TB         0.0509
     15 N06         3.3990   -7.9640    4.4880 N.am      1 6TB        -0.2846
     16 C07         3.5070   -7.1930    3.3710 C.2       1 6TB         0.1937
     17 C08         4.6160   -7.3320    2.4880 C.ar      1 6TB         0.0285
     18 C09         5.3920   -8.5070    2.4550 C.ar      1 6TB        -0.0229
     19 O11         7.2640   -9.7720    1.4990 O.3       1 6TB        -0.3244
     20 C12         7.0390  -10.8950    2.4030 C.3       1 6TB         0.0570
     21 N14         7.8400   -7.6980   -0.2000 N.pl3     1 6TB        -0.2414
     22 C16         8.9990   -6.9620   -0.0600 C.ar      1 6TB         0.1802
     23 N17         9.9800   -6.9400   -1.0110 N.ar      1 6TB        -0.2511
     24 C18        11.1530   -6.2380   -0.8980 C.ar      1 6TB         0.1459
     25 N19        12.1680   -6.2350   -1.8480 N.pl3     1 6TB        -0.2687
     26 C23        11.4530   -8.8970   -4.4290 C.3       1 6TB        -0.0509
     27 C25        13.5050   -5.8410   -1.3880 C.3       1 6TB         0.1354
     28 C27        13.9500   -7.6340    0.4310 C.3       1 6TB        -0.0610
     29 N29        12.3960   -4.6250    0.4480 N.am      1 6TB        -0.2208
     30 C30        12.3510   -3.5660    1.4560 C.3       1 6TB         0.0423
     31 O31        14.4810   -4.0320   -0.2230 O.2       1 6TB        -0.3839
     32 C32        11.3040   -5.4470    0.2530 C.ar      1 6TB         0.1273
     33 C33        10.2790   -5.4710    1.2110 C.ar      1 6TB         0.0200
     34 N34         9.1860   -6.2200    1.0450 N.ar      1 6TB        -0.2876
     35 C35         6.0100   -6.4130    0.7140 C.ar      1 6TB        -0.0404
     36 C36         4.9420   -6.2930    1.6020 C.ar      1 6TB        -0.0628
     37 O37         2.5220   -6.4550    3.0440 O.2       1 6TB        -0.3904
     38 C38         1.1550   -8.8210    4.7250 C.3       1 6TB         0.0106
     39 C39        -0.1080   -8.8170    5.6130 C.3       1 6TB        -0.0300
     40 H1          6.5869   -8.7533   -1.4815 H         1 6TB         0.0532
     41 H2          8.3403   -8.8463   -1.8605 H         1 6TB         0.0532
     42 H3          7.4253   -7.3397   -2.2064 H         1 6TB         0.0532
     43 H4         13.0803   -6.8392   -3.5728 H         1 6TB         0.0559
     44 H5         11.3766   -5.6871   -4.6675 H         1 6TB         0.0288
     45 H6         10.1368   -6.1301   -3.4455 H         1 6TB         0.0288
     46 H7         10.7535   -7.4923   -5.9555 H         1 6TB         0.0266
     47 H8          9.5113   -7.9333   -4.7352 H         1 6TB         0.0266
     48 H9         11.1483   -8.8025   -2.2726 H         1 6TB         0.0288
     49 H10        12.8578   -9.0440   -2.7686 H         1 6TB         0.0288
     50 H11        15.4421   -6.5309   -0.6686 H         1 6TB         0.0310
     51 H12        14.5392   -7.7416   -1.6411 H         1 6TB         0.0310
     52 H13        -0.6804   -9.5492    8.9096 H         1 6TB         0.0777
     53 H14        -1.6841   -9.9971    7.4889 H         1 6TB         0.0777
     54 H15        -1.4498   -8.2675    7.9137 H         1 6TB         0.0777
     55 H16         0.5952  -10.1501    6.9649 H         1 6TB         0.2030
     56 H17         1.5839   -8.8264    8.6169 H         1 6TB         0.0815
     57 H18         0.9490   -7.3625    7.7922 H         1 6TB         0.0815
     58 H19         3.0923   -9.3045    6.7604 H         1 6TB         0.0339
     59 H20         3.3018   -7.5777    7.2086 H         1 6TB         0.0339
     60 H21         1.8729   -6.8621    5.3461 H         1 6TB         0.0559
     61 H22         4.1416   -8.5907    4.7244 H         1 6TB         0.1844
     62 H23         5.1472   -9.3246    3.1233 H         1 6TB         0.0553
     63 H24         7.7645  -11.6925    2.1847 H         1 6TB         0.0573
     64 H25         6.0181  -11.2797    2.2628 H         1 6TB         0.0573
     65 H26         7.1649  -10.5595    3.4430 H         1 6TB         0.0573
     66 H27        12.3184   -9.0201   -5.0968 H         1 6TB         0.0266
     67 H28        10.8644   -9.8262   -4.4165 H         1 6TB         0.0266
     68 H29        13.9973   -5.4160   -2.2751 H         1 6TB         0.0806
     69 H30        14.6607   -8.4139    0.7420 H         1 6TB         0.0232
     70 H31        12.9638   -8.0871    0.2517 H         1 6TB         0.0232
     71 H32        13.8668   -6.8764    1.2242 H         1 6TB         0.0232
     72 H33        13.3081   -3.0238    1.4612 H         1 6TB         0.0544
     73 H34        12.1759   -4.0102    2.4470 H         1 6TB         0.0544
     74 H35        11.5353   -2.8675    1.2179 H         1 6TB         0.0544
     75 H36        10.3767   -4.8677    2.1063 H         1 6TB         0.0703
     76 H37         6.2405   -5.5989    0.0364 H         1 6TB         0.0514
     77 H38         4.3537   -5.3826    1.6084 H         1 6TB         0.0548
     78 H39         1.5462   -9.8468    4.6570 H         1 6TB         0.0339
     79 H40         0.8913   -8.4617    3.7193 H         1 6TB         0.0339
     80 H41        -0.5455   -7.8078    5.6159 H         1 6TB         0.0815
     81 H42        -0.8385   -9.5322    5.2069 H         1 6TB         0.0815
@<TRIPOS>BOND
     1    2    1 ar 
     2    1   18 ar 
     3    1   19 1  
     4   21    2 1  
     5    2   35 ar 
     6   21    3 1  
     7    4    5 1  
     8    4    7 1  
     9   25    4 1  
    10    5    6 1  
    11   26    6 1  
    12    7   26 1  
    13   27    8 1  
    14    8   28 1  
    15   27    9 1  
    16    9   29 am 
    17    9   31 2  
    18   11   10 1  
    19   12   11 1  
    20   11   39 1  
    21   13   12 1  
    22   14   13 1  
    23   15   14 1  
    24   14   38 1  
    25   16   15 am 
    26   17   16 1  
    27   16   37 2  
    28   18   17 ar 
    29   17   36 ar 
    30   19   20 1  
    31   22   21 1  
    32   23   22 ar 
    33   22   34 ar 
    34   24   23 ar 
    35   25   24 1  
    36   24   32 ar 
    37   25   27 1  
    38   29   30 1  
    39   29   32 1  
    40   32   33 ar 
    41   33   34 ar 
    42   35   36 ar 
    43   38   39 1  
    44    3   40 1  
    45    3   41 1  
    46    3   42 1  
    47    4   43 1  
    48    5   44 1  
    49    5   45 1  
    50    6   46 1  
    51    6   47 1  
    52    7   48 1  
    53    7   49 1  
    54    8   50 1  
    55    8   51 1  
    56   10   52 1  
    57   10   53 1  
    58   10   54 1  
    59   11   55 1  
    60   12   56 1  
    61   12   57 1  
    62   13   58 1  
    63   13   59 1  
    64   14   60 1  
    65   15   61 1  
    66   18   62 1  
    67   20   63 1  
    68   20   64 1  
    69   20   65 1  
    70   26   66 1  
    71   26   67 1  
    72   27   68 1  
    73   28   69 1  
    74   28   70 1  
    75   28   71 1  
    76   30   72 1  
    77   30   73 1  
    78   30   74 1  
    79   33   75 1  
    80   35   76 1  
    81   36   77 1  
    82   38   78 1  
    83   38   79 1  
    84   39   80 1  
    85   39   81 1  
@<TRIPOS>SUBSTRUCTURE
     1 6TB         1

