### 
### Created by X-TOOL on Fri Nov  2 10:56:22 2018
### 

@<TRIPOS>MOLECULE
5kj2_ligand
   62    65     1     0     0
SMALL
GAST_HUCK


@<TRIPOS>ATOM
      1 C4         33.6150    8.1510  181.0870 C.ar      1 MOL        -0.0091
      2 C5         37.2970   11.8660  190.5160 C.ar      1 MOL        -0.0348
      3 C6         35.8060   10.1010  189.8610 C.ar      1 MOL        -0.0348
      4 C7         35.4080    6.7730  180.3070 C.ar      1 MOL        -0.0039
      5 C8         35.8170    8.5270  181.8730 C.ar      1 MOL        -0.0311
      6 C10        35.8900   12.1350  188.6070 C.ar      1 MOL        -0.0246
      7 C13        36.7090    9.4850  184.0730 C.2       1 MOL         0.2071
      8 C15        34.9380   11.7500  185.4200 C.2       1 MOL         0.2083
      9 C17        37.7500    7.3050  181.2290 C.3       1 MOL        -0.0164
     10 C20        32.4540   12.4900  187.9840 C.3       1 MOL        -0.0331
     11 C21        31.9410    4.4160  176.7040 C.3       1 MOL         0.0209
     12 C22        35.4360   13.0140  187.4960 C.3       1 MOL         0.0664
     13 C24        33.0570   12.7450  186.6160 C.3       1 MOL         0.1390
     14 C1         34.4830    8.8760  181.8790 C.ar      1 MOL        -0.0520
     15 C2         36.8680   12.6190  189.4450 C.ar      1 MOL        -0.0601
     16 C3         35.3670   10.8710  188.8090 C.ar      1 MOL        -0.0601
     17 C9         36.2770    7.5020  181.0920 C.ar      1 MOL        -0.0278
     18 C11        34.0640    7.1070  180.2950 C.ar      1 MOL         0.1043
     19 C12        36.7540   10.6160  190.7100 C.ar      1 MOL         0.1248
     20 C14        36.9650   11.4440  182.9440 C.2       1 MOL         0.3412
     21 C16        33.2790    5.7240  178.3350 C.2       1 MOL         0.3055
     22 C18        38.1350    8.2790  182.3360 C.3       1 MOL        -0.0367
     23 C19        36.9330    9.1780  182.6160 C.3       1 MOL         0.1444
     24 C23        36.4450   11.5810  185.3500 C.3       1 MOL         0.1481
     25 C25        32.7600   14.1370  186.0890 C.3       1 MOL         0.4125
     26 N26        36.7340   10.8480  184.1460 N.am      1 MOL        -0.1514
     27 N27        33.0940    6.4170  179.5260 N.am      1 MOL        -0.1942
     28 N28        32.0740    5.2130  177.8990 N.am      1 MOL        -0.2673
     29 N29        34.4890   12.4180  186.5580 N.am      1 MOL        -0.2491
     30 O30        36.5500    8.6800  184.9820 O.2       1 MOL        -0.3642
     31 O31        37.0210   12.6340  182.6600 O.2       1 MOL        -0.3684
     32 O32        34.1990   11.3410  184.5290 O.2       1 MOL        -0.3940
     33 O33        34.3460    5.5420  177.7550 O.2       1 MOL        -0.3817
     34 O34        37.1560   10.4550  182.0320 O.3       1 MOL        -0.3042
     35 F35        37.1560    9.8930  191.7440 F         1 MOL        -0.1893
     36 F36        31.4250   14.2790  185.9330 F         1 MOL        -0.1682
     37 F37        33.3170   14.3860  184.8880 F         1 MOL        -0.1682
     38 F38        33.1860   15.1460  186.8710 F         1 MOL        -0.1682
     39 H1         32.5609    8.4039  181.0849 H         1 MOL         0.0605
     40 H2         38.0495   12.2514  191.1945 H         1 MOL         0.0587
     41 H3         35.4099    9.1041  190.0170 H         1 MOL         0.0587
     42 H4         35.7730    5.9479  179.7062 H         1 MOL         0.0542
     43 H5         38.2689    7.5505  180.2907 H         1 MOL         0.0481
     44 H6         37.9835    6.2694  181.5171 H         1 MOL         0.0481
     45 H7         32.7030   11.4693  188.3100 H         1 MOL         0.0255
     46 H8         31.3610   12.6010  187.9294 H         1 MOL         0.0255
     47 H9         32.8607   13.2146  188.7048 H         1 MOL         0.0255
     48 H10        30.8876    4.1290  176.5701 H         1 MOL         0.0482
     49 H11        32.5588    3.5106  176.7964 H         1 MOL         0.0482
     50 H12        32.2751    5.0007  175.8342 H         1 MOL         0.0482
     51 H13        36.3247   13.3238  186.9266 H         1 MOL         0.0678
     52 H14        34.9581   13.8995  187.9404 H         1 MOL         0.0678
     53 H15        32.5566   12.0466  185.9292 H         1 MOL         0.0647
     54 H16        34.1254    9.6975  182.4892 H         1 MOL         0.0778
     55 H17        37.3021   13.5953  189.2621 H         1 MOL         0.0548
     56 H18        34.6090   10.4858  188.1366 H         1 MOL         0.0548
     57 H19        38.9908    8.8904  182.0138 H         1 MOL         0.0175
     58 H20        38.4040    7.7222  183.2457 H         1 MOL         0.0175
     59 H21        36.8030   11.0218  186.2270 H         1 MOL         0.0821
     60 H22        36.9339   12.5659  185.3184 H         1 MOL         0.0821
     61 H23        32.1606    6.4302  179.8845 H         1 MOL         0.2488
     62 H24        31.2532    5.4043  178.4373 H         1 MOL         0.1855
@<TRIPOS>BOND
     1   14    1 ar 
     2    1   18 ar 
     3   15    2 ar 
     4    2   19 ar 
     5   16    3 ar 
     6    3   19 ar 
     7   17    4 ar 
     8    4   18 ar 
     9    5   14 ar 
    10    5   17 ar 
    11   23    5 1  
    12   12    6 1  
    13    6   15 ar 
    14    6   16 ar 
    15    7   23 1  
    16   26    7 am 
    17    7   30 2  
    18   24    8 1  
    19    8   29 am 
    20    8   32 2  
    21    9   17 1  
    22   22    9 1  
    23   13   10 1  
    24   28   11 1  
    25   29   12 1  
    26   13   25 1  
    27   29   13 1  
    28   18   27 1  
    29   19   35 1  
    30   26   20 am 
    31   20   31 2  
    32   20   34 1  
    33   27   21 am 
    34   21   28 am 
    35   21   33 2  
    36   23   22 1  
    37   34   23 1  
    38   24   26 1  
    39   25   36 1  
    40   25   37 1  
    41   25   38 1  
    42    1   39 1  
    43    2   40 1  
    44    3   41 1  
    45    4   42 1  
    46    9   43 1  
    47    9   44 1  
    48   10   45 1  
    49   10   46 1  
    50   10   47 1  
    51   11   48 1  
    52   11   49 1  
    53   11   50 1  
    54   12   51 1  
    55   12   52 1  
    56   13   53 1  
    57   14   54 1  
    58   15   55 1  
    59   16   56 1  
    60   22   57 1  
    61   22   58 1  
    62   24   59 1  
    63   24   60 1  
    64   27   61 1  
    65   28   62 1  
@<TRIPOS>SUBSTRUCTURE
     1 MOL         1

