### 
### Created by X-TOOL on Mon Sep 10 21:13:27 2018
### 

@<TRIPOS>MOLECULE
5kjk_ligand
   74    78     1     0     0
SMALL
GAST_HUCK


@<TRIPOS>ATOM
      1 C1        -12.6300  -56.3730  -26.3770 C.ar      1 6T1        -0.0699
      2 C2        -12.2240  -57.6820  -26.5590 C.ar      1 6T1        -0.0683
      3 C3        -13.1650  -58.6960  -26.6840 C.ar      1 6T1        -0.0292
      4 C7        -16.3940  -56.6830  -26.3330 C.ar      1 6T1         0.0538
      5 C8        -16.8480  -55.7650  -25.3850 C.ar      1 6T1        -0.0105
      6 C9        -18.2010  -55.4440  -25.3500 C.ar      1 6T1         0.0673
      7 C10       -19.0660  -56.0950  -26.2190 C.ar      1 6T1        -0.0172
      8 C11       -18.5370  -56.9940  -27.1230 C.ar      1 6T1         0.0127
      9 C12       -18.6620  -54.3610  -24.4330 C.2       1 6T1         0.2143
     10 C13       -20.3380  -53.6820  -22.7860 C.3       1 6T1         0.0354
     11 C14       -19.9440  -54.2420  -21.4410 C.3       1 6T1         0.0076
     12 C15       -18.4520  -54.5380  -21.2930 C.3       1 6T1        -0.0300
     13 C16       -18.4730  -56.2390  -19.4770 C.3       1 6T1        -0.0317
     14 C19       -16.5770  -54.9440  -19.7570 C.3       1 6T1        -0.0317
     15 C20       -15.8540  -60.0170  -27.8730 C.3       1 6T1         0.1612
     16 C21       -17.3460  -60.2550  -28.0930 C.3       1 6T1         0.0051
     17 C22       -15.7190  -61.5430  -27.8300 C.3       1 6T1         0.0051
     18 C24       -17.6780  -64.0720  -27.1580 C.3       1 6T1         0.0214
     19 C27       -15.7560  -65.2710  -24.0910 C.ar      1 6T1        -0.0541
     20 C30       -15.4850  -65.2610  -26.8570 C.ar      1 6T1        -0.0457
     21 CL2       -13.4140  -66.5530  -23.6730 Cl        1 6T1        -0.0764
     22 C28       -14.6570  -65.8820  -24.6820 C.ar      1 6T1         0.0469
     23 C26       -16.7090  -64.6560  -24.8850 C.ar      1 6T1        -0.0594
     24 C29       -14.5360  -65.8870  -26.0700 C.ar      1 6T1         0.0477
     25 CL1       -13.2300  -66.7240  -26.8510 Cl        1 6T1        -0.0718
     26 C25       -16.5900  -64.6460  -26.2760 C.ar      1 6T1        -0.0373
     27 C23       -18.0220  -62.6060  -26.8750 C.3       1 6T1        -0.0220
     28 N4        -17.1490  -61.6300  -27.5500 N.4       1 6T1         0.2412
     29 O2        -15.5220  -59.3460  -26.6130 O.3       1 6T1        -0.3000
     30 C4        -14.5230  -58.3850  -26.6020 C.ar      1 6T1         0.1062
     31 C5        -14.9580  -57.0610  -26.4210 C.ar      1 6T1         0.0311
     32 C6        -13.9820  -56.0630  -26.3120 C.ar      1 6T1        -0.0583
     33 N1        -17.2230  -57.2780  -27.2100 N.ar      1 6T1        -0.2912
     34 O1        -17.9450  -53.3930  -24.1870 O.2       1 6T1        -0.3795
     35 N2        -19.8570  -54.5350  -23.8610 N.am      1 6T1        -0.2843
     36 N3        -18.0270  -54.9210  -19.9520 N.4       1 6T1         0.2353
     37 C18       -16.4180  -55.5600  -18.3900 C.3       1 6T1        -0.0077
     38 C17       -17.5680  -56.5170  -18.2920 C.3       1 6T1        -0.0077
     39 H1        -11.8903  -55.5859  -26.2847 H         1 6T1         0.0532
     40 H2        -11.1670  -57.9180  -26.6043 H         1 6T1         0.0606
     41 H3        -12.8473  -59.7200  -26.8439 H         1 6T1         0.0548
     42 H4        -16.1563  -55.3087  -24.6861 H         1 6T1         0.0749
     43 H5        -20.1322  -55.9018  -26.1883 H         1 6T1         0.0737
     44 H6        -19.2162  -57.4992  -27.8001 H         1 6T1         0.0829
     45 H7        -19.9032  -52.6781  -22.9002 H         1 6T1         0.0521
     46 H8        -21.4345  -53.6152  -22.8418 H         1 6T1         0.0521
     47 H9        -20.4980  -55.1791  -21.2828 H         1 6T1         0.0336
     48 H10       -20.2284  -53.5129  -20.6680 H         1 6T1         0.0336
     49 H11       -17.8951  -53.6344  -21.5817 H         1 6T1         0.0815
     50 H12       -18.1981  -55.3599  -21.9785 H         1 6T1         0.0815
     51 H13       -18.3427  -57.0025  -20.2580 H         1 6T1         0.0814
     52 H14       -19.5278  -56.2082  -19.1666 H         1 6T1         0.0814
     53 H15       -16.1604  -53.9262  -19.7809 H         1 6T1         0.0814
     54 H16       -16.0862  -55.5593  -20.5254 H         1 6T1         0.0814
     55 H17       -15.3318  -59.5239  -28.7062 H         1 6T1         0.0762
     56 H18       -17.6646  -60.2200  -29.1453 H         1 6T1         0.0846
     57 H19       -18.0054  -59.6147  -27.4887 H         1 6T1         0.0846
     58 H20       -15.0746  -61.9191  -27.0218 H         1 6T1         0.0846
     59 H21       -15.4147  -61.9988  -28.7837 H         1 6T1         0.0846
     60 H22       -18.5886  -64.6720  -27.0138 H         1 6T1         0.0479
     61 H23       -17.3486  -64.1511  -28.2045 H         1 6T1         0.0479
     62 H24       -15.8668  -65.2758  -23.0127 H         1 6T1         0.0606
     63 H25       -15.3674  -65.2492  -27.9345 H         1 6T1         0.0562
     64 H26       -17.5612  -64.1745  -24.4192 H         1 6T1         0.0559
     65 H27       -17.9483  -62.4395  -25.7902 H         1 6T1         0.0838
     66 H28       -19.0561  -62.4265  -27.2041 H         1 6T1         0.0838
     67 H29       -17.3786  -62.1012  -28.4110 H         1 6T1         0.2037
     68 H30       -14.2867  -55.0318  -26.1747 H         1 6T1         0.0611
     69 H31       -20.4419  -55.2790  -24.1840 H         1 6T1         0.1848
     70 H32       -18.4145  -54.2254  -19.3340 H         1 6T1         0.2033
     71 H33       -16.4794  -54.7921  -17.6048 H         1 6T1         0.0319
     72 H34       -15.4583  -56.0914  -18.3090 H         1 6T1         0.0319
     73 H35       -17.2020  -57.5536  -18.3302 H         1 6T1         0.0319
     74 H36       -18.1154  -56.3558  -17.3516 H         1 6T1         0.0319
@<TRIPOS>BOND
     1    2    1 ar 
     2    1   32 ar 
     3    3    2 ar 
     4   30    3 ar 
     5    4    5 ar 
     6   31    4 1  
     7    4   33 ar 
     8    5    6 ar 
     9    6    7 ar 
    10    6    9 1  
    11    8    7 ar 
    12   33    8 ar 
    13    9   34 2  
    14    9   35 am 
    15   10   11 1  
    16   35   10 1  
    17   11   12 1  
    18   12   36 1  
    19   36   13 1  
    20   13   38 1  
    21   36   14 1  
    22   14   37 1  
    23   15   16 1  
    24   15   17 1  
    25   29   15 1  
    26   16   28 1  
    27   17   28 1  
    28   18   26 1  
    29   27   18 1  
    30   19   22 ar 
    31   23   19 ar 
    32   20   24 ar 
    33   26   20 ar 
    34   22   21 1  
    35   24   22 ar 
    36   26   23 ar 
    37   24   25 1  
    38   28   27 1  
    39   30   29 1  
    40   30   31 ar 
    41   31   32 ar 
    42   37   38 1  
    43    1   39 1  
    44    2   40 1  
    45    3   41 1  
    46    5   42 1  
    47    7   43 1  
    48    8   44 1  
    49   10   45 1  
    50   10   46 1  
    51   11   47 1  
    52   11   48 1  
    53   12   49 1  
    54   12   50 1  
    55   13   51 1  
    56   13   52 1  
    57   14   53 1  
    58   14   54 1  
    59   15   55 1  
    60   16   56 1  
    61   16   57 1  
    62   17   58 1  
    63   17   59 1  
    64   18   60 1  
    65   18   61 1  
    66   19   62 1  
    67   20   63 1  
    68   23   64 1  
    69   27   65 1  
    70   27   66 1  
    71   28   67 1  
    72   32   68 1  
    73   35   69 1  
    74   36   70 1  
    75   37   71 1  
    76   37   72 1  
    77   38   73 1  
    78   38   74 1  
@<TRIPOS>SUBSTRUCTURE
     1 6T1         1

