### 
### Created by X-TOOL on Mon Sep 10 21:13:27 2018
### 

@<TRIPOS>MOLECULE
5kjm_ligand
   81    86     1     0     0
SMALL
GAST_HUCK


@<TRIPOS>ATOM
      1 C1        -55.9940   12.4910   -0.1150 C.ar      1 6TM        -0.0720
      2 C2        -57.2530   12.0210   -0.3990 C.ar      1 6TM        -0.0713
      3 C3        -58.2910   12.8970   -0.6740 C.ar      1 6TM        -0.0402
      4 C7        -56.3920   16.1740   -0.4020 C.ar      1 6TM         0.0517
      5 C8        -55.4720   16.7480    0.5870 C.ar      1 6TM        -0.0101
      6 C9        -55.1980   18.1230    0.4910 C.ar      1 6TM         0.0819
      7 C10       -55.7950   18.8660   -0.5150 C.ar      1 6TM         0.0771
      8 C11       -55.7670   20.2120   -0.9170 C.2       1 6TM         0.1181
      9 C14       -56.6410   18.2330   -1.3910 C.ar      1 6TM         0.0609
     10 C16       -54.2740   18.6890    1.4870 C.2       1 6TM         0.2153
     11 O17       -53.2300   18.0840    1.7060 O.2       1 6TM        -0.3795
     12 N18       -54.6770   19.7930    2.1180 N.am      1 6TM        -0.2843
     13 C19       -53.9190   20.3310    3.2220 C.3       1 6TM         0.0354
     14 C20       -54.5430   19.9590    4.5450 C.3       1 6TM         0.0076
     15 C21       -54.7580   18.4680    4.6830 C.3       1 6TM        -0.0300
     16 C24       -55.6180   16.4830    7.6640 C.3       1 6TM        -0.0077
     17 C31       -60.5410   16.9880   -0.1850 C.3       1 6TM        -0.0113
     18 C32       -59.6960   15.7940    0.2020 C.3       1 6TM         0.0683
     19 C33       -62.3780   17.8240   -1.5400 C.3       1 6TM        -0.0221
     20 C34       -63.8780   17.6480   -1.7350 C.3       1 6TM         0.0214
     21 C35       -64.5840   16.7740   -0.7490 C.ar      1 6TM        -0.0373
     22 C6        -55.7510   13.8390   -0.1480 C.ar      1 6TM        -0.0612
     23 C36       -64.5790   17.0640    0.6040 C.ar      1 6TM        -0.0594
     24 C37       -65.2530   16.2760    1.5160 C.ar      1 6TM        -0.0541
     25 C40       -65.3340   15.7060   -1.1900 C.ar      1 6TM        -0.0457
     26 C5        -56.7570   14.7490   -0.4050 C.ar      1 6TM         0.0200
     27 C4        -58.0500   14.2690   -0.6920 C.ar      1 6TM         0.0552
     28 C38       -66.0060   15.2160    1.0560 C.ar      1 6TM         0.0469
     29 C39       -66.0250   14.9260   -0.2930 C.ar      1 6TM         0.0477
     30 C25       -56.5840   17.6460    7.7970 C.3       1 6TM        -0.0077
     31 C23       -55.0230   16.6310    6.2980 C.3       1 6TM        -0.0317
     32 C26       -56.3950   18.5310    6.5850 C.3       1 6TM        -0.0317
     33 C28       -60.1150   14.7680   -1.9480 C.3       1 6TM         0.0683
     34 C29       -61.0080   15.9610   -2.3050 C.3       1 6TM        -0.0113
     35 N12       -56.5530   20.3920   -1.9800 N.pl3     1 6TM        -0.2420
     36 N15       -56.9620   16.9440   -1.3820 N.ar      1 6TM        -0.2888
     37 N13       -57.0920   19.1480   -2.2650 N.2       1 6TM        -0.3162
     38 N27       -59.0980   15.2020   -0.9800 N.pl3     1 6TM        -0.2952
     39 N22       -55.0710   18.0910    6.0730 N.4       1 6TM         0.2353
     40 N30       -61.6020   16.6170   -1.1310 N.4       1 6TM         0.2395
     41 CL1       -66.8400   14.1980    2.1770 Cl        1 6TM        -0.0764
     42 CL2       -66.9160   13.5810   -0.8980 Cl        1 6TM        -0.0718
     43 H1        -55.1972   11.7994    0.1338 H         1 6TM         0.0514
     44 H2        -57.4367   10.9527   -0.4081 H         1 6TM         0.0601
     45 H3        -59.2860   12.5164   -0.8742 H         1 6TM         0.0521
     46 H4        -55.0220   16.1360    1.3603 H         1 6TM         0.0746
     47 H5        -55.1873   20.9954   -0.4310 H         1 6TM         0.1385
     48 H6        -55.5142   20.2533    1.8226 H         1 6TM         0.1848
     49 H7        -53.8879   21.4271    3.1356 H         1 6TM         0.0521
     50 H8        -52.8951   19.9309    3.1831 H         1 6TM         0.0521
     51 H9        -55.5156   20.4655    4.6316 H         1 6TM         0.0336
     52 H10       -53.8803   20.2967    5.3554 H         1 6TM         0.0336
     53 H11       -53.8428   17.9448    4.3688 H         1 6TM         0.0815
     54 H12       -55.5938   18.1664    4.0346 H         1 6TM         0.0815
     55 H13       -56.1512   15.5249    7.7522 H         1 6TM         0.0319
     56 H14       -54.8356   16.5396    8.4351 H         1 6TM         0.0319
     57 H15       -59.8951   17.7457   -0.6526 H         1 6TM         0.0834
     58 H16       -61.0019   17.4078    0.7213 H         1 6TM         0.0834
     59 H17       -60.3295   15.0467    0.7022 H         1 6TM         0.0570
     60 H18       -58.9002   16.1187    0.8885 H         1 6TM         0.0570
     61 H19       -62.2318   18.5908   -0.7650 H         1 6TM         0.0838
     62 H20       -61.9591   18.1807   -2.4925 H         1 6TM         0.0838
     63 H21       -64.0362   17.2180   -2.7350 H         1 6TM         0.0479
     64 H22       -64.3398   18.6452   -1.6874 H         1 6TM         0.0479
     65 H23       -54.7447   14.1997    0.0320 H         1 6TM         0.0605
     66 H24       -64.0325   17.9312    0.9567 H         1 6TM         0.0559
     67 H25       -65.1912   16.4874    2.5774 H         1 6TM         0.0606
     68 H26       -65.3796   15.4795   -2.2491 H         1 6TM         0.0562
     69 H27       -56.3662   18.2128    8.7142 H         1 6TM         0.0319
     70 H28       -57.6184   17.2735    7.8330 H         1 6TM         0.0319
     71 H29       -55.6205   16.0949    5.5459 H         1 6TM         0.0814
     72 H30       -53.9873   16.2610    6.2753 H         1 6TM         0.0814
     73 H31       -56.3795   19.5941    6.8669 H         1 6TM         0.0814
     74 H32       -57.1864   18.3606    5.8403 H         1 6TM         0.0814
     75 H33       -59.6220   14.3918   -2.8565 H         1 6TM         0.0570
     76 H34       -60.7275   13.9687   -1.5054 H         1 6TM         0.0570
     77 H35       -61.8214   15.6057   -2.9547 H         1 6TM         0.0834
     78 H36       -60.4013   16.7006   -2.8480 H         1 6TM         0.0834
     79 H37       -56.7238   21.2736   -2.4845 H         1 6TM         0.2937
     80 H38       -54.3636   18.5220    6.6474 H         1 6TM         0.2033
     81 H39       -62.2285   15.9691   -0.6796 H         1 6TM         0.2036
@<TRIPOS>BOND
     1    2    1 ar 
     2   22    1 ar 
     3    3    2 ar 
     4   27    3 ar 
     5    4    5 ar 
     6   26    4 1  
     7    4   36 ar 
     8    5    6 ar 
     9    6    7 ar 
    10    6   10 1  
    11    7    8 2  
    12    9    7 ar 
    13    8   35 1  
    14   36    9 ar 
    15    9   37 2  
    16   10   11 2  
    17   10   12 am 
    18   12   13 1  
    19   13   14 1  
    20   14   15 1  
    21   15   39 1  
    22   30   16 1  
    23   31   16 1  
    24   18   17 1  
    25   17   40 1  
    26   38   18 1  
    27   19   20 1  
    28   40   19 1  
    29   20   21 1  
    30   21   23 ar 
    31   21   25 ar 
    32   26   22 ar 
    33   23   24 ar 
    34   24   28 ar 
    35   25   29 ar 
    36   27   26 ar 
    37   38   27 1  
    38   29   28 ar 
    39   28   41 1  
    40   29   42 1  
    41   32   30 1  
    42   39   31 1  
    43   39   32 1  
    44   33   34 1  
    45   33   38 1  
    46   34   40 1  
    47   35   37 1  
    48    1   43 1  
    49    2   44 1  
    50    3   45 1  
    51    5   46 1  
    52    8   47 1  
    53   12   48 1  
    54   13   49 1  
    55   13   50 1  
    56   14   51 1  
    57   14   52 1  
    58   15   53 1  
    59   15   54 1  
    60   16   55 1  
    61   16   56 1  
    62   17   57 1  
    63   17   58 1  
    64   18   59 1  
    65   18   60 1  
    66   19   61 1  
    67   19   62 1  
    68   20   63 1  
    69   20   64 1  
    70   22   65 1  
    71   23   66 1  
    72   24   67 1  
    73   25   68 1  
    74   30   69 1  
    75   30   70 1  
    76   31   71 1  
    77   31   72 1  
    78   32   73 1  
    79   32   74 1  
    80   33   75 1  
    81   33   76 1  
    82   34   77 1  
    83   34   78 1  
    84   35   79 1  
    85   39   80 1  
    86   40   81 1  
@<TRIPOS>SUBSTRUCTURE
     1 6TM         1

