### 
### Created by X-TOOL on Mon Sep 10 21:13:26 2018
### 

@<TRIPOS>MOLECULE
5kjn_ligand
   80    85     1     0     0
SMALL
GAST_HUCK


@<TRIPOS>ATOM
      1 C1        -64.6910  -13.4310  -24.8770 C.ar      1 6TL        -0.0792
      2 C2        -65.2250  -12.4860  -25.7500 C.ar      1 6TL        -0.0768
      3 C3        -64.9000  -12.5000  -27.1000 C.ar      1 6TL        -0.0443
      4 N6        -52.9260  -16.2220  -32.4550 N.4       1 6TL         0.2541
      5 C7        -62.6280  -15.2970  -27.4880 C.2       1 6TL        -0.0412
      6 C8        -62.7280  -14.8370  -28.7680 C.2       1 6TL         0.0166
      7 C9        -61.8970  -16.5310  -27.0340 C.3       1 6TL         0.0041
      8 C10       -60.8480  -16.3780  -25.9420 C.3       1 6TL        -0.0276
      9 C11       -58.6120  -15.8430  -26.8150 C.3       1 6TL        -0.0114
     10 C12       -57.5650  -14.7310  -26.9920 C.3       1 6TL         0.0680
     11 C13       -58.5520  -13.5550  -25.1050 C.3       1 6TL         0.0680
     12 C14       -59.5130  -14.6950  -24.9110 C.3       1 6TL        -0.0114
     13 C15       -56.2780  -12.9550  -25.7140 C.ar      1 6TL         0.0534
     14 C16       -56.6620  -11.6090  -25.6410 C.ar      1 6TL        -0.0413
     15 C19       -53.9670  -12.2380  -25.7280 C.ar      1 6TL        -0.0628
     16 C20       -54.9000  -13.2850  -25.7520 C.ar      1 6TL         0.0098
     17 C21       -54.3600  -14.6760  -25.8100 C.ar      1 6TL         0.0088
     18 C22       -53.4100  -15.0270  -26.7750 C.ar      1 6TL        -0.0190
     19 C24       -53.2870  -17.2040  -25.8480 C.ar      1 6TL         0.0283
     20 C27       -51.3980  -18.3510  -29.6490 C.3       1 6TL         0.0353
     21 C30       -54.1430  -16.5260  -33.2120 C.3       1 6TL        -0.0136
     22 C31       -54.2890  -15.3420  -34.1180 C.2       1 6TL        -0.0494
     23 C32       -53.5710  -14.3320  -33.6390 C.2       1 6TL        -0.0494
     24 C33       -52.9190  -14.7600  -32.3620 C.3       1 6TL        -0.0136
     25 O         -50.9540  -15.9780  -28.2070 O.2       1 6TL        -0.3817
     26 C26       -51.9000  -16.7010  -27.8880 C.2       1 6TL         0.2121
     27 N5        -52.1580  -17.8570  -28.5080 N.am      1 6TL        -0.2849
     28 C28       -51.4870  -17.4460  -30.8530 C.3       1 6TL         0.0077
     29 C29       -52.8660  -16.8920  -31.1600 C.3       1 6TL        -0.0277
     30 C23       -52.8590  -16.3010  -26.8100 C.ar      1 6TL         0.0752
     31 N4        -54.2130  -16.9170  -24.9240 N.ar      1 6TL        -0.2932
     32 C25       -54.7210  -15.6780  -24.9150 C.ar      1 6TL         0.0190
     33 C18       -54.3720  -10.9110  -25.6800 C.ar      1 6TL        -0.0730
     34 C17       -55.7120  -10.6000  -25.6370 C.ar      1 6TL        -0.0722
     35 N3        -57.3070  -14.0110  -25.7340 N.pl3     1 6TL        -0.2958
     36 N2        -59.8510  -15.3160  -26.1970 N.4       1 6TL         0.2389
     37 C5        -63.4680  -14.4460  -26.6890 C.ar      1 6TL        -0.0214
     38 C6        -63.8130  -14.4070  -25.3350 C.ar      1 6TL        -0.0747
     39 N1        -63.5750  -13.7610  -28.8240 N.pl3     1 6TL        -0.2891
     40 C4        -64.0360  -13.4910  -27.5580 C.ar      1 6TL         0.0603
     41 H1        -64.9632  -13.4052  -23.8280 H         1 6TL         0.0510
     42 H2        -65.9029  -11.7300  -25.3707 H         1 6TL         0.0530
     43 H3        -65.3078  -11.7596  -27.7786 H         1 6TL         0.0541
     44 H4        -52.1231  -16.5225  -32.9852 H         1 6TL         0.2057
     45 H5        -62.2084  -15.2642  -29.6244 H         1 6TL         0.0795
     46 H6        -61.3929  -16.9554  -27.9148 H         1 6TL         0.0401
     47 H7        -62.6516  -17.2415  -26.6656 H         1 6TL         0.0401
     48 H8        -60.3138  -17.3343  -25.8416 H         1 6TL         0.0830
     49 H9        -61.3644  -16.1457  -24.9990 H         1 6TL         0.0830
     50 H10       -58.1949  -16.6296  -26.1690 H         1 6TL         0.0834
     51 H11       -58.8547  -16.2680  -27.8001 H         1 6TL         0.0834
     52 H12       -57.9310  -14.0148  -27.7424 H         1 6TL         0.0570
     53 H13       -56.6246  -15.1812  -27.3427 H         1 6TL         0.0570
     54 H14       -58.3179  -13.1125  -24.1255 H         1 6TL         0.0570
     55 H15       -59.0213  -12.7956  -25.7477 H         1 6TL         0.0570
     56 H16       -60.4324  -14.3157  -24.4410 H         1 6TL         0.0834
     57 H17       -59.0509  -15.4490  -24.2569 H         1 6TL         0.0834
     58 H18       -57.7143  -11.3543  -25.5870 H         1 6TL         0.0518
     59 H19       -52.9082  -12.4697  -25.7473 H         1 6TL         0.0597
     60 H20       -53.0986  -14.2917  -27.5081 H         1 6TL         0.0771
     61 H21       -52.8484  -18.1953  -25.8439 H         1 6TL         0.0852
     62 H22       -51.7862  -19.3422  -29.9261 H         1 6TL         0.0521
     63 H23       -50.3418  -18.4400  -29.3547 H         1 6TL         0.0521
     64 H24       -55.0107  -16.6193  -32.5425 H         1 6TL         0.0939
     65 H25       -54.0255  -17.4536  -33.7914 H         1 6TL         0.0939
     66 H26       -54.8892  -15.3136  -35.0263 H         1 6TL         0.0504
     67 H27       -53.4728  -13.3509  -34.1012 H         1 6TL         0.0504
     68 H28       -51.8911  -14.3741  -32.2955 H         1 6TL         0.0939
     69 H29       -53.4963  -14.4176  -31.4905 H         1 6TL         0.0939
     70 H30       -52.9159  -18.4146  -28.1694 H         1 6TL         0.1846
     71 H31       -51.1493  -18.0169  -31.7305 H         1 6TL         0.0336
     72 H32       -50.8104  -16.5948  -30.6867 H         1 6TL         0.0336
     73 H33       -53.5874  -17.7224  -31.1592 H         1 6TL         0.0815
     74 H34       -53.1377  -16.1693  -30.3765 H         1 6TL         0.0815
     75 H35       -55.4623  -15.4402  -24.1607 H         1 6TL         0.0840
     76 H36       -53.6320  -10.1189  -25.6764 H         1 6TL         0.0512
     77 H37       -56.0252   -9.5629  -25.5999 H         1 6TL         0.0594
     78 H38       -60.2544  -14.6270  -26.8123 H         1 6TL         0.2036
     79 H39       -63.3983  -15.1337  -24.6458 H         1 6TL         0.0540
     80 H40       -63.8253  -13.2396  -29.6763 H         1 6TL         0.2216
@<TRIPOS>BOND
     1    1    2 ar 
     2   38    1 ar 
     3    2    3 ar 
     4    3   40 ar 
     5    4   21 1  
     6    4   24 1  
     7   29    4 1  
     8    5    6 2  
     9    5    7 1  
    10   37    5 1  
    11    6   39 1  
    12    7    8 1  
    13    8   36 1  
    14    9   10 1  
    15   36    9 1  
    16   10   35 1  
    17   12   11 1  
    18   11   35 1  
    19   36   12 1  
    20   13   14 ar 
    21   13   16 ar 
    22   35   13 1  
    23   14   34 ar 
    24   16   15 ar 
    25   15   33 ar 
    26   16   17 1  
    27   17   18 ar 
    28   17   32 ar 
    29   18   30 ar 
    30   30   19 ar 
    31   31   19 ar 
    32   27   20 1  
    33   20   28 1  
    34   21   22 1  
    35   23   22 2  
    36   24   23 1  
    37   26   25 2  
    38   26   27 am 
    39   30   26 1  
    40   28   29 1  
    41   32   31 ar 
    42   34   33 ar 
    43   37   38 ar 
    44   37   40 ar 
    45   39   40 1  
    46    1   41 1  
    47    2   42 1  
    48    3   43 1  
    49    4   44 1  
    50    6   45 1  
    51    7   46 1  
    52    7   47 1  
    53    8   48 1  
    54    8   49 1  
    55    9   50 1  
    56    9   51 1  
    57   10   52 1  
    58   10   53 1  
    59   11   54 1  
    60   11   55 1  
    61   12   56 1  
    62   12   57 1  
    63   14   58 1  
    64   15   59 1  
    65   18   60 1  
    66   19   61 1  
    67   20   62 1  
    68   20   63 1  
    69   21   64 1  
    70   21   65 1  
    71   22   66 1  
    72   23   67 1  
    73   24   68 1  
    74   24   69 1  
    75   27   70 1  
    76   28   71 1  
    77   28   72 1  
    78   29   73 1  
    79   29   74 1  
    80   32   75 1  
    81   33   76 1  
    82   34   77 1  
    83   36   78 1  
    84   38   79 1  
    85   39   80 1  
@<TRIPOS>SUBSTRUCTURE
     1 6TL         1

