### 
### Created by X-TOOL on Mon Sep 10 21:13:30 2018
### 

@<TRIPOS>MOLECULE
5kkr_ligand
   50    53     1     0     0
SMALL
GAST_HUCK


@<TRIPOS>ATOM
      1 C4        -70.1040   53.5200   -7.5770 C.ar      1 6U7         0.1473
      2 C5        -70.9230   53.5870   -6.4550 C.ar      1 6U7         0.0384
      3 C6        -71.7230   52.4980   -6.1180 C.ar      1 6U7         0.0258
      4 N1        -71.7010   51.3960   -6.8810 N.ar      1 6U7        -0.3062
      5 N3        -70.0700   52.4290   -8.3520 N.ar      1 6U7        -0.2622
      6 CBB       -74.5250   53.0770   -3.1910 C.3       1 6U7         0.0601
      7 OBA       -73.3250   53.8500   -3.1010 O.3       1 6U7        -0.3163
      8 CAG       -72.5570   53.7050   -4.2160 C.ar      1 6U7         0.1320
      9 CAF       -72.5450   52.5520   -4.9950 C.ar      1 6U7        -0.0171
     10 CAH       -71.7580   54.7870   -4.5500 C.ar      1 6U7         0.1317
     11 OAY       -71.8370   55.8700   -3.7250 O.3       1 6U7        -0.3200
     12 CAZ       -70.5750   56.5380   -3.6240 C.3       1 6U7         0.0583
     13 CAC       -70.9370   54.7380   -5.6710 C.ar      1 6U7        -0.0174
     14 C2        -70.8750   51.3350   -8.0140 C.ar      1 6U7         0.0517
     15 NAK       -69.3760   54.6050   -7.8320 N.pl3     1 6U7        -0.2569
     16 CAL       -68.4130   54.5390   -8.7520 C.ar      1 6U7         0.0607
     17 CAQ       -68.7480   54.8920  -10.0560 C.ar      1 6U7        -0.0268
     18 CBC       -70.0390   55.2810  -10.3900 C.3       1 6U7        -0.0350
     19 CAP       -67.7740   54.8490  -11.0440 C.ar      1 6U7        -0.0350
     20 CAM       -67.1160   54.1580   -8.4300 C.ar      1 6U7        -0.0500
     21 CAN       -66.1440   54.1210   -9.4250 C.ar      1 6U7        -0.0434
     22 CAO       -66.4770   54.4580  -10.7360 C.ar      1 6U7         0.0992
     23 OAR       -65.5430   54.4400  -11.7280 O.3       1 6U7        -0.2662
     24 CAS       -65.0330   53.2150  -12.0360 C.ar      1 6U7         0.1134
     25 CAT       -63.7270   53.1390  -12.5020 C.ar      1 6U7        -0.0290
     26 CAU       -63.1720   51.9100  -12.8320 C.ar      1 6U7        -0.0699
     27 CAV       -63.9300   50.7530  -12.7000 C.ar      1 6U7        -0.0725
     28 CAW       -65.2400   50.8250  -12.2390 C.ar      1 6U7        -0.0699
     29 CAX       -65.7940   52.0560  -11.9100 C.ar      1 6U7        -0.0290
     30 H1        -75.1205   53.2166   -2.2767 H         1 6U7         0.0579
     31 H2        -74.2684   52.0132   -3.3026 H         1 6U7         0.0579
     32 H3        -75.1091   53.4067   -4.0628 H         1 6U7         0.0579
     33 H4        -73.1684   51.7054   -4.7308 H         1 6U7         0.0495
     34 H5        -70.6715   57.4046   -2.9535 H         1 6U7         0.0575
     35 H6        -70.2599   56.8792   -4.6211 H         1 6U7         0.0575
     36 H7        -69.8238   55.8435   -3.2197 H         1 6U7         0.0575
     37 H8        -70.3146   55.5863   -5.9319 H         1 6U7         0.0546
     38 H9        -70.8605   50.4411   -8.6270 H         1 6U7         0.1015
     39 H10       -69.5542   55.4839   -7.3253 H         1 6U7         0.2173
     40 H11       -70.0852   55.5148  -11.4639 H         1 6U7         0.0369
     41 H12       -70.3153   56.1728   -9.8084 H         1 6U7         0.0369
     42 H13       -70.7388   54.4634  -10.1623 H         1 6U7         0.0369
     43 H14       -68.0269   55.1222  -12.0621 H         1 6U7         0.0465
     44 H15       -66.8631   53.8913   -7.4102 H         1 6U7         0.0500
     45 H16       -65.1286   53.8303   -9.1809 H         1 6U7         0.0472
     46 H17       -63.1385   54.0431  -12.6085 H         1 6U7         0.0550
     47 H18       -62.1509   51.8532  -13.1914 H         1 6U7         0.0590
     48 H19       -63.4992   49.7920  -12.9570 H         1 6U7         0.0526
     49 H20       -65.8289   49.9207  -12.1363 H         1 6U7         0.0590
     50 H21       -66.8169   52.1139  -11.5559 H         1 6U7         0.0550
@<TRIPOS>BOND
     1    2    1 ar 
     2    1    5 ar 
     3    1   15 1  
     4    3    2 ar 
     5    2   13 ar 
     6    3    4 ar 
     7    9    3 ar 
     8    4   14 ar 
     9   14    5 ar 
    10    7    6 1  
    11    8    7 1  
    12    8    9 ar 
    13    8   10 ar 
    14   10   11 1  
    15   10   13 ar 
    16   11   12 1  
    17   15   16 1  
    18   16   17 ar 
    19   16   20 ar 
    20   17   18 1  
    21   17   19 ar 
    22   19   22 ar 
    23   20   21 ar 
    24   21   22 ar 
    25   22   23 1  
    26   23   24 1  
    27   24   25 ar 
    28   24   29 ar 
    29   25   26 ar 
    30   26   27 ar 
    31   27   28 ar 
    32   28   29 ar 
    33    6   30 1  
    34    6   31 1  
    35    6   32 1  
    36    9   33 1  
    37   12   34 1  
    38   12   35 1  
    39   12   36 1  
    40   13   37 1  
    41   14   38 1  
    42   15   39 1  
    43   18   40 1  
    44   18   41 1  
    45   18   42 1  
    46   19   43 1  
    47   20   44 1  
    48   21   45 1  
    49   25   46 1  
    50   26   47 1  
    51   27   48 1  
    52   28   49 1  
    53   29   50 1  
@<TRIPOS>SUBSTRUCTURE
     1 6U7         1

