### 
### Created by X-TOOL on Wed Jan  1 15:39:34 2020
### 

@<TRIPOS>MOLECULE
5kks_ligand
   46    49     1     0     0
SMALL
GAST_HUCK


@<TRIPOS>ATOM
      1 C1         51.9460  107.6180   37.8350 C.3       1 6U1         0.0788
      2 C6         50.0930  106.3760   35.3570 C.ar      1 6U1         0.0557
      3 C8         49.2550  104.0980   35.2640 C.ar      1 6U1        -0.0838
      4 C9         50.3070  103.7210   34.4410 C.ar      1 6U1        -0.0752
      5 C11        51.1470  105.9820   34.5440 C.ar      1 6U1        -0.0425
      6 C12        52.3820  104.3410   33.1530 C.3       1 6U1         0.0746
      7 C18        50.8510  103.5420   27.4400 C.2       1 6U1        -0.0229
      8 C21        50.6590  102.5600   26.3610 C.2       1 6U1        -0.0139
      9 C25        50.6830  100.6100   25.1680 C.ar      1 6U1         0.1376
     10 C26        50.9400  101.1300   26.4460 C.ar      1 6U1         0.0092
     11 C28        51.5560   98.9510   27.1660 C.ar      1 6U1        -0.0502
     12 S2         50.2800  108.1620   37.3450 S.o2      1 6U1         0.0572
     13 O3         49.3370  107.3730   38.0650 O.2       1 6U1        -0.1501
     14 O4         50.2240  109.5890   37.3330 O.2       1 6U1        -0.1501
     15 N5         50.0340  107.7190   35.7610 N.am      1 6U1        -0.1934
     16 C7         49.1450  105.4110   35.7220 C.ar      1 6U1        -0.0521
     17 C10        51.2510  104.6740   34.0850 C.ar      1 6U1        -0.0397
     18 C13        52.0000  104.8250   31.7700 C.2       1 6U1         0.2263
     19 O14        51.8550  106.0050   31.5260 O.2       1 6U1        -0.3770
     20 N15        51.7980  103.8950   30.8180 N.am      1 6U1        -0.1924
     21 C16        51.4390  104.1420   29.4950 C.2       1 6U1         0.2040
     22 N17        51.1960  103.1940   28.6570 N.2       1 6U1        -0.3219
     23 C19        50.8620  104.8650   27.2320 C.2       1 6U1        -0.0109
     24 S20        51.2920  105.6610   28.7350 S.3       1 6U1         0.0049
     25 C22        50.2890  102.8140   25.0870 C.2       1 6U1         0.0366
     26 N23        50.2820  101.6460   24.3750 N.pl3     1 6U1        -0.2636
     27 C27        51.3770  100.2860   27.4590 C.ar      1 6U1        -0.0542
     28 C29        51.2820   98.5150   25.8780 C.ar      1 6U1        -0.0053
     29 N30        50.8400   99.3240   24.9360 N.ar      1 6U1        -0.2853
     30 H1         51.9852  106.5187   37.8431 H         1 6U1         0.0487
     31 H2         52.1757  108.0004   38.8405 H         1 6U1         0.0487
     32 H3         52.6842  108.0059   37.1177 H         1 6U1         0.0487
     33 H4         48.5112  103.3646   35.5539 H         1 6U1         0.0556
     34 H5         50.3898  102.7012   34.0829 H         1 6U1         0.0419
     35 H6         51.9021  106.7069   34.2622 H         1 6U1         0.0420
     36 H7         52.5457  103.2534   33.1368 H         1 6U1         0.0664
     37 H8         53.3014  104.8453   33.4852 H         1 6U1         0.0664
     38 H9         51.9027   98.2582   27.9242 H         1 6U1         0.0600
     39 H10        49.8396  108.4257   35.0807 H         1 6U1         0.2157
     40 H11        48.3183  105.6874   36.3664 H         1 6U1         0.0429
     41 H12        51.9166  102.9387   31.0852 H         1 6U1         0.2414
     42 H13        50.6412  105.3627   26.2889 H         1 6U1         0.0496
     43 H14        50.0358  103.7955   24.6888 H         1 6U1         0.0972
     44 H15        50.0132  101.5607   23.3844 H         1 6U1         0.2318
     45 H16        51.5723  100.6675   28.4547 H         1 6U1         0.0674
     46 H17        51.4372   97.4696   25.6371 H         1 6U1         0.0752
@<TRIPOS>BOND
     1   12    1 1  
     2    5    2 ar 
     3    2   15 1  
     4    2   16 ar 
     5    4    3 ar 
     6    3   16 ar 
     7   17    4 ar 
     8   17    5 ar 
     9    6   17 1  
    10   18    6 1  
    11    7    8 1  
    12   22    7 1  
    13    7   23 2  
    14    8   10 1  
    15    8   25 2  
    16   10    9 ar 
    17    9   26 1  
    18    9   29 ar 
    19   10   27 ar 
    20   27   11 ar 
    21   11   28 ar 
    22   12   13 2  
    23   12   14 2  
    24   15   12 am 
    25   18   19 2  
    26   20   18 am 
    27   21   20 1  
    28   21   22 2  
    29   21   24 1  
    30   23   24 1  
    31   25   26 1  
    32   28   29 ar 
    33    1   30 1  
    34    1   31 1  
    35    1   32 1  
    36    3   33 1  
    37    4   34 1  
    38    5   35 1  
    39    6   36 1  
    40    6   37 1  
    41   11   38 1  
    42   15   39 1  
    43   16   40 1  
    44   20   41 1  
    45   23   42 1  
    46   25   43 1  
    47   26   44 1  
    48   27   45 1  
    49   28   46 1  
@<TRIPOS>SUBSTRUCTURE
     1 6U1         1

