### 
### Created by X-TOOL on Wed Jan  1 15:39:34 2020
### 

@<TRIPOS>MOLECULE
5kkt_ligand
   67    71     1     0     0
SMALL
GAST_HUCK


@<TRIPOS>ATOM
      1 C1         53.3070  115.6270   36.1270 C.3       1 6U2        -0.0427
      2 C3         51.3820  114.1740   36.1340 C.3       1 6U2         0.0092
      3 C4         50.6270  113.0700   36.8890 C.3       1 6U2         0.0094
      4 C6         52.6990  112.3910   37.9840 C.3       1 6U2         0.0094
      5 C7         53.4830  113.4430   37.1890 C.3       1 6U2         0.0092
      6 C8         50.8550  110.8110   37.7650 C.3       1 6U2        -0.0290
      7 C9         51.0840  109.5680   36.9100 C.3       1 6U2         0.0153
      8 C10        49.9720  109.3640   35.8860 C.3       1 6U2         0.0751
      9 C12        49.4750  106.9700   35.3980 C.ar      1 6U2         0.0849
     10 C13        48.4380  106.0410   35.4950 C.ar      1 6U2        -0.0398
     11 N2         52.5930  114.5760   36.8700 N.4       1 6U2         0.2405
     12 N5         51.5570  111.9550   37.1680 N.4       1 6U2         0.2428
     13 O11        49.3710  108.0920   36.1560 O.3       1 6U2        -0.3195
     14 C14        48.5320  104.8070   34.8510 C.ar      1 6U2        -0.0768
     15 C15        49.6610  104.4810   34.0960 C.ar      1 6U2        -0.0690
     16 C16        50.6920  105.4030   34.0010 C.ar      1 6U2        -0.0325
     17 C17        50.6100  106.6390   34.6570 C.ar      1 6U2        -0.0298
     18 C18        51.9220  105.0590   33.1990 C.3       1 6U2         0.0760
     19 C19        51.6870  105.4530   31.7660 C.2       1 6U2         0.2265
     20 O20        51.6560  106.6350   31.4570 O.2       1 6U2        -0.3770
     21 N21        51.4810  104.4380   30.8980 N.am      1 6U2        -0.1924
     22 C22        51.2440  104.5500   29.5360 C.2       1 6U2         0.2040
     23 N23        51.0960  103.5400   28.7390 N.2       1 6U2        -0.3219
     24 C24        50.8760  103.8110   27.4620 C.2       1 6U2        -0.0229
     25 C25        50.8440  105.1250   27.1740 C.2       1 6U2        -0.0109
     26 S26        51.1340  106.0030   28.6710 S.3       1 6U2         0.0049
     27 C27        50.6760  102.7560   26.4380 C.2       1 6U2        -0.0139
     28 C28        50.1350  102.9130   25.2080 C.2       1 6U2         0.0366
     29 N29        50.1160  101.7050   24.5680 N.pl3     1 6U2        -0.2636
     30 C31        50.6370  100.7290   25.3590 C.ar      1 6U2         0.1376
     31 C32        51.0110  101.3330   26.5750 C.ar      1 6U2         0.0092
     32 C33        51.5750  100.5490   27.5890 C.ar      1 6U2        -0.0542
     33 C34        51.7250   99.1890   27.3490 C.ar      1 6U2        -0.0502
     34 C35        51.3260   98.6460   26.1220 C.ar      1 6U2        -0.0053
     35 N36        50.8100   99.4140   25.1710 N.ar      1 6U2        -0.2853
     36 H1         52.6159  116.4539   35.9063 H         1 6U2         0.0778
     37 H2         53.6943  115.2115   35.1850 H         1 6U2         0.0778
     38 H3         54.1443  116.0012   36.7344 H         1 6U2         0.0778
     39 H4         50.7234  115.0474   36.0187 H         1 6U2         0.0868
     40 H5         51.6711  113.7991   35.1411 H         1 6U2         0.0868
     41 H6         49.7909  112.7074   36.2730 H         1 6U2         0.0868
     42 H7         50.2375  113.4711   37.8363 H         1 6U2         0.0868
     43 H8         52.3376  112.8293   38.9260 H         1 6U2         0.0868
     44 H9         53.3484  111.5311   38.2050 H         1 6U2         0.0868
     45 H10        53.8568  112.9955   36.2563 H         1 6U2         0.0868
     46 H11        54.3319  113.8006   37.7902 H         1 6U2         0.0868
     47 H12        51.2407  110.6337   38.7798 H         1 6U2         0.0815
     48 H13        49.7778  111.0279   37.8149 H         1 6U2         0.0815
     49 H14        51.1262  108.6875   37.5680 H         1 6U2         0.0343
     50 H15        52.0409  109.6745   36.3781 H         1 6U2         0.0343
     51 H16        50.3907  109.3739   34.8689 H         1 6U2         0.0615
     52 H17        49.2215  110.1625   35.9814 H         1 6U2         0.0615
     53 H18        47.5536  106.2799   36.0746 H         1 6U2         0.0488
     54 H19        52.2931  114.9716   37.7473 H         1 6U2         0.2035
     55 H20        51.9271  111.6468   36.2825 H         1 6U2         0.2038
     56 H21        47.7203  104.0937   34.9375 H         1 6U2         0.0573
     57 H22        49.7299  103.5233   33.5929 H         1 6U2         0.0468
     58 H23        51.4327  107.3414   34.5883 H         1 6U2         0.0482
     59 H24        52.1131  103.9774   33.2592 H         1 6U2         0.0665
     60 H25        52.7888  105.6072   33.5965 H         1 6U2         0.0665
     61 H26        51.5015  103.5124   31.2759 H         1 6U2         0.2414
     62 H27        50.6703  105.5649   26.1931 H         1 6U2         0.0496
     63 H28        49.7722  103.8524   24.7935 H         1 6U2         0.0972
     64 H29        49.7556  101.5543   23.6149 H         1 6U2         0.2318
     65 H30        51.8843  100.9889   28.5302 H         1 6U2         0.0674
     66 H31        52.1512   98.5479   28.1122 H         1 6U2         0.0600
     67 H32        51.4403   97.5825   25.9462 H         1 6U2         0.0752
@<TRIPOS>BOND
     1   11    1 1  
     2    3    2 1  
     3    2   11 1  
     4   12    3 1  
     5    4    5 1  
     6   12    4 1  
     7    5   11 1  
     8    7    6 1  
     9    6   12 1  
    10    8    7 1  
    11   13    8 1  
    12    9   10 ar 
    13    9   13 1  
    14    9   17 ar 
    15   10   14 ar 
    16   14   15 ar 
    17   15   16 ar 
    18   16   17 ar 
    19   16   18 1  
    20   18   19 1  
    21   19   20 2  
    22   19   21 am 
    23   21   22 1  
    24   22   23 2  
    25   22   26 1  
    26   23   24 1  
    27   24   25 2  
    28   24   27 1  
    29   25   26 1  
    30   27   28 2  
    31   27   31 1  
    32   28   29 1  
    33   29   30 1  
    34   30   31 ar 
    35   30   35 ar 
    36   31   32 ar 
    37   32   33 ar 
    38   33   34 ar 
    39   34   35 ar 
    40    1   36 1  
    41    1   37 1  
    42    1   38 1  
    43    2   39 1  
    44    2   40 1  
    45    3   41 1  
    46    3   42 1  
    47    4   43 1  
    48    4   44 1  
    49    5   45 1  
    50    5   46 1  
    51    6   47 1  
    52    6   48 1  
    53    7   49 1  
    54    7   50 1  
    55    8   51 1  
    56    8   52 1  
    57   10   53 1  
    58   11   54 1  
    59   12   55 1  
    60   14   56 1  
    61   15   57 1  
    62   17   58 1  
    63   18   59 1  
    64   18   60 1  
    65   21   61 1  
    66   25   62 1  
    67   28   63 1  
    68   29   64 1  
    69   32   65 1  
    70   33   66 1  
    71   34   67 1  
@<TRIPOS>SUBSTRUCTURE
     1 6U2         1

