### 
### Created by X-TOOL on Mon Sep 10 21:13:30 2018
### 

@<TRIPOS>MOLECULE
5kls_ligand
   60    61     1     0     0
SMALL
GAST_HUCK


@<TRIPOS>ATOM
      1 CAA       165.4290   40.7510   18.9220 C.3       1 6UC        -0.0374
      2 CAL       164.9770   41.3270   17.5210 C.3       1 6UC         0.0711
      3 OAS       165.6100   40.5660   16.4830 O.3       1 6UC        -0.2881
      4 CAV       164.8630   40.0410   15.3810 C.2       1 6UC         0.2190
      5 OAF       164.0350   40.7180   14.8310 O.2       1 6UC        -0.3921
      6 CAY       165.0280   38.5800   14.8700 C.2       1 6UC         0.0512
      7 CAW       164.3830   37.5560   15.5270 C.2       1 6UC         0.0919
      8 NAP       164.8540   36.1280   15.1100 N.pl3     1 6UC        -0.2553
      9 CAT       166.3050   36.2570   15.2910 C.2       1 6UC         0.0629
     10 CAX       166.9300   37.0390   14.4260 C.2       1 6UC         0.0486
     11 CBB       166.0780   38.1790   13.8210 C.3       1 6UC         0.0296
     12 CBA       165.1820   38.0930   12.4090 C.ar      1 6UC        -0.0290
     13 CAK       163.8840   38.6790   12.4850 C.ar      1 6UC        -0.0578
     14 CAI       162.9620   38.7460   11.4370 C.ar      1 6UC        -0.0670
     15 CAH       163.2990   38.2370   10.2030 C.ar      1 6UC        -0.0672
     16 CAJ       164.5520   37.6800   10.0560 C.ar      1 6UC        -0.0603
     17 CAZ       165.4630   37.6150   11.1090 C.ar      1 6UC         0.0133
     18 BRAG      167.0440   36.7820   10.4640 Br        1 6UC        -0.0573
     19 CAU       168.5700   37.0900   14.8070 C.2       1 6UC         0.2186
     20 OAE       169.3660   37.3470   13.9910 O.2       1 6UC        -0.3921
     21 OAQ       169.0040   36.9370   16.1690 O.3       1 6UC        -0.2911
     22 CAB       170.1700   36.2110   16.5700 C.3       1 6UC         0.0629
     23 CAC       167.0400   35.0740   15.9620 C.3       1 6UC         0.0000
     24 C24       163.6550   37.8350   16.7710 C.3       1 6UC         0.1120
     25 O25       164.6710   38.1250   17.7920 O.3       1 6UC        -0.3556
     26 C26       164.9930   37.0550   18.6700 C.3       1 6UC         0.0910
     27 C27       166.3700   37.2940   19.3380 C.3       1 6UC        -0.0082
     28 N28       166.9540   36.0730   19.9880 N.4       1 6UC         0.2325
     29 C21       166.1360   34.8510   19.9250 C.3       1 6UC        -0.0433
     30 C22       168.3390   35.8080   19.5220 C.3       1 6UC        -0.0433
     31 H1        164.9496   41.3271   19.7272 H         1 6UC         0.0255
     32 H2        166.5222   40.8299   19.0155 H         1 6UC         0.0255
     33 H3        165.1297   39.6953   18.9983 H         1 6UC         0.0255
     34 H4        165.2766   42.3824   17.4409 H         1 6UC         0.0606
     35 H5        163.8842   41.2477   17.4237 H         1 6UC         0.0606
     36 H6        164.3001   35.3188   14.7949 H         1 6UC         0.2222
     37 H7        166.7841   39.0094   13.6735 H         1 6UC         0.0538
     38 H8        163.5878   39.1084   13.4353 H         1 6UC         0.0556
     39 H9        161.9883   39.1956   11.5946 H         1 6UC         0.0619
     40 H10       162.6019   38.2729    9.3736 H         1 6UC         0.0555
     41 H11       164.8378   37.2797    9.0900 H         1 6UC         0.0622
     42 H12       170.2689   36.2519   17.6648 H         1 6UC         0.0573
     43 H13       171.0597   36.6601   16.1044 H         1 6UC         0.0573
     44 H14       170.0777   35.1629   16.2492 H         1 6UC         0.0573
     45 H15       168.1135   35.3027   16.0341 H         1 6UC         0.0465
     46 H16       166.8985   34.1649   15.3591 H         1 6UC         0.0465
     47 H17       166.6310   34.9126   16.9703 H         1 6UC         0.0465
     48 H18       163.0581   36.9596   17.0667 H         1 6UC         0.0801
     49 H19       162.9922   38.7026   16.6372 H         1 6UC         0.0801
     50 H20       165.0266   36.1158   18.0984 H         1 6UC         0.0616
     51 H21       164.2206   36.9822   19.4498 H         1 6UC         0.0616
     52 H22       166.2511   38.0716   20.1069 H         1 6UC         0.0837
     53 H23       167.0721   37.6447   18.5672 H         1 6UC         0.0837
     54 H24       167.0232   36.3004   20.9676 H         1 6UC         0.2028
     55 H25       166.6643   34.0296   20.4312 H         1 6UC         0.0777
     56 H26       165.9606   34.5810   18.8732 H         1 6UC         0.0777
     57 H27       165.1718   35.0290   20.4236 H         1 6UC         0.0777
     58 H28       168.9286   36.7349   19.5787 H         1 6UC         0.0777
     59 H29       168.3140   35.4525   18.4813 H         1 6UC         0.0777
     60 H30       168.8003   35.0404   20.1608 H         1 6UC         0.0777
@<TRIPOS>BOND
     1    1    2 1  
     2    2    3 1  
     3    3    4 1  
     4    4    5 2  
     5    4    6 1  
     6    6    7 2  
     7    6   11 1  
     8    7    8 1  
     9    7   24 1  
    10    8    9 1  
    11    9   10 2  
    12    9   23 1  
    13   10   11 1  
    14   10   19 1  
    15   11   12 1  
    16   12   13 ar 
    17   12   17 ar 
    18   13   14 ar 
    19   14   15 ar 
    20   15   16 ar 
    21   16   17 ar 
    22   17   18 1  
    23   19   20 2  
    24   19   21 1  
    25   21   22 1  
    26   24   25 1  
    27   25   26 1  
    28   26   27 1  
    29   27   28 1  
    30   28   29 1  
    31   28   30 1  
    32    1   31 1  
    33    1   32 1  
    34    1   33 1  
    35    2   34 1  
    36    2   35 1  
    37    8   36 1  
    38   11   37 1  
    39   13   38 1  
    40   14   39 1  
    41   15   40 1  
    42   16   41 1  
    43   22   42 1  
    44   22   43 1  
    45   22   44 1  
    46   23   45 1  
    47   23   46 1  
    48   23   47 1  
    49   24   48 1  
    50   24   49 1  
    51   26   50 1  
    52   26   51 1  
    53   27   52 1  
    54   27   53 1  
    55   28   54 1  
    56   29   55 1  
    57   29   56 1  
    58   29   57 1  
    59   30   58 1  
    60   30   59 1  
    61   30   60 1  
@<TRIPOS>SUBSTRUCTURE
     1 6UC         1

