### 
### Created by X-TOOL on Mon Sep 10 21:13:31 2018
### 

@<TRIPOS>MOLECULE
5km9_ligand
   32    34     1     0     0
SMALL
GAST_HUCK


@<TRIPOS>ATOM
      1 O5'       -11.3380   -0.4910    3.1350 O.3       1 ADN        -0.3924
      2 C5'       -10.8560   -0.5630    1.7920 C.3       1 ADN         0.0730
      3 C4'       -10.8340   -1.9860    1.2930 C.3       1 ADN         0.1135
      4 O4'        -9.7180   -2.6690    1.9320 O.3       1 ADN        -0.3368
      5 C3'       -12.0940   -2.8000    1.6340 C.3       1 ADN         0.1146
      6 O3'       -12.4590   -3.6540    0.5420 O.3       1 ADN        -0.3864
      7 C2'       -11.6440   -3.6320    2.8370 C.3       1 ADN         0.1385
      8 O2'       -12.3250   -4.8550    3.0360 O.3       1 ADN        -0.3836
      9 C1'       -10.1740   -3.8620    2.5270 C.3       1 ADN         0.2010
     10 N9         -9.3930   -4.1300    3.7350 N.pl3     1 ADN        -0.1919
     11 C8         -9.4410   -3.4310    4.8920 C.2       1 ADN         0.1123
     12 N7         -8.6160   -3.9780    5.8190 N.2       1 ADN        -0.2958
     13 C5         -8.0320   -5.0510    5.2580 C.ar      1 ADN         0.1045
     14 C6         -7.0620   -6.0760    5.6820 C.ar      1 ADN         0.1298
     15 N6         -6.5350   -6.0580    6.9240 N.pl3     1 ADN        -0.3152
     16 N1         -6.7170   -7.0210    4.7850 N.ar      1 ADN        -0.2698
     17 C2         -7.2390   -7.0500    3.5450 C.ar      1 ADN         0.0533
     18 N3         -8.1360   -6.1620    3.0930 N.ar      1 ADN        -0.2714
     19 C4         -8.5550   -5.1510    3.8940 C.ar      1 ADN         0.1613
     20 H1        -11.3405    0.4148    3.4212 H         1 ADN         0.2095
     21 H2         -9.8353   -0.1547    1.7553 H         1 ADN         0.0584
     22 H3        -11.5134    0.0341    1.1429 H         1 ADN         0.0584
     23 H4        -10.7001   -1.9745    0.2013 H         1 ADN         0.0647
     24 H5        -12.9377   -2.1432    1.8926 H         1 ADN         0.0648
     25 H6        -13.2378   -4.1465    0.7732 H         1 ADN         0.2100
     26 H7        -11.7538   -3.0364    3.7552 H         1 ADN         0.0676
     27 H8        -12.2079   -5.4091    2.2733 H         1 ADN         0.2101
     28 H9        -10.0651   -4.7062    1.8303 H         1 ADN         0.0996
     29 H10       -10.0581   -2.5490    5.0567 H         1 ADN         0.1349
     30 H11        -5.8580   -6.7809    7.2067 H         1 ADN         0.1820
     31 H12        -6.8097   -5.3213    7.5894 H         1 ADN         0.1820
     32 H13        -6.9156   -7.8366    2.8729 H         1 ADN         0.0996
@<TRIPOS>BOND
     1    1    2 1  
     2    2    3 1  
     3    3    4 1  
     4    3    5 1  
     5    4    9 1  
     6    5    6 1  
     7    5    7 1  
     8    7    8 1  
     9    7    9 1  
    10    9   10 1  
    11   10   11 1  
    12   10   19 1  
    13   11   12 2  
    14   12   13 1  
    15   13   14 ar 
    16   13   19 ar 
    17   14   15 1  
    18   14   16 ar 
    19   16   17 ar 
    20   17   18 ar 
    21   18   19 ar 
    22    1   20 1  
    23    2   21 1  
    24    2   22 1  
    25    3   23 1  
    26    5   24 1  
    27    6   25 1  
    28    7   26 1  
    29    8   27 1  
    30    9   28 1  
    31   11   29 1  
    32   15   30 1  
    33   15   31 1  
    34   17   32 1  
@<TRIPOS>SUBSTRUCTURE
     1 ADN         1

