### 
### Created by X-TOOL on Mon Sep 10 21:13:29 2018
### 

@<TRIPOS>MOLECULE
5kmf_ligand
   58    59     1     0     0
SMALL
GAST_HUCK


@<TRIPOS>ATOM
      1 C13        -4.4110  134.5270   18.2580 C.3       1 6U9        -0.0393
      2 C12        -5.3080  134.2870   17.0730 C.3       1 6U9         0.0591
      3 C10        -7.7010  131.3520   16.6250 C.2       1 6U9        -0.1213
      4 C01       -12.1650  131.6240   10.5350 C.3       1 6U9         0.0366
      5 O02       -10.8970  131.0110   10.5940 O.3       1 6U9        -0.3804
      6 C03        -9.8070  131.7810   11.1180 C.3       1 6U9         0.0751
      7 C04        -9.8120  131.8570   12.6660 C.3       1 6U9         0.1002
      8 O05        -8.4910  132.1060   13.1660 O.3       1 6U9        -0.2723
      9 C06        -8.5190  132.8680   14.3140 C.2       1 6U9         0.2558
     10 O07        -9.6190  133.1450   14.8330 O.2       1 6U9        -0.3660
     11 C08        -7.2330  133.2480   15.0780 C.3       1 6U9         0.1277
     12 C09        -7.0600  132.6000   16.3580 C.2       1 6U9         0.0300
     13 N11        -5.8610  132.9280   17.1280 N.pl3     1 6U9        -0.3113
     14 C14        -5.4780  135.0960   15.8890 C.3       1 6U9         0.0996
     15 C15        -6.5060  134.5880   14.7860 C.3       1 6U9         0.0514
     16 C16        -5.7920  134.5460   13.2600 C.ar      1 6U9        -0.0244
     17 C17        -5.5590  135.6870   12.5580 C.ar      1 6U9        -0.0169
     18 C18        -4.8640  135.6630   11.2920 C.ar      1 6U9         0.1930
     19 C19        -4.4720  134.4250   10.7990 C.ar      1 6U9        -0.0258
     20 C20        -4.7320  133.2550   11.5400 C.ar      1 6U9        -0.0603
     21 C21        -5.3650  133.3520   12.7790 C.ar      1 6U9        -0.0543
     22 N22        -4.5540  136.8830   10.4460 N.2       1 6U9         0.3131
     23 O23        -5.2150  138.1170   10.8070 O.2       1 6U9         0.1781
     24 O24        -3.7830  136.9200    9.4630 O.2       1 6U9         0.1781
     25 C25        -5.0690  136.6590   15.8010 C.2       1 6U9         0.2419
     26 O26        -5.5590  137.2690   14.9080 O.2       1 6U9        -0.3698
     27 O27        -4.3690  137.4400   16.7750 O.3       1 6U9        -0.2737
     28 C28        -3.9720  138.8640   16.6420 C.3       1 6U9         0.0820
     29 C29        -4.5010  139.8050   17.7670 C.3       1 6U9        -0.0345
     30 C30        -2.4510  138.9200   16.7980 C.3       1 6U9        -0.0345
     31 H1         -4.0020  135.5469   18.2077 H         1 6U9         0.0254
     32 H2         -3.5856  133.8000   18.2463 H         1 6U9         0.0254
     33 H3         -4.9899  134.4095   19.1859 H         1 6U9         0.0254
     34 H4         -6.1754  134.7631   17.5536 H         1 6U9         0.0585
     35 H5         -7.5679  130.8672   17.5910 H         1 6U9        -0.0086
     36 H6         -8.3229  130.8852   15.8626 H         1 6U9        -0.0086
     37 H7        -12.8949  130.9168   10.1142 H         1 6U9         0.0524
     38 H8        -12.1107  132.5181    9.8966 H         1 6U9         0.0524
     39 H9        -12.4789  131.9154   11.5482 H         1 6U9         0.0524
     40 H10        -9.8739  132.8028   10.7162 H         1 6U9         0.0586
     41 H11        -8.8629  131.3199   10.7923 H         1 6U9         0.0586
     42 H12       -10.1782  130.9030   13.0731 H         1 6U9         0.0636
     43 H13       -10.4784  132.6719   12.9853 H         1 6U9         0.0636
     44 H14        -6.5424  132.6110   14.5059 H         1 6U9         0.0794
     45 H15        -5.4058  132.2080   17.7071 H         1 6U9         0.1824
     46 H16        -4.5696  134.7258   15.3914 H         1 6U9         0.0606
     47 H17        -7.2959  135.3524   14.7456 H         1 6U9         0.0546
     48 H18        -5.9021  136.6347   12.9569 H         1 6U9         0.0630
     49 H19        -3.9654  134.3588    9.8429 H         1 6U9         0.0634
     50 H20        -4.4420  132.2862   11.1497 H         1 6U9         0.0614
     51 H21        -5.5187  132.4557   13.3690 H         1 6U9         0.0600
     52 H22        -4.2915  139.2402   15.6590 H         1 6U9         0.0644
     53 H23        -4.1546  140.8320   17.5790 H         1 6U9         0.0258
     54 H24        -4.1208  139.4623   18.7406 H         1 6U9         0.0258
     55 H25        -5.6008  139.7847   17.7750 H         1 6U9         0.0258
     56 H26        -2.1111  139.9621   16.7060 H         1 6U9         0.0258
     57 H27        -1.9792  138.3099   16.0137 H         1 6U9         0.0258
     58 H28        -2.1691  138.5284   17.7865 H         1 6U9         0.0258
@<TRIPOS>BOND
     1    2    1 1  
     2   13    2 1  
     3    2   14 1  
     4   12    3 2  
     5    5    4 1  
     6    6    5 1  
     7    7    6 1  
     8    8    7 1  
     9    9    8 1  
    10    9   10 2  
    11   11    9 1  
    12   12   11 1  
    13   11   15 1  
    14   12   13 1  
    15   14   15 1  
    16   14   25 1  
    17   15   16 1  
    18   16   17 ar 
    19   16   21 ar 
    20   17   18 ar 
    21   18   19 ar 
    22   18   22 1  
    23   19   20 ar 
    24   20   21 ar 
    25   22   23 2  
    26   22   24 2  
    27   25   26 2  
    28   25   27 1  
    29   27   28 1  
    30   28   29 1  
    31   28   30 1  
    32    1   31 1  
    33    1   32 1  
    34    1   33 1  
    35    2   34 1  
    36    3   35 1  
    37    3   36 1  
    38    4   37 1  
    39    4   38 1  
    40    4   39 1  
    41    6   40 1  
    42    6   41 1  
    43    7   42 1  
    44    7   43 1  
    45   11   44 1  
    46   13   45 1  
    47   14   46 1  
    48   15   47 1  
    49   17   48 1  
    50   19   49 1  
    51   20   50 1  
    52   21   51 1  
    53   28   52 1  
    54   29   53 1  
    55   29   54 1  
    56   29   55 1  
    57   30   56 1  
    58   30   57 1  
    59   30   58 1  
@<TRIPOS>SUBSTRUCTURE
     1 6U9         1

