### 
### Created by X-TOOL on Wed Jan  1 15:39:34 2020
### 

@<TRIPOS>MOLECULE
5ko5_ligand
   14    14     1     0     0
SMALL
GAST_HUCK


@<TRIPOS>ATOM
      1 N3         -3.5170   72.0970   79.4700 N.am      1 CYT        -0.2070
      2 C4         -2.9830   70.9740   78.9880 C.cat     1 CYT         0.2762
      3 N1         -1.4670   73.2200   79.0420 N.2       1 CYT        -0.2384
      4 C2         -2.7810   73.2360   79.5240 C.2       1 CYT         0.2496
      5 O2         -3.2430   74.2750   80.0070 O.2       1 CYT        -0.3834
      6 N4         -3.7540   69.8810   78.9730 N.pl3     1 CYT        -0.2192
      7 C5         -1.6470   70.9390   78.4820 C.3       1 CYT         0.1108
      8 C6         -0.9340   72.0730   78.5360 C.2       1 CYT         0.0340
      9 H1         -4.4634   72.0998   79.7929 H         1 CYT         0.1928
     10 H2         -3.3810   68.9926   78.6091 H         1 CYT         0.4602
     11 H3         -4.7207   69.9278   79.3254 H         1 CYT         0.4602
     12 H4         -1.7025   70.6349   77.4263 H         1 CYT         0.0666
     13 H5         -1.0978   70.1772   79.0547 H         1 CYT         0.0666
     14 H6          0.0910   72.0773   78.1683 H         1 CYT         0.1310
@<TRIPOS>BOND
     1    1    2 ar 
     2    1    4 am 
     3    2    6 ar 
     4    2    7 1  
     5    4    3 1  
     6    3    8 2  
     7    4    5 2  
     8    7    8 1  
     9    1    9 1  
    10    6   10 1  
    11    6   11 1  
    12    7   12 1  
    13    7   13 1  
    14    8   14 1  
@<TRIPOS>SUBSTRUCTURE
     1 CYT         1

