### 
### Created by X-TOOL on Mon Sep 10 21:13:29 2018
### 

@<TRIPOS>MOLECULE
5koq_ligand
   66    68     1     0     0
SMALL
GAST_HUCK


@<TRIPOS>ATOM
      1 C4        -46.6020    1.0150    8.0460 C.3       1 6VR         0.0365
      2 C6        -44.1810    1.0220    7.1220 C.3       1 6VR         0.0846
      3 C7        -44.7160    1.1580    5.6760 C.3       1 6VR        -0.0199
      4 C8        -43.6470    1.7420    4.7380 C.3       1 6VR        -0.0103
      5 C15       -46.8340   -1.9320    9.2840 C.ar      1 6VR         0.0649
      6 C17       -47.5130   -2.5710   11.3890 C.ar      1 6VR         0.0925
      7 C21       -44.4510   -0.4480   13.3070 C.3       1 6VR         0.0941
      8 C22       -43.2240    0.3200   13.7280 C.2       1 6VR         0.1177
      9 C24       -41.8510    1.8000   14.6380 C.2       1 6VR        -0.0808
     10 C28       -49.8940   -2.6250   12.0880 C.3       1 6VR        -0.0741
     11 C1        -46.1980    2.3490   10.2520 C.3       1 6VR        -0.0608
     12 C2        -46.9850    2.2100    8.9430 C.3       1 6VR        -0.0263
     13 C3        -48.4760    2.0920    9.2670 C.3       1 6VR        -0.0608
     14 N5        -45.2070    0.4850    8.0520 N.am      1 6VR        -0.2609
     15 C9        -43.2090    3.1100    5.2740 C.3       1 6VR        -0.0335
     16 N10       -42.6490    2.9430    6.6320 N.4       1 6VR         0.2286
     17 C11       -43.5710    2.3440    7.6200 C.3       1 6VR        -0.0099
     18 C12       -44.8250   -0.5530    8.8650 C.2       1 6VR         0.2331
     19 O13       -43.6800   -0.9760    8.8190 O.2       1 6VR        -0.3745
     20 C14       -45.7410   -1.2310    9.8130 C.ar      1 6VR         0.1474
     21 N16       -47.6820   -2.5580   10.0770 N.ar      1 6VR        -0.2512
     22 N18       -46.4840   -1.9350   11.9440 N.ar      1 6VR        -0.2246
     23 C19       -45.5730   -1.2590   11.2250 C.ar      1 6VR         0.1800
     24 N20       -44.5120   -0.6140   11.8450 N.pl3     1 6VR        -0.2774
     25 C23       -43.2080    1.4240   14.4970 C.2       1 6VR        -0.0685
     26 C25       -41.1170    0.9060   13.9510 C.2       1 6VR         0.0670
     27 O26       -41.9540    0.0130   13.4030 O.3       1 6VR        -0.2667
     28 C27       -48.5320   -3.3130   12.2340 C.3       1 6VR        -0.0079
     29 C29       -48.6450   -4.7750   11.7850 C.3       1 6VR        -0.0741
     30 C30       -48.1790   -3.3030   13.7220 C.3       1 6VR        -0.0741
     31 H1        -46.8220    1.3139    7.0105 H         1 6VR         0.0525
     32 H2        -47.2582    0.1805    8.3341 H         1 6VR         0.0525
     33 H3        -43.3647    0.2853    7.0929 H         1 6VR         0.0611
     34 H4        -45.5921    1.8232    5.6790 H         1 6VR         0.0291
     35 H5        -45.0113    0.1643    5.3081 H         1 6VR         0.0291
     36 H6        -44.0662    1.8584    3.7277 H         1 6VR         0.0318
     37 H7        -42.7802    1.0658    4.6997 H         1 6VR         0.0318
     38 H8        -46.9839   -1.9598    8.2108 H         1 6VR         0.1024
     39 H9        -45.3457    0.0973   13.6419 H         1 6VR         0.0720
     40 H10       -44.4293   -1.4416   13.7784 H         1 6VR         0.0720
     41 H11       -41.4718    2.6535   15.1980 H         1 6VR         0.0296
     42 H12       -50.6402   -3.1560   12.6974 H         1 6VR         0.0161
     43 H13       -50.2027   -2.6431   11.0324 H         1 6VR         0.0161
     44 H14       -49.8166   -1.5823   12.4296 H         1 6VR         0.0161
     45 H15       -46.5566    3.2306   10.8036 H         1 6VR         0.0233
     46 H16       -45.1282    2.4683   10.0258 H         1 6VR         0.0233
     47 H17       -46.3448    1.4479   10.8656 H         1 6VR         0.0233
     48 H18       -46.8173    3.1284    8.3613 H         1 6VR         0.0315
     49 H19       -49.0475    1.9919    8.3324 H         1 6VR         0.0233
     50 H20       -48.8069    2.9930    9.8044 H         1 6VR         0.0233
     51 H21       -48.6454    1.2063    9.8970 H         1 6VR         0.0233
     52 H22       -44.0770    3.7845    5.3143 H         1 6VR         0.0814
     53 H23       -42.4430    3.5373    4.6101 H         1 6VR         0.0814
     54 H24       -42.3753    3.8519    6.9711 H         1 6VR         0.2014
     55 H25       -41.8361    2.3508    6.5642 H         1 6VR         0.2014
     56 H26       -43.0159    2.1496    8.5495 H         1 6VR         0.0837
     57 H27       -44.3852    3.0558    7.8211 H         1 6VR         0.0837
     58 H28       -43.7458   -0.2410   11.2664 H         1 6VR         0.1899
     59 H29       -44.0712    1.9297   14.9271 H         1 6VR         0.0219
     60 H30       -40.0321    0.9073   13.8564 H         1 6VR         0.0854
     61 H31       -47.6671   -5.2675   11.8903 H         1 6VR         0.0161
     62 H32       -48.9627   -4.8119   10.7325 H         1 6VR         0.0161
     63 H33       -49.3862   -5.2944   12.4102 H         1 6VR         0.0161
     64 H34       -48.0916   -2.2635   14.0711 H         1 6VR         0.0161
     65 H35       -47.2219   -3.8230   13.8753 H         1 6VR         0.0161
     66 H36       -48.9697   -3.8152   14.2899 H         1 6VR         0.0161
@<TRIPOS>BOND
     1    1   12 1  
     2   14    1 1  
     3    2    3 1  
     4   14    2 1  
     5    2   17 1  
     6    3    4 1  
     7    4   15 1  
     8   20    5 ar 
     9    5   21 ar 
    10    6   21 ar 
    11   22    6 ar 
    12    6   28 1  
    13    7    8 1  
    14   24    7 1  
    15    8   25 2  
    16    8   27 1  
    17   25    9 1  
    18    9   26 2  
    19   28   10 1  
    20   12   11 1  
    21   12   13 1  
    22   18   14 am 
    23   16   15 1  
    24   17   16 1  
    25   18   19 2  
    26   20   18 1  
    27   23   20 ar 
    28   23   22 ar 
    29   23   24 1  
    30   26   27 1  
    31   28   29 1  
    32   28   30 1  
    33    1   31 1  
    34    1   32 1  
    35    2   33 1  
    36    3   34 1  
    37    3   35 1  
    38    4   36 1  
    39    4   37 1  
    40    5   38 1  
    41    7   39 1  
    42    7   40 1  
    43    9   41 1  
    44   10   42 1  
    45   10   43 1  
    46   10   44 1  
    47   11   45 1  
    48   11   46 1  
    49   11   47 1  
    50   12   48 1  
    51   13   49 1  
    52   13   50 1  
    53   13   51 1  
    54   15   52 1  
    55   15   53 1  
    56   16   54 1  
    57   16   55 1  
    58   17   56 1  
    59   17   57 1  
    60   24   58 1  
    61   25   59 1  
    62   26   60 1  
    63   29   61 1  
    64   29   62 1  
    65   29   63 1  
    66   30   64 1  
    67   30   65 1  
    68   30   66 1  
@<TRIPOS>SUBSTRUCTURE
     1 6VR         1

