### 
### Created by X-TOOL on Mon Sep 10 21:13:28 2018
### 

@<TRIPOS>MOLECULE
5kos_ligand
   84    86     1     0     0
SMALL
GAST_HUCK


@<TRIPOS>ATOM
      1 C4         13.1430  -43.3940    0.8530 C.3       1 6VS        -0.0088
      2 C5         12.5330  -44.0450   -0.3810 C.3       1 6VS         0.0331
      3 C7         10.3630  -45.0510   -0.9640 C.ar      1 6VS         0.1780
      4 C13         8.0280  -44.1170   -0.3910 C.2       1 6VS         0.2331
      5 C17         8.5470  -46.3230    1.9150 C.3       1 6VS        -0.0263
      6 C20         6.3390  -43.3350    1.1990 C.3       1 6VS         0.0869
      7 C22         6.6610  -42.9770    2.6490 C.3       1 6VS        -0.0096
      8 C24         4.2990  -42.6470    3.2070 C.3       1 6VS        -0.0136
      9 C28         2.4730  -43.3460    1.6870 C.2       1 6VS         0.1869
     10 C1         13.6320  -39.8600    1.5590 C.3       1 6VS         0.0364
     11 O2         13.9830  -41.2380    1.5050 O.3       1 6VS        -0.3829
     12 C3         13.1950  -41.9070    0.5330 C.3       1 6VS         0.0492
     13 N6         11.0650  -44.0970   -0.2600 N.pl3     1 6VS        -0.2915
     14 N8         11.0460  -46.0010   -1.6060 N.ar      1 6VS        -0.2247
     15 C9         10.4450  -46.9360   -2.3000 C.ar      1 6VS         0.0925
     16 N10         9.1160  -46.9840   -2.3770 N.ar      1 6VS        -0.2512
     17 C11         8.3450  -46.0920   -1.7870 C.ar      1 6VS         0.0649
     18 C12         8.9370  -45.0790   -1.0340 C.ar      1 6VS         0.1472
     19 O14         7.9700  -43.0260   -0.9040 O.2       1 6VS        -0.3745
     20 N15         7.2500  -44.4020    0.7000 N.am      1 6VS        -0.2607
     21 C16         7.2290  -45.7340    1.3790 C.3       1 6VS         0.0365
     22 C18         9.2190  -45.4660    2.9940 C.3       1 6VS        -0.0608
     23 C19         8.2280  -47.7050    2.4840 C.3       1 6VS        -0.0608
     24 N23         5.6530  -42.0820    3.2470 N.4       1 6VS         0.2305
     25 C25         3.8940  -42.8180    1.7390 C.3       1 6VS         0.0908
     26 C27         4.8720  -43.7890    1.0450 C.3       1 6VS         0.0000
     27 O29         2.3370  -44.5480    1.5940 O.2       1 6VS        -0.3964
     28 N30         1.3490  -42.5640    1.7480 N.am      1 6VS        -0.2684
     29 C31        -0.0050  -43.1820    1.6970 C.3       1 6VS         0.0573
     30 C32        -0.7550  -42.7940    2.9850 C.3       1 6VS         0.0681
     31 O33        -0.6780  -41.3670    3.1760 O.3       1 6VS        -0.3758
     32 C34         0.6410  -40.7960    3.2190 C.3       1 6VS         0.0681
     33 C35         1.3620  -41.0860    1.8840 C.3       1 6VS         0.0573
     34 C36        11.2700  -47.9910   -2.9970 C.3       1 6VS        -0.0079
     35 C37        12.7760  -47.6860   -2.9670 C.3       1 6VS        -0.0741
     36 C38        11.0370  -49.3040   -2.2360 C.3       1 6VS        -0.0741
     37 C39        10.8280  -48.1130   -4.4640 C.3       1 6VS        -0.0741
     38 H1         14.1547  -43.7851    1.0356 H         1 6VS         0.0307
     39 H2         12.5141  -43.5769    1.7368 H         1 6VS         0.0307
     40 H3         12.9250  -45.0677   -0.4829 H         1 6VS         0.0527
     41 H4         12.8030  -43.4584   -1.2715 H         1 6VS         0.0527
     42 H5          9.2499  -46.4270    1.0753 H         1 6VS         0.0315
     43 H6          6.4886  -42.4353    0.5841 H         1 6VS         0.0613
     44 H7          7.6399  -42.4762    2.6797 H         1 6VS         0.0837
     45 H8          6.7046  -43.9038    3.2399 H         1 6VS         0.0837
     46 H9          3.5965  -41.9662    3.7100 H         1 6VS         0.0842
     47 H10         4.2882  -43.6240    3.7123 H         1 6VS         0.0842
     48 H11        14.2496  -39.3537    2.3155 H         1 6VS         0.0523
     49 H12        12.5698  -39.7624    1.8277 H         1 6VS         0.0523
     50 H13        13.8054  -39.3986    0.5756 H         1 6VS         0.0523
     51 H14        12.1752  -41.4948    0.5418 H         1 6VS         0.0560
     52 H15        13.6406  -41.7621   -0.4622 H         1 6VS         0.0560
     53 H16        10.5689  -43.4269    0.3448 H         1 6VS         0.1870
     54 H17         7.2668  -46.1454   -1.8859 H         1 6VS         0.1024
     55 H18         6.5435  -45.6480    2.2349 H         1 6VS         0.0525
     56 H19         6.8239  -46.4573    0.6560 H         1 6VS         0.0525
     57 H20        10.1490  -45.9530    3.3225 H         1 6VS         0.0233
     58 H21         8.5393  -45.3572    3.8520 H         1 6VS         0.0233
     59 H22         9.4510  -44.4729    2.5818 H         1 6VS         0.0233
     60 H23         7.7460  -48.3184    1.7085 H         1 6VS         0.0233
     61 H24         7.5491  -47.6001    3.3431 H         1 6VS         0.0233
     62 H25         9.1593  -48.1913    2.8098 H         1 6VS         0.0233
     63 H26         5.6539  -41.2108    2.7400 H         1 6VS         0.2016
     64 H27         5.9030  -41.9115    4.2085 H         1 6VS         0.2016
     65 H28         3.9361  -41.8434    1.2308 H         1 6VS         0.0592
     66 H29         4.7597  -44.7874    1.4928 H         1 6VS         0.0318
     67 H30         4.6251  -43.8375   -0.0258 H         1 6VS         0.0318
     68 H31         0.0864  -44.2764    1.6338 H         1 6VS         0.0545
     69 H32        -0.5529  -42.8085    0.8193 H         1 6VS         0.0545
     70 H33        -0.2954  -43.3040    3.8444 H         1 6VS         0.0580
     71 H34        -1.8093  -43.0960    2.9002 H         1 6VS         0.0580
     72 H35         1.2087  -41.2426    4.0486 H         1 6VS         0.0580
     73 H36         0.5669  -39.7088    3.3688 H         1 6VS         0.0580
     74 H37         0.8257  -40.6167    1.0461 H         1 6VS         0.0545
     75 H38         2.3954  -40.7104    1.9142 H         1 6VS         0.0545
     76 H39        13.3225  -48.4860   -3.4878 H         1 6VS         0.0161
     77 H40        13.1177  -47.6281   -1.9230 H         1 6VS         0.0161
     78 H41        12.9657  -46.7257   -3.4688 H         1 6VS         0.0161
     79 H42         9.9640  -49.5460   -2.2424 H         1 6VS         0.0161
     80 H43        11.3813  -49.1919   -1.1973 H         1 6VS         0.0161
     81 H44        11.5986  -50.1148   -2.7230 H         1 6VS         0.0161
     82 H45        11.0070  -47.1589   -4.9814 H         1 6VS         0.0161
     83 H46         9.7562  -48.3568   -4.5050 H         1 6VS         0.0161
     84 H47        11.4045  -48.9105   -4.9556 H         1 6VS         0.0161
@<TRIPOS>BOND
     1    2    1 1  
     2    1   12 1  
     3   13    2 1  
     4    3   13 1  
     5    3   14 ar 
     6   18    3 ar 
     7    4   18 1  
     8    4   19 2  
     9   20    4 am 
    10   21    5 1  
    11    5   22 1  
    12    5   23 1  
    13    6    7 1  
    14   20    6 1  
    15    6   26 1  
    16    7   24 1  
    17   24    8 1  
    18    8   25 1  
    19   25    9 1  
    20    9   27 2  
    21    9   28 am 
    22   11   10 1  
    23   12   11 1  
    24   14   15 ar 
    25   16   15 ar 
    26   15   34 1  
    27   17   16 ar 
    28   18   17 ar 
    29   20   21 1  
    30   25   26 1  
    31   28   29 1  
    32   28   33 1  
    33   29   30 1  
    34   30   31 1  
    35   31   32 1  
    36   32   33 1  
    37   34   35 1  
    38   34   36 1  
    39   34   37 1  
    40    1   38 1  
    41    1   39 1  
    42    2   40 1  
    43    2   41 1  
    44    5   42 1  
    45    6   43 1  
    46    7   44 1  
    47    7   45 1  
    48    8   46 1  
    49    8   47 1  
    50   10   48 1  
    51   10   49 1  
    52   10   50 1  
    53   12   51 1  
    54   12   52 1  
    55   13   53 1  
    56   17   54 1  
    57   21   55 1  
    58   21   56 1  
    59   22   57 1  
    60   22   58 1  
    61   22   59 1  
    62   23   60 1  
    63   23   61 1  
    64   23   62 1  
    65   24   63 1  
    66   24   64 1  
    67   25   65 1  
    68   26   66 1  
    69   26   67 1  
    70   29   68 1  
    71   29   69 1  
    72   30   70 1  
    73   30   71 1  
    74   32   72 1  
    75   32   73 1  
    76   33   74 1  
    77   33   75 1  
    78   35   76 1  
    79   35   77 1  
    80   35   78 1  
    81   36   79 1  
    82   36   80 1  
    83   36   81 1  
    84   37   82 1  
    85   37   83 1  
    86   37   84 1  
@<TRIPOS>SUBSTRUCTURE
     1 6VS         1

