### 
### Created by X-TOOL on Wed Jan  1 15:39:35 2020
### 

@<TRIPOS>MOLECULE
5kpk_ligand
   51    55     1     0     0
SMALL
GAST_HUCK


@<TRIPOS>ATOM
      1 O          15.6280   -2.0070    0.4960 O.2       1 6VK        -0.3938
      2 C4         15.5400   -2.3010   -0.6880 C.2       1 6VK         0.0990
      3 C5         14.6340   -3.3890   -1.1300 C.2       1 6VK        -0.0266
      4 C6         14.6570   -3.7680   -2.4390 C.2       1 6VK         0.1122
      5 C7         15.5220   -3.0490   -3.4480 C.3       1 6VK         0.0465
      6 C1         15.8390   -1.5900   -3.0970 C.3       1 6VK         0.0020
      7 C2         14.5970   -0.7250   -3.0830 C.3       1 6VK        -0.0544
      8 C          16.8330   -1.0710   -4.1430 C.3       1 6VK        -0.0544
      9 C3         16.4480   -1.6070   -1.6960 C.3       1 6VK         0.0249
     10 C14        13.7770   -4.0630   -0.0800 C.3       1 6VK        -0.0778
     11 C15        14.6070   -4.8300    0.9390 C.3       1 6VK        -0.1314
     12 C16        12.7810   -3.1200    0.5600 C.ar      1 6VK        -0.1287
     13 C17        12.6400   -2.9390    1.9590 C.ar      1 6VK        -0.0737
     14 C18        11.6380   -2.0960    2.4480 C.ar      1 6VK        -0.0551
     15 C19        10.7920   -1.4250    1.5980 C.ar      1 6VK        -0.0541
     16 C20        10.9220   -1.6130    0.2070 C.ar      1 6VK        -0.0551
     17 C21        11.9040   -2.4510   -0.3020 C.ar      1 6VK        -0.0737
     18 C13        13.0170   -5.1290   -0.7610 C.2       1 6VK        -0.0462
     19 C9         12.0450   -6.1090   -0.2540 C.2       1 6VK         0.0096
     20 C10        11.4680   -6.2200    1.1030 C.3       1 6VK        -0.0020
     21 C11        11.6230   -7.4080    2.0100 C.3       1 6VK        -0.0385
     22 C12        10.3070   -7.1780    1.2550 C.3       1 6VK        -0.0385
     23 N2         11.6250   -6.9330   -1.3580 N.2       1 6VK        -0.2202
     24 N1         12.3150   -6.5280   -2.5320 N.pl3     1 6VK        -0.1796
     25 C8         13.1030   -5.5190   -2.1520 C.2       1 6VK         0.2190
     26 N          13.9720   -4.8090   -3.0220 N.pl3     1 6VK        -0.1827
     27 H1         15.0016   -3.0629   -4.4170 H         1 6VK         0.0612
     28 H2         16.4731   -3.5948   -3.5347 H         1 6VK         0.0612
     29 H3         14.8730    0.3087   -2.8273 H         1 6VK         0.0239
     30 H4         13.8895   -1.1113   -2.3346 H         1 6VK         0.0239
     31 H5         14.1260   -0.7436   -4.0769 H         1 6VK         0.0239
     32 H6         17.7303   -1.7072   -4.1435 H         1 6VK         0.0239
     33 H7         17.1169   -0.0370   -3.8978 H         1 6VK         0.0239
     34 H8         16.3649   -1.0966   -5.1381 H         1 6VK         0.0239
     35 H9         17.4099   -2.1394   -1.7332 H         1 6VK         0.0486
     36 H10        16.6151   -0.5702   -1.3687 H         1 6VK         0.0486
     37 H11        15.2241   -4.1246    1.5148 H         1 6VK        -0.0017
     38 H12        15.2589   -5.5458    0.4168 H         1 6VK        -0.0017
     39 H13        13.9380   -5.3740    1.6220 H         1 6VK        -0.0017
     40 H14        13.3050   -3.4511    2.6451 H         1 6VK         0.0669
     41 H15        11.5261   -1.9690    3.5187 H         1 6VK         0.0639
     42 H16        10.0334   -0.7588    1.9926 H         1 6VK         0.0683
     43 H17        10.2496   -1.0990   -0.4703 H         1 6VK         0.0639
     44 H18        11.9925   -2.5884   -1.3736 H         1 6VK         0.0669
     45 H19        11.4372   -5.2204    1.5611 H         1 6VK         0.0458
     46 H20        11.6644   -7.2669    3.1001 H         1 6VK         0.0290
     47 H21        12.2852   -8.2379    1.7222 H         1 6VK         0.0290
     48 H22        10.0243   -7.8399    0.4232 H         1 6VK         0.0290
     49 H23         9.4035   -6.8690    1.8011 H         1 6VK         0.0290
     50 H24        12.2262   -6.9282   -3.4769 H         1 6VK         0.2548
     51 H25        14.0815   -5.0551   -4.0162 H         1 6VK         0.2690
@<TRIPOS>BOND
     1    1    2 2  
     2    2    3 1  
     3    2    9 1  
     4    3    4 2  
     5    3   10 1  
     6    4    5 1  
     7    4   26 1  
     8    5    6 1  
     9    6    7 1  
    10    6    8 1  
    11    6    9 1  
    12   10   11 1  
    13   10   12 1  
    14   10   18 1  
    15   12   13 ar 
    16   12   17 ar 
    17   13   14 ar 
    18   14   15 ar 
    19   15   16 ar 
    20   16   17 ar 
    21   18   19 1  
    22   18   25 2  
    23   19   20 1  
    24   19   23 2  
    25   20   21 1  
    26   20   22 1  
    27   21   22 1  
    28   23   24 1  
    29   24   25 1  
    30   25   26 1  
    31    5   27 1  
    32    5   28 1  
    33    7   29 1  
    34    7   30 1  
    35    7   31 1  
    36    8   32 1  
    37    8   33 1  
    38    8   34 1  
    39    9   35 1  
    40    9   36 1  
    41   11   37 1  
    42   11   38 1  
    43   11   39 1  
    44   13   40 1  
    45   14   41 1  
    46   15   42 1  
    47   16   43 1  
    48   17   44 1  
    49   20   45 1  
    50   21   46 1  
    51   21   47 1  
    52   22   48 1  
    53   22   49 1  
    54   24   50 1  
    55   26   51 1  
@<TRIPOS>SUBSTRUCTURE
     1 6VK         1

