### 
### Created by X-TOOL on Wed Jan  1 15:39:36 2020
### 

@<TRIPOS>MOLECULE
5kpl_ligand
   49    52     1     0     0
SMALL
GAST_HUCK


@<TRIPOS>ATOM
      1 C29        35.6470   -1.0650   -4.7300 C.3       1 6VL        -0.1001
      2 C26        38.5010   -0.3350   -0.4670 C.ar      1 6VL        -0.0463
      3 C25        37.5520    0.6850   -0.4590 C.ar      1 6VL        -0.0463
      4 C28        37.4930   -1.2360   -2.4750 C.ar      1 6VL        -0.0604
      5 C27        38.4620   -1.2980   -1.4630 C.ar      1 6VL        -0.0463
      6 C24        36.5770    0.7220   -1.4420 C.ar      1 6VL        -0.0604
      7 C23        34.0690   -0.4100   -2.9530 C.2       1 6VL        -0.0211
      8 C31        34.7930   -0.7710   -5.9590 C.3       1 6VL        -0.0794
      9 C15        35.4280   -0.1080   -3.5350 C.3       1 6VL        -0.0425
     10 C14        34.2090    3.6570   -4.4320 C.3       1 6VL        -0.0191
     11 C6         33.0690    0.5330   -2.8290 C.2       1 6VL         0.2034
     12 C9         36.5460    1.8520   -4.8020 C.2       1 6VL         0.0953
     13 C11        35.5700    4.1900   -4.8820 C.3       1 6VL        -0.0168
     14 C12        36.3210    4.6870   -3.6430 C.3       1 6VL        -0.0576
     15 O          37.5630    1.2070   -4.7180 O.2       1 6VL        -0.3928
     16 C10        36.4350    3.1480   -5.5970 C.3       1 6VL         0.0251
     17 C13        35.3100    5.3640   -5.8180 C.3       1 6VL        -0.0576
     18 C7         34.2270    2.2450   -3.8640 C.3       1 6VL         0.0573
     19 N2         33.1510    1.8170   -3.1940 N.pl3     1 6VL        -0.2578
     20 N1         31.9960   -0.0770   -2.2810 N.pl3     1 6VL        -0.1644
     21 N          32.3300   -1.4450   -2.0690 N.2       1 6VL        -0.2063
     22 C5         33.6030   -1.6580   -2.4710 C.2       1 6VL         0.0009
     23 C8         35.3820    1.3200   -4.0680 C.3       1 6VL         0.0127
     24 C30        36.5170   -0.2340   -2.4700 C.ar      1 6VL        -0.0936
     25 H1         36.7043   -1.0030   -5.0269 H         1 6VL         0.0078
     26 H2         35.4199   -2.0874   -4.3938 H         1 6VL         0.0078
     27 H3         39.2650   -0.3752    0.3009 H         1 6VL         0.0749
     28 H4         37.5766    1.4459    0.3127 H         1 6VL         0.0661
     29 H5         37.5005   -1.9729   -3.2700 H         1 6VL         0.0739
     30 H6         39.1857   -2.1050   -1.4598 H         1 6VL         0.0661
     31 H7         35.8368    1.5135   -1.4175 H         1 6VL         0.0739
     32 H8         35.0218   -1.5026   -6.7480 H         1 6VL         0.0215
     33 H9         35.0129    0.2430   -6.3243 H         1 6VL         0.0215
     34 H10        33.7284   -0.8415   -5.6912 H         1 6VL         0.0215
     35 H11        33.5345    3.6667   -5.3008 H         1 6VL         0.0298
     36 H12        33.8177    4.3318   -3.6564 H         1 6VL         0.0298
     37 H13        37.3054    5.0760   -3.9425 H         1 6VL         0.0237
     38 H14        36.4552    3.8542   -2.9370 H         1 6VL         0.0237
     39 H15        35.7419    5.4877   -3.1598 H         1 6VL         0.0237
     40 H16        35.9860    2.9261   -6.5763 H         1 6VL         0.0499
     41 H17        37.4434    3.5630   -5.7415 H         1 6VL         0.0499
     42 H18        34.6887    6.1121   -5.3039 H         1 6VL         0.0237
     43 H19        34.7858    5.0072   -6.7169 H         1 6VL         0.0237
     44 H20        36.2677    5.8202   -6.1088 H         1 6VL         0.0237
     45 H21        34.6827    2.6155   -2.9339 H         1 6VL         0.0600
     46 H22        32.3909    2.4719   -2.9609 H         1 6VL         0.2054
     47 H23        31.0950    0.3686   -2.0561 H         1 6VL         0.2642
     48 H24        34.1560   -2.5953   -2.4323 H         1 6VL         0.0713
     49 H25        34.9307    0.9539   -5.0020 H         1 6VL         0.0368
@<TRIPOS>BOND
     1    1    8 1  
     2    9    1 1  
     3    3    2 ar 
     4    5    2 ar 
     5    6    3 ar 
     6    4    5 ar 
     7   24    4 ar 
     8   24    6 ar 
     9    9    7 1  
    10    7   11 2  
    11    7   22 1  
    12   23    9 1  
    13    9   24 1  
    14   13   10 1  
    15   10   18 1  
    16   11   19 1  
    17   11   20 1  
    18   12   15 2  
    19   16   12 1  
    20   12   23 1  
    21   13   14 1  
    22   13   16 1  
    23   13   17 1  
    24   18   19 1  
    25   18   23 1  
    26   20   21 1  
    27   21   22 2  
    28    1   25 1  
    29    1   26 1  
    30    2   27 1  
    31    3   28 1  
    32    4   29 1  
    33    5   30 1  
    34    6   31 1  
    35    8   32 1  
    36    8   33 1  
    37    8   34 1  
    38   10   35 1  
    39   10   36 1  
    40   14   37 1  
    41   14   38 1  
    42   14   39 1  
    43   16   40 1  
    44   16   41 1  
    45   17   42 1  
    46   17   43 1  
    47   17   44 1  
    48   18   45 1  
    49   19   46 1  
    50   20   47 1  
    51   22   48 1  
    52   23   49 1  
@<TRIPOS>SUBSTRUCTURE
     1 6VL         1

