### 
### Created by X-TOOL on Wed Jan  1 15:39:36 2020
### 

@<TRIPOS>MOLECULE
5kpm_ligand
   61    64     1     0     0
SMALL
GAST_HUCK


@<TRIPOS>ATOM
      1 C1         12.1330   -4.8740   -2.3600 C.3       1 6VM        -0.0276
      2 C2         11.2020   -3.6890   -2.1430 C.3       1 6VM        -0.0583
      3 C3         11.2790   -6.0500   -2.8240 C.3       1 6VM        -0.0583
      4 C4         13.2620   -4.5780   -3.3520 C.3       1 6VM        -0.0075
      5 C5         12.8000   -4.2410   -4.7320 C.2       1 6VM         0.0142
      6 C6         12.3380   -3.1700   -6.7510 C.2       1 6VM         0.1994
      7 C12        13.7880    1.7880   -9.7810 C.3       1 6VM        -0.0576
      8 C13        15.2990    0.1520   -8.8420 C.3       1 6VM        -0.0576
      9 C14        12.7580   -0.0230   -8.5900 C.3       1 6VM        -0.0192
     10 C24        13.2740   -0.8530   -2.6300 C.ar      1 6VM        -0.0604
     11 C25        12.4620   -0.3360   -1.6000 C.ar      1 6VM        -0.0464
     12 C26        11.1230   -0.0140   -1.8480 C.ar      1 6VM        -0.0464
     13 C27        10.6390   -0.2190   -3.1420 C.ar      1 6VM        -0.0464
     14 O          14.4400    1.0930   -4.9440 O.2       1 6VM        -0.3928
     15 C9         14.0720    0.7250   -6.0530 C.2       1 6VM         0.0953
     16 C8         13.5470   -0.6820   -6.1950 C.3       1 6VM         0.0124
     17 C7         12.8510   -1.0360   -7.4710 C.3       1 6VM         0.0570
     18 C11        13.9860    0.8950   -8.5830 C.3       1 6VM        -0.0168
     19 C10        14.0380    1.6660   -7.2580 C.3       1 6VM         0.0251
     20 C15        13.6350   -1.6500   -5.0530 C.3       1 6VM        -0.0448
     21 C29        15.1310   -1.8820   -4.8180 C.3       1 6VM        -0.1095
     22 C30        12.7930   -1.0730   -3.9220 C.ar      1 6VM        -0.0939
     23 C28        11.4560   -0.7270   -4.1700 C.ar      1 6VM        -0.0604
     24 C23        12.9890   -2.9590   -5.4570 C.2       1 6VM        -0.0168
     25 C          12.7800   -5.2010   -1.0110 C.3       1 6VM        -0.0583
     26 N          12.1420   -5.0180   -5.6080 N.2       1 6VM        -0.2197
     27 N1         11.8420   -4.4110   -6.8500 N.pl3     1 6VM        -0.1758
     28 N2         12.3000   -2.2260   -7.6730 N.pl3     1 6VM        -0.2589
     29 H1         10.4174   -3.9661   -1.4236 H         1 6VM         0.0236
     30 H2         10.7388   -3.4065   -3.0999 H         1 6VM         0.0236
     31 H3         11.7771   -2.8383   -1.7487 H         1 6VM         0.0236
     32 H4         11.9220   -6.9267   -2.9910 H         1 6VM         0.0236
     33 H5         10.7691   -5.7853   -3.7621 H         1 6VM         0.0236
     34 H6         10.5302   -6.2859   -2.0536 H         1 6VM         0.0236
     35 H7         13.9077   -5.4664   -3.4131 H         1 6VM         0.0435
     36 H8         13.8438   -3.7275   -2.9670 H         1 6VM         0.0435
     37 H9         13.7599    1.1755  -10.6942 H         1 6VM         0.0237
     38 H10        14.6200    2.5046   -9.8457 H         1 6VM         0.0237
     39 H11        12.8396    2.3356   -9.6775 H         1 6VM         0.0237
     40 H12        15.5096   -0.5245   -8.0006 H         1 6VM         0.0237
     41 H13        16.1183    0.8792   -8.9417 H         1 6VM         0.0237
     42 H14        15.2127   -0.4326   -9.7698 H         1 6VM         0.0237
     43 H15        11.8508    0.5842   -8.4548 H         1 6VM         0.0298
     44 H16        12.7057   -0.5510   -9.5536 H         1 6VM         0.0298
     45 H17        14.3092   -1.0882   -2.4109 H         1 6VM         0.0739
     46 H18        12.8774   -0.1870   -0.6099 H         1 6VM         0.0661
     47 H19        10.4852    0.3799   -1.0650 H         1 6VM         0.0749
     48 H20         9.6046    0.0199   -3.3611 H         1 6VM         0.0661
     49 H21        14.5108   -1.0356   -6.5900 H         1 6VM         0.0369
     50 H22        11.9049   -0.6690   -7.0465 H         1 6VM         0.0599
     51 H23        14.9422    2.2923   -7.2460 H         1 6VM         0.0499
     52 H24        13.1470    2.3068   -7.1841 H         1 6VM         0.0499
     53 H25        15.2662   -2.5888   -3.9860 H         1 6VM         0.0045
     54 H26        15.6157   -0.9263   -4.5696 H         1 6VM         0.0045
     55 H27        15.5853   -2.2975   -5.7296 H         1 6VM         0.0045
     56 H28        11.0468   -0.8524   -5.1659 H         1 6VM         0.0739
     57 H29        11.9955   -5.4197   -0.2715 H         1 6VM         0.0236
     58 H30        13.3745   -4.3401   -0.6712 H         1 6VM         0.0236
     59 H31        13.4346   -6.0781   -1.1213 H         1 6VM         0.0236
     60 H32        11.3511   -4.8300   -7.6527 H         1 6VM         0.2589
     61 H33        11.8317   -2.4177   -8.5701 H         1 6VM         0.2049
@<TRIPOS>BOND
     1    1    2 1  
     2    1    3 1  
     3    4    1 1  
     4    1   25 1  
     5    5    4 1  
     6   24    5 1  
     7    5   26 2  
     8    6   24 2  
     9    6   27 1  
    10   28    6 1  
    11   18    7 1  
    12   18    8 1  
    13   17    9 1  
    14    9   18 1  
    15   10   11 ar 
    16   22   10 ar 
    17   11   12 ar 
    18   12   13 ar 
    19   13   23 ar 
    20   15   14 2  
    21   16   15 1  
    22   15   19 1  
    23   16   17 1  
    24   20   16 1  
    25   17   28 1  
    26   19   18 1  
    27   20   21 1  
    28   20   22 1  
    29   20   24 1  
    30   22   23 ar 
    31   26   27 1  
    32    2   29 1  
    33    2   30 1  
    34    2   31 1  
    35    3   32 1  
    36    3   33 1  
    37    3   34 1  
    38    4   35 1  
    39    4   36 1  
    40    7   37 1  
    41    7   38 1  
    42    7   39 1  
    43    8   40 1  
    44    8   41 1  
    45    8   42 1  
    46    9   43 1  
    47    9   44 1  
    48   10   45 1  
    49   11   46 1  
    50   12   47 1  
    51   13   48 1  
    52   16   49 1  
    53   17   50 1  
    54   19   51 1  
    55   19   52 1  
    56   21   53 1  
    57   21   54 1  
    58   21   55 1  
    59   23   56 1  
    60   25   57 1  
    61   25   58 1  
    62   25   59 1  
    63   27   60 1  
    64   28   61 1  
@<TRIPOS>SUBSTRUCTURE
     1 6VM         1

