### 
### Created by X-TOOL on Mon Sep 10 21:13:29 2018
### 

@<TRIPOS>MOLECULE
5kq5_ligand
   62    69     1     0     0
SMALL
GAST_HUCK


@<TRIPOS>ATOM
      1 O4         42.4750  -86.5290  -26.5930 O.3       1 STU        -0.3149
      2 C25        43.0260  -87.5250  -25.7190 C.3       1 STU         0.1668
      3 C24        42.0430  -88.0860  -24.6900 C.3       1 STU         0.0455
      4 C23        40.6240  -87.6170  -24.9520 C.3       1 STU         0.0141
      5 C22        40.6320  -86.0990  -24.9830 C.3       1 STU         0.1556
      6 C21        41.5770  -85.5510  -26.0560 C.3       1 STU         0.2020
      7 C26        40.7320  -85.0910  -27.2410 C.3       1 STU        -0.0059
      8 N2         42.3420  -84.3910  -25.4990 N.pl3     1 STU        -0.2292
      9 C18        43.5660  -84.4950  -24.9230 C.ar      1 STU         0.0978
     10 C19        44.4450  -85.6830  -24.7150 C.ar      1 STU         0.0952
     11 C6         45.7430  -85.5110  -24.0630 C.ar      1 STU        -0.0018
     12 C7         46.1280  -84.1400  -23.6380 C.ar      1 STU         0.0320
     13 C10        45.3030  -82.9500  -23.8220 C.ar      1 STU        -0.0168
     14 C11        43.9810  -83.1480  -24.4890 C.ar      1 STU         0.0011
     15 C12        42.8720  -82.2680  -24.8630 C.ar      1 STU        -0.0075
     16 C17        41.8370  -83.1180  -25.5050 C.ar      1 STU         0.0695
     17 C16        40.6790  -82.5010  -25.9510 C.ar      1 STU        -0.0408
     18 C15        40.5440  -81.1220  -25.7730 C.ar      1 STU        -0.0739
     19 C14        41.5340  -80.3420  -25.1630 C.ar      1 STU        -0.0759
     20 C13        42.7200  -80.9040  -24.6950 C.ar      1 STU        -0.0696
     21 C9         45.9790  -81.7750  -23.2930 C.3       1 STU         0.0603
     22 N1         47.2760  -82.2870  -22.7640 N.am      1 STU        -0.2790
     23 C8         47.3380  -83.6290  -22.9700 C.2       1 STU         0.1871
     24 O5         48.3340  -84.3640  -22.6240 O.2       1 STU        -0.3964
     25 C5         46.3160  -86.8460  -24.0260 C.ar      1 STU        -0.0072
     26 C20        45.3140  -87.7370  -24.6610 C.ar      1 STU         0.0681
     27 C1         45.6380  -89.0840  -24.7440 C.ar      1 STU        -0.0404
     28 C2         46.8630  -89.5210  -24.2350 C.ar      1 STU        -0.0732
     29 C3         47.7860  -88.6530  -23.6420 C.ar      1 STU        -0.0750
     30 C4         47.5270  -87.2900  -23.5250 C.ar      1 STU        -0.0685
     31 N3         44.2290  -86.9820  -25.0420 N.pl3     1 STU        -0.2376
     32 O6         40.9890  -85.6220  -23.6840 O.3       1 STU        -0.3686
     33 C27        39.9680  -84.7980  -23.1250 C.3       1 STU         0.0373
     34 N4         39.7350  -88.0970  -23.9130 N.4       1 STU         0.2291
     35 C28        38.2990  -87.9690  -24.0730 C.3       1 STU        -0.0445
     36 H1         43.3443  -88.3678  -26.3501 H         1 STU         0.0933
     37 H2         42.3486  -87.7529  -23.6872 H         1 STU         0.0372
     38 H3         42.0688  -89.1848  -24.7351 H         1 STU         0.0372
     39 H4         40.2821  -88.0030  -25.9237 H         1 STU         0.0880
     40 H5         39.6155  -85.7501  -25.2177 H         1 STU         0.0710
     41 H6         40.0110  -84.3315  -26.9043 H         1 STU         0.0284
     42 H7         40.1895  -85.9511  -27.6604 H         1 STU         0.0284
     43 H8         41.3865  -84.6588  -28.0123 H         1 STU         0.0284
     44 H9         39.8941  -83.0766  -26.4282 H         1 STU         0.0538
     45 H10        39.6386  -80.6375  -26.1202 H         1 STU         0.0561
     46 H11        41.3740  -79.2756  -25.0522 H         1 STU         0.0516
     47 H12        43.4866  -80.3009  -24.2220 H         1 STU         0.0566
     48 H13        45.3861  -81.3166  -22.4878 H         1 STU         0.0679
     49 H14        46.1502  -81.0353  -24.0890 H         1 STU         0.0679
     50 H15        47.9852  -81.7327  -22.3283 H         1 STU         0.1863
     51 H16        44.9494  -89.7875  -25.1978 H         1 STU         0.0539
     52 H17        47.1083  -90.5747  -24.3021 H         1 STU         0.0568
     53 H18        48.7221  -89.0497  -23.2659 H         1 STU         0.0516
     54 H19        48.2370  -86.6120  -23.0654 H         1 STU         0.0576
     55 H20        40.2804  -84.4524  -22.1285 H         1 STU         0.0524
     56 H21        39.0368  -85.3769  -23.0370 H         1 STU         0.0524
     57 H22        39.7994  -83.9292  -23.7782 H         1 STU         0.0524
     58 H23        39.9792  -87.6025  -23.0693 H         1 STU         0.2014
     59 H24        39.9285  -89.0792  -23.7949 H         1 STU         0.2014
     60 H25        37.7931  -88.3857  -23.1896 H         1 STU         0.0777
     61 H26        37.9798  -88.5178  -24.9712 H         1 STU         0.0777
     62 H27        38.0352  -86.9064  -24.1794 H         1 STU         0.0777
@<TRIPOS>BOND
     1    1    2 1  
     2    1    6 1  
     3    2    3 1  
     4    2   31 1  
     5    3    4 1  
     6    4    5 1  
     7    4   34 1  
     8    5    6 1  
     9    5   32 1  
    10    6    7 1  
    11    6    8 1  
    12    8    9 1  
    13    8   16 1  
    14    9   10 ar 
    15    9   14 ar 
    16   10   11 ar 
    17   10   31 1  
    18   11   12 ar 
    19   11   25 1  
    20   12   13 ar 
    21   12   23 1  
    22   13   14 ar 
    23   13   21 1  
    24   14   15 1  
    25   15   16 ar 
    26   15   20 ar 
    27   16   17 ar 
    28   17   18 ar 
    29   18   19 ar 
    30   19   20 ar 
    31   21   22 1  
    32   22   23 am 
    33   23   24 2  
    34   25   26 ar 
    35   25   30 ar 
    36   26   27 ar 
    37   26   31 1  
    38   27   28 ar 
    39   28   29 ar 
    40   29   30 ar 
    41   32   33 1  
    42   34   35 1  
    43    2   36 1  
    44    3   37 1  
    45    3   38 1  
    46    4   39 1  
    47    5   40 1  
    48    7   41 1  
    49    7   42 1  
    50    7   43 1  
    51   17   44 1  
    52   18   45 1  
    53   19   46 1  
    54   20   47 1  
    55   21   48 1  
    56   21   49 1  
    57   22   50 1  
    58   27   51 1  
    59   28   52 1  
    60   29   53 1  
    61   30   54 1  
    62   33   55 1  
    63   33   56 1  
    64   33   57 1  
    65   34   58 1  
    66   34   59 1  
    67   35   60 1  
    68   35   61 1  
    69   35   62 1  
@<TRIPOS>SUBSTRUCTURE
     1 STU         1

