### 
### Created by X-TOOL on Mon Sep 10 21:13:29 2018
### 

@<TRIPOS>MOLECULE
5kqf_ligand
   37    39     1     0     0
SMALL
GAST_HUCK


@<TRIPOS>ATOM
      1 C18        21.5750   39.1080   -7.2800 C.ar      1 6WD         0.1648
      2 C17        20.5180   39.3390   -6.4020 C.ar      1 6WD        -0.0006
      3 C16        19.2110   39.1590   -6.8140 C.ar      1 6WD        -0.0379
      4 C15        18.9190   38.7450   -8.1050 C.ar      1 6WD         0.0262
      5 C19        21.3180   38.6900   -8.5860 C.ar      1 6WD         0.0380
      6 C20        19.9960   38.5060   -8.9970 C.ar      1 6WD         0.1644
      7 C12        15.6230   42.9240  -12.8290 C.ar      1 6WD         0.0831
      8 C1         17.3000   37.0860   -8.9710 C.3       1 6WD        -0.0455
      9 C2         17.4620   38.5320   -8.5130 C.3       1 6WD         0.0966
     10 C3         17.0960   39.4010   -9.7220 C.3       1 6WD        -0.0106
     11 C4         17.1710   40.8990   -9.4340 C.3       1 6WD         0.0477
     12 S5         16.1980   41.2960   -7.9640 S.3       1 6WD        -0.0688
     13 C6         15.9360   39.8170   -7.0610 C.cat     1 6WD         0.2603
     14 N7         16.5080   38.7200   -7.3960 N.pl3     1 6WD        -0.2864
     15 N8         15.2450   39.9280   -5.9180 N.pl3     1 6WD        -0.2672
     16 C9         16.6150   41.6210  -10.6430 C.ar      1 6WD         0.0221
     17 C10        15.2440   41.6090  -10.9270 C.ar      1 6WD         0.0321
     18 N11        14.7700   42.2620  -12.0190 N.ar      1 6WD        -0.2699
     19 N13        16.9490   42.9460  -12.5770 N.ar      1 6WD        -0.2699
     20 C14        17.4640   42.3090  -11.5000 C.ar      1 6WD         0.0321
     21 F21        19.7580   38.1070  -10.2550 F         1 6WD        -0.1563
     22 F22        22.8290   39.2920   -6.8450 F         1 6WD        -0.1572
     23 H1         20.7224   39.6625   -5.3878 H         1 6WD         0.0665
     24 H2         18.4016   39.3443   -6.1172 H         1 6WD         0.0823
     25 H3         22.1357   38.5099   -9.2744 H         1 6WD         0.0674
     26 H4         15.2367   43.4468  -13.6965 H         1 6WD         0.1071
     27 H5         16.2560   36.9109   -9.2699 H         1 6WD         0.0167
     28 H6         17.5637   36.4082   -8.1457 H         1 6WD         0.0167
     29 H7         17.9634   36.8962   -9.8277 H         1 6WD         0.0167
     30 H8         16.0689   39.1557  -10.0302 H         1 6WD         0.0238
     31 H9         17.7906   39.1681  -10.5425 H         1 6WD         0.0238
     32 H10        18.2170   41.1969   -9.2696 H         1 6WD         0.0589
     33 H11        16.2820   37.8875   -6.8331 H         1 6WD         0.3096
     34 H12        15.0600   39.0924   -5.3448 H         1 6WD         0.3186
     35 H13        14.8990   40.8489   -5.6128 H         1 6WD         0.3186
     36 H14        14.5604   41.0779  -10.2745 H         1 6WD         0.0881
     37 H15        18.5305   42.3355  -11.3077 H         1 6WD         0.0881
@<TRIPOS>BOND
     1    2    1 ar 
     2    5    1 ar 
     3    1   22 1  
     4    3    2 ar 
     5    4    3 ar 
     6    4    6 ar 
     7    9    4 1  
     8    6    5 ar 
     9    6   21 1  
    10   18    7 ar 
    11    7   19 ar 
    12    9    8 1  
    13   10    9 1  
    14    9   14 1  
    15   11   10 1  
    16   11   12 1  
    17   16   11 1  
    18   12   13 1  
    19   13   14 ar 
    20   13   15 ar 
    21   17   16 ar 
    22   16   20 ar 
    23   17   18 ar 
    24   19   20 ar 
    25    2   23 1  
    26    3   24 1  
    27    5   25 1  
    28    7   26 1  
    29    8   27 1  
    30    8   28 1  
    31    8   29 1  
    32   10   30 1  
    33   10   31 1  
    34   11   32 1  
    35   14   33 1  
    36   15   34 1  
    37   15   35 1  
    38   17   36 1  
    39   20   37 1  
@<TRIPOS>SUBSTRUCTURE
     1 6WD         1

