### 
### Created by X-TOOL on Mon Sep 10 21:13:26 2018
### 

@<TRIPOS>MOLECULE
5kqg_ligand
   34    36     1     0     0
SMALL
GAST_HUCK


@<TRIPOS>ATOM
      1 O01        -2.3320    7.1350   -2.2690 O.co2     1 6VX        -0.4800
      2 S02        -2.4050    8.5850   -2.0960 S.o2      1 6VX        -0.1603
      3 O03        -3.6400    9.1580   -2.6030 O.co2     1 6VX        -0.4800
      4 O04        -1.2770    9.2960   -2.6680 O.co2     1 6VX        -0.4800
      5 C05        -2.4640    8.8060   -0.3470 C.3       1 6VX         0.1718
      6 C06        -2.7030   10.2260    0.0200 C.2       1 6VX         0.2509
      7 O07        -2.2920   11.2210   -0.5750 O.2       1 6VX        -0.3735
      8 N08        -3.4830   10.3360    1.1790 N.am      1 6VX        -0.1859
      9 C09        -3.6800   11.5690    1.8020 C.2       1 6VX         0.2119
     10 N10        -4.1580   11.5430    3.0890 N.2       1 6VX        -0.3094
     11 C11        -4.1760   12.8880    3.5950 C.ar      1 6VX         0.0067
     12 C12        -4.6540   13.1820    4.8960 C.ar      1 6VX        -0.0646
     13 C13        -4.6690   14.5030    5.3050 C.ar      1 6VX        -0.0765
     14 C14        -4.2330   15.4990    4.4300 C.ar      1 6VX        -0.0754
     15 C15        -3.7590   15.1920    3.1490 C.ar      1 6VX        -0.0540
     16 C16        -3.7310   13.8620    2.7150 C.ar      1 6VX         0.0475
     17 S17        -3.2570   13.1110    1.2740 S.3       1 6VX         0.0301
     18 C18        -1.1970    8.3990    0.3880 C.ar      1 6VX        -0.0026
     19 C19        -1.0740    7.1290    0.9400 C.ar      1 6VX        -0.0562
     20 C20         0.0790    6.7440    1.6220 C.ar      1 6VX        -0.0681
     21 C21         1.1220    7.6540    1.7800 C.ar      1 6VX        -0.0684
     22 C22         1.0040    8.9370    1.2460 C.ar      1 6VX        -0.0681
     23 C23        -0.1480    9.3080    0.5590 C.ar      1 6VX        -0.0562
     24 H1         -3.2960    8.1936    0.0308 H         1 6VX         0.0914
     25 H2         -3.9058    9.5167    1.5663 H         1 6VX         0.2451
     26 H3         -4.9989   12.3922    5.5535 H         1 6VX         0.0528
     27 H4         -5.0169   14.7630    6.2982 H         1 6VX         0.0543
     28 H5         -4.2620   16.5344    4.7497 H         1 6VX         0.0527
     29 H6         -3.4140   15.9838    2.4940 H         1 6VX         0.0554
     30 H7         -1.8911    6.4241    0.8380 H         1 6VX         0.0561
     31 H8          0.1637    5.7421    2.0272 H         1 6VX         0.0600
     32 H9          2.0200    7.3666    2.3148 H         1 6VX         0.0561
     33 H10         1.8131    9.6483    1.3666 H         1 6VX         0.0600
     34 H11        -0.2329   10.3096    0.1532 H         1 6VX         0.0561
@<TRIPOS>BOND
     1    1    2 ar 
     2    2    3 ar 
     3    2    4 ar 
     4    2    5 1  
     5    5    6 1  
     6    5   18 1  
     7    6    7 2  
     8    6    8 am 
     9    8    9 1  
    10    9   10 2  
    11    9   17 1  
    12   10   11 1  
    13   11   12 ar 
    14   11   16 ar 
    15   12   13 ar 
    16   13   14 ar 
    17   14   15 ar 
    18   15   16 ar 
    19   16   17 1  
    20   18   19 ar 
    21   18   23 ar 
    22   19   20 ar 
    23   20   21 ar 
    24   21   22 ar 
    25   22   23 ar 
    26    5   24 1  
    27    8   25 1  
    28   12   26 1  
    29   13   27 1  
    30   14   28 1  
    31   15   29 1  
    32   19   30 1  
    33   20   31 1  
    34   21   32 1  
    35   22   33 1  
    36   23   34 1  
@<TRIPOS>SUBSTRUCTURE
     1 6VX         1

