### 
### Created by X-TOOL on Mon Sep 10 21:13:26 2018
### 

@<TRIPOS>MOLECULE
5kql_ligand
   32    33     1     0     0
SMALL
GAST_HUCK


@<TRIPOS>ATOM
      1 N01         3.5590   10.7320   -1.0920 N.am      1 6VY        -0.2308
      2 C02         2.6550   10.5870    0.0040 C.2       1 6VY         0.2365
      3 O03         2.1280   11.5460    0.5680 O.2       1 6VY        -0.3799
      4 C04         2.3770    9.1940    0.4530 C.3       1 6VY         0.1691
      5 C05         1.2190    8.7130   -0.2930 C.ar      1 6VY        -0.0029
      6 C06         0.1360    9.5250   -0.4700 C.ar      1 6VY        -0.0562
      7 C07        -1.0110    9.0680   -1.2000 C.ar      1 6VY        -0.0681
      8 C08        -1.0480    7.8010   -1.7280 C.ar      1 6VY        -0.0684
      9 C09         0.0270    6.9600   -1.5500 C.ar      1 6VY        -0.0681
     10 C10         1.1790    7.4210   -0.8320 C.ar      1 6VY        -0.0562
     11 S11         2.4270    8.8980    2.1740 S.o2      1 6VY        -0.1606
     12 O12         3.6650    9.4860    2.6790 O.co2     1 6VY        -0.4800
     13 O13         2.3770    7.4980    2.3920 O.co2     1 6VY        -0.4800
     14 O14         1.2250    9.4970    2.7560 O.co2     1 6VY        -0.4800
     15 C15         3.8250   11.9710   -1.7710 C.ar      1 6VY         0.0664
     16 C16         3.5470   13.2680   -1.2620 C.ar      1 6VY        -0.0413
     17 C17         3.7800   14.3820   -2.0840 C.ar      1 6VY        -0.0755
     18 C18         4.2200   14.2180   -3.3830 C.ar      1 6VY        -0.0772
     19 C19         4.4490   12.9140   -3.9050 C.ar      1 6VY        -0.0755
     20 C20         4.2280   11.8180   -3.0850 C.ar      1 6VY        -0.0413
     21 H1          4.0405    9.9149   -1.4092 H         1 6VY         0.2259
     22 H2          3.2210    8.5987    0.0746 H         1 6VY         0.0911
     23 H3          0.1429   10.5261   -0.0543 H         1 6VY         0.0561
     24 H4         -1.8582    9.7303   -1.3364 H         1 6VY         0.0600
     25 H5         -1.9178    7.4654   -2.2812 H         1 6VY         0.0561
     26 H6          0.0026    5.9532   -1.9511 H         1 6VY         0.0600
     27 H7          2.0297    6.7613   -0.7047 H         1 6VY         0.0561
     28 H8          3.1618   13.3952   -0.2568 H         1 6VY         0.0502
     29 H9          3.6130   15.3802   -1.6956 H         1 6VY         0.0577
     30 H10         4.3917   15.0869   -4.0080 H         1 6VY         0.0487
     31 H11         4.7900   12.7800   -4.9252 H         1 6VY         0.0577
     32 H12         4.3742   10.8201   -3.4823 H         1 6VY         0.0502
@<TRIPOS>BOND
     1    1    2 am 
     2    1   15 1  
     3    2    3 2  
     4    2    4 1  
     5    4    5 1  
     6    4   11 1  
     7    5    6 ar 
     8    5   10 ar 
     9    6    7 ar 
    10    7    8 ar 
    11    8    9 ar 
    12    9   10 ar 
    13   11   12 ar 
    14   11   13 ar 
    15   11   14 ar 
    16   15   16 ar 
    17   15   20 ar 
    18   16   17 ar 
    19   17   18 ar 
    20   18   19 ar 
    21   19   20 ar 
    22    1   21 1  
    23    4   22 1  
    24    6   23 1  
    25    7   24 1  
    26    8   25 1  
    27    9   26 1  
    28   10   27 1  
    29   16   28 1  
    30   17   29 1  
    31   18   30 1  
    32   19   31 1  
    33   20   32 1  
@<TRIPOS>SUBSTRUCTURE
     1 6VY         1

