### 
### Created by X-TOOL on Mon Sep 10 21:13:27 2018
### 

@<TRIPOS>MOLECULE
5kqx_ligand
  100   104     1     0     0
SMALL
GAST_HUCK


@<TRIPOS>ATOM
      1 C         -18.3420    8.0020  -16.5070 C.2       1 ROC         0.2293
      2 O         -18.3380    8.4680  -15.3790 O.2       1 ROC        -0.3762
      3 N1        -18.7130    6.0830  -17.9600 N.ar      1 ROC        -0.2737
      4 C2        -19.2430    6.8430  -16.9600 C.ar      1 ROC         0.1219
      5 C3        -20.5170    6.5880  -16.4800 C.ar      1 ROC        -0.0136
      6 C4        -21.2360    5.5440  -16.9850 C.ar      1 ROC        -0.0314
      7 C5        -21.4390    3.6750  -18.5140 C.ar      1 ROC        -0.0444
      8 C6        -20.8960    2.8800  -19.5210 C.ar      1 ROC        -0.0546
      9 C7        -19.6250    3.1550  -20.0180 C.ar      1 ROC        -0.0545
     10 C8        -18.8860    4.2300  -19.5030 C.ar      1 ROC        -0.0370
     11 C4A       -20.6970    4.7560  -17.9880 C.ar      1 ROC         0.0097
     12 C8A       -19.4390    5.0280  -18.4780 C.ar      1 ROC         0.0527
     13 N         -17.5030    8.5310  -17.5320 N.am      1 ROC        -0.2600
     14 CA        -16.6410    9.6160  -17.2820 C.3       1 ROC         0.1473
     15 C1        -16.8990   10.5490  -18.4550 C.2       1 ROC         0.2045
     16 O1        -16.3720   10.3600  -19.5370 O.2       1 ROC        -0.3943
     17 CB        -15.1980    9.2240  -17.2550 C.3       1 ROC         0.0773
     18 CG        -14.9490    8.4510  -15.9820 C.2       1 ROC         0.1780
     19 OD1       -14.9580    9.0110  -14.8940 O.2       1 ROC        -0.3970
     20 ND2       -14.7220    7.0510  -16.0660 N.am      1 ROC        -0.3007
     21 C9        -17.5930   13.9150  -18.7450 C.3       1 ROC         0.1194
     22 O2        -18.3680   14.3750  -17.6800 O.3       1 ROC        -0.3840
     23 CA1       -18.0870   12.5600  -19.2590 C.3       1 ROC         0.0823
     24 N2        -17.8080   11.6440  -18.2210 N.am      1 ROC        -0.2772
     25 CB1       -19.5780   12.5460  -19.4770 C.3       1 ROC         0.0066
     26 CG1       -20.1270   11.1220  -19.7120 C.ar      1 ROC        -0.0408
     27 CD1       -20.6470   10.3790  -18.6540 C.ar      1 ROC        -0.0603
     28 CD2       -20.1540   10.5920  -20.9950 C.ar      1 ROC        -0.0603
     29 CE1       -21.1610    9.1070  -18.8810 C.ar      1 ROC        -0.0686
     30 CE2       -20.6770    9.3270  -21.2310 C.ar      1 ROC        -0.0686
     31 CZ        -21.1710    8.5830  -20.1700 C.ar      1 ROC        -0.0687
     32 N11       -16.3650   14.7430  -20.6820 N.4       1 ROC         0.2562
     33 CM        -17.5930   14.9370  -19.8920 C.3       1 ROC        -0.0008
     34 C21       -16.5660   15.4940  -21.9770 C.3       1 ROC         0.0688
     35 CC        -17.6520   14.8450  -22.7540 C.2       1 ROC         0.2251
     36 O3        -17.8760   13.6610  -22.6560 O.2       1 ROC        -0.3909
     37 C31       -15.2930   15.6140  -22.8270 C.3       1 ROC         0.0113
     38 C3A       -14.1560   16.1850  -22.0290 C.3       1 ROC        -0.0261
     39 C41       -12.9050   16.1480  -22.9480 C.3       1 ROC        -0.0494
     40 C51       -12.4070   14.7160  -23.1560 C.3       1 ROC        -0.0528
     41 C61       -12.1260   14.0340  -21.8320 C.3       1 ROC        -0.0526
     42 C71       -13.4040   14.0050  -20.9920 C.3       1 ROC        -0.0451
     43 C7A       -13.9420   15.4340  -20.7440 C.3       1 ROC         0.0024
     44 C81       -15.2180   15.2930  -19.9080 C.3       1 ROC        -0.0266
     45 N3        -18.3940   15.7440  -23.6140 N.am      1 ROC        -0.2771
     46 CD        -19.4910   15.3550  -24.4760 C.3       1 ROC         0.0448
     47 C11       -19.0100   14.3480  -25.5100 C.3       1 ROC        -0.0396
     48 C22       -20.6360   14.7900  -23.6440 C.3       1 ROC        -0.0396
     49 C32       -19.9440   16.6170  -25.1660 C.3       1 ROC        -0.0396
     50 H1        -20.9417    7.2161  -15.7053 H         1 ROC         0.0729
     51 H2        -22.2275    5.3318  -16.6016 H         1 ROC         0.0774
     52 H3        -22.4319    3.4639  -18.1337 H         1 ROC         0.0657
     53 H4        -21.4638    2.0463  -19.9180 H         1 ROC         0.0652
     54 H5        -19.2059    2.5374  -20.8041 H         1 ROC         0.0657
     55 H6        -17.8967    4.4468  -19.8894 H         1 ROC         0.0653
     56 H7        -17.5274    8.1238  -18.4450 H         1 ROC         0.1882
     57 H8        -16.9008   10.0992  -16.3286 H         1 ROC         0.0826
     58 H9        -14.5661   10.1241  -17.2749 H         1 ROC         0.0551
     59 H10       -14.9659    8.5936  -18.1261 H         1 ROC         0.0551
     60 H11       -14.5551    6.5208  -15.2347 H         1 ROC         0.1814
     61 H12       -14.7291    6.5959  -16.9564 H         1 ROC         0.1814
     62 H13       -16.5599   13.7921  -18.3878 H         1 ROC         0.0672
     63 H14       -18.0347   15.2149  -17.3869 H         1 ROC         0.2101
     64 H15       -17.5660   12.2872  -20.1886 H         1 ROC         0.0606
     65 H16       -18.2397   11.7544  -17.3258 H         1 ROC         0.1857
     66 H17       -19.8119   13.1640  -20.3564 H         1 ROC         0.0449
     67 H18       -20.0685   12.9712  -18.5890 H         1 ROC         0.0449
     68 H19       -20.6508   10.7933  -17.6523 H         1 ROC         0.0557
     69 H20       -19.7622   11.1724  -21.8225 H         1 ROC         0.0557
     70 H21       -21.5532    8.5246  -18.0551 H         1 ROC         0.0599
     71 H22       -20.6989    8.9243  -22.2372 H         1 ROC         0.0599
     72 H23       -21.5666    7.5891  -20.3456 H         1 ROC         0.0559
     73 H24       -16.2117   13.7644  -20.8689 H         1 ROC         0.2057
     74 H25       -17.6142   15.9573  -19.4815 H         1 ROC         0.0841
     75 H26       -18.4749   14.7801  -20.5304 H         1 ROC         0.0841
     76 H27       -16.8874   16.5148  -21.7228 H         1 ROC         0.1100
     77 H28       -15.4953   16.2727  -23.6844 H         1 ROC         0.0348
     78 H29       -15.0095   14.6153  -23.1907 H         1 ROC         0.0348
     79 H30       -14.3837   17.2311  -21.7766 H         1 ROC         0.0309
     80 H31       -12.1032   16.7420  -22.4851 H         1 ROC         0.0268
     81 H32       -13.1655   16.5817  -23.9248 H         1 ROC         0.0268
     82 H33       -11.4815   14.7410  -23.7499 H         1 ROC         0.0265
     83 H34       -13.1750   14.1445  -23.6977 H         1 ROC         0.0265
     84 H35       -11.3449   14.5892  -21.2920 H         1 ROC         0.0265
     85 H36       -11.7842   13.0046  -22.0150 H         1 ROC         0.0265
     86 H37       -13.1865   13.5303  -20.0238 H         1 ROC         0.0270
     87 H38       -14.1696   13.4205  -21.5232 H         1 ROC         0.0270
     88 H39       -13.2000   15.9926  -20.1546 H         1 ROC         0.0355
     89 H40       -15.0105   14.6197  -19.0633 H         1 ROC         0.0818
     90 H41       -15.4975   16.2858  -19.5255 H         1 ROC         0.0818
     91 H42       -18.1282   16.7080  -23.6124 H         1 ROC         0.1859
     92 H43       -19.8499   14.0593  -26.1590 H         1 ROC         0.0254
     93 H44       -18.6183   13.4562  -24.9988 H         1 ROC         0.0254
     94 H45       -18.2141   14.8003  -26.1198 H         1 ROC         0.0254
     95 H46       -21.4627   14.4982  -24.3084 H         1 ROC         0.0254
     96 H47       -20.9872   15.5551  -22.9360 H         1 ROC         0.0254
     97 H48       -20.2846   13.9088  -23.0872 H         1 ROC         0.0254
     98 H49       -20.7820   16.3858  -25.8400 H         1 ROC         0.0254
     99 H50       -19.1102   17.0361  -25.7482 H         1 ROC         0.0254
    100 H51       -20.2704   17.3496  -24.4132 H         1 ROC         0.0254
@<TRIPOS>BOND
     1    1    2 2  
     2    1    4 1  
     3   13    1 am 
     4    4    3 ar 
     5    3   12 ar 
     6    4    5 ar 
     7    5    6 ar 
     8    6   11 ar 
     9    7    8 ar 
    10   11    7 ar 
    11    9    8 ar 
    12   10    9 ar 
    13   12   10 ar 
    14   12   11 ar 
    15   14   13 1  
    16   15   14 1  
    17   14   17 1  
    18   15   16 2  
    19   24   15 am 
    20   17   18 1  
    21   18   19 2  
    22   18   20 am 
    23   21   22 1  
    24   23   21 1  
    25   21   33 1  
    26   23   24 1  
    27   23   25 1  
    28   25   26 1  
    29   26   27 ar 
    30   26   28 ar 
    31   27   29 ar 
    32   28   30 ar 
    33   29   31 ar 
    34   30   31 ar 
    35   33   32 1  
    36   32   34 1  
    37   32   44 1  
    38   34   35 1  
    39   34   37 1  
    40   35   36 2  
    41   35   45 am 
    42   37   38 1  
    43   38   39 1  
    44   38   43 1  
    45   39   40 1  
    46   40   41 1  
    47   41   42 1  
    48   42   43 1  
    49   43   44 1  
    50   45   46 1  
    51   46   47 1  
    52   46   48 1  
    53   46   49 1  
    54    5   50 1  
    55    6   51 1  
    56    7   52 1  
    57    8   53 1  
    58    9   54 1  
    59   10   55 1  
    60   13   56 1  
    61   14   57 1  
    62   17   58 1  
    63   17   59 1  
    64   20   60 1  
    65   20   61 1  
    66   21   62 1  
    67   22   63 1  
    68   23   64 1  
    69   24   65 1  
    70   25   66 1  
    71   25   67 1  
    72   27   68 1  
    73   28   69 1  
    74   29   70 1  
    75   30   71 1  
    76   31   72 1  
    77   32   73 1  
    78   33   74 1  
    79   33   75 1  
    80   34   76 1  
    81   37   77 1  
    82   37   78 1  
    83   38   79 1  
    84   39   80 1  
    85   39   81 1  
    86   40   82 1  
    87   40   83 1  
    88   41   84 1  
    89   41   85 1  
    90   42   86 1  
    91   42   87 1  
    92   43   88 1  
    93   44   89 1  
    94   44   90 1  
    95   45   91 1  
    96   47   92 1  
    97   47   93 1  
    98   47   94 1  
    99   48   95 1  
   100   48   96 1  
   101   48   97 1  
   102   49   98 1  
   103   49   99 1  
   104   49  100 1  
@<TRIPOS>SUBSTRUCTURE
     1 ROC         1

