### 
### Created by X-TOOL on Mon Sep 10 21:13:28 2018
### 

@<TRIPOS>MOLECULE
5kqy_ligand
   73    76     1     0     0
SMALL
GAST_HUCK


@<TRIPOS>ATOM
      1 N1        -14.2730    6.6300  -14.8190 N.pl3     1 017        -0.3369
      2 C2        -14.6240    7.5800  -15.8290 C.ar      1 017         0.0353
      3 C3        -15.2980    7.1360  -16.9580 C.ar      1 017        -0.0429
      4 C4        -15.6460    8.0430  -17.9460 C.ar      1 017        -0.0471
      5 C5        -15.3210    9.3820  -17.7890 C.ar      1 017         0.0949
      6 C6        -14.6480    9.8340  -16.6660 C.ar      1 017        -0.0471
      7 C7        -14.2980    8.9200  -15.6690 C.ar      1 017        -0.0429
      8 S8        -15.8010   10.5300  -19.1030 S.o2      1 017         0.0648
      9 O9        -14.7770   11.5080  -19.2730 O.2       1 017        -0.1518
     10 O10       -15.9510    9.8300  -20.3320 O.2       1 017        -0.1518
     11 N11       -17.2760   11.2530  -18.6980 N.am      1 017        -0.2327
     12 C12       -18.3840   10.3400  -18.4380 C.3       1 017         0.0319
     13 C13       -19.7050   10.6560  -19.1900 C.3       1 017        -0.0296
     14 C14       -19.5210   10.6140  -20.7050 C.3       1 017        -0.0612
     15 C15       -20.6880    9.5670  -18.8120 C.3       1 017        -0.0612
     16 C16       -17.2370   12.5790  -18.0500 C.3       1 017         0.0578
     17 C17       -17.8140   13.6250  -19.0140 C.3       1 017         0.0967
     18 O18       -18.2790   14.7130  -18.2830 O.3       1 017        -0.3877
     19 C19       -16.7870   14.0870  -20.0510 C.3       1 017         0.0807
     20 N20       -17.4460   15.0400  -20.8730 N.am      1 017        -0.2550
     21 C21       -17.9350   14.7330  -22.1880 C.2       1 017         0.3204
     22 O22       -17.7560   13.6570  -22.7430 O.2       1 017        -0.3775
     23 O23       -18.6580   15.8000  -22.7980 O.3       1 017        -0.2563
     24 C24       -18.9150   15.7390  -24.1540 C.3       1 017         0.1234
     25 C25       -20.2740   16.2790  -24.3410 C.3       1 017         0.0834
     26 O26       -20.1230   17.5790  -24.2520 O.3       1 017        -0.3429
     27 C27       -18.6840   17.8850  -24.8650 C.3       1 017         0.1875
     28 O28       -17.9750   18.8620  -23.9300 O.3       1 017        -0.3064
     29 C29       -16.8530   18.0810  -23.3250 C.2       1 017         0.0387
     30 C30       -16.6530   17.1030  -24.1190 C.2       1 017        -0.0682
     31 C31       -18.0410   16.8090  -24.8840 C.3       1 017         0.0589
     32 C32       -15.5660   14.7920  -19.4720 C.3       1 017         0.0064
     33 C33       -14.6090   16.5280  -20.9030 C.ar      1 017        -0.0603
     34 C34       -13.8460   17.0410  -21.9520 C.ar      1 017        -0.0686
     35 C35       -13.1160   16.1810  -22.7600 C.ar      1 017        -0.0687
     36 C36       -13.1580   14.8070  -22.5110 C.ar      1 017        -0.0686
     37 C37       -13.9180   14.2970  -21.4640 C.ar      1 017        -0.0603
     38 C38       -14.6510   15.1590  -20.6600 C.ar      1 017        -0.0408
     39 H1        -14.5159    5.6364  -14.9399 H         1 017         0.1719
     40 H2        -13.7773    6.9395  -13.9708 H         1 017         0.1719
     41 H3        -15.5503    6.0873  -17.0661 H         1 017         0.0515
     42 H4        -16.1684    7.7084  -18.8350 H         1 017         0.0602
     43 H5        -14.3961   10.8832  -16.5620 H         1 017         0.0602
     44 H6        -13.7769    9.2539  -14.7790 H         1 017         0.0515
     45 H7        -18.5953   10.3631  -17.3587 H         1 017         0.0480
     46 H8        -18.0637    9.3282  -18.7274 H         1 017         0.0480
     47 H9        -20.0819   11.6445  -18.8888 H         1 017         0.0311
     48 H10       -20.4778   10.8428  -21.1970 H         1 017         0.0233
     49 H11       -19.1847    9.6108  -21.0059 H         1 017         0.0233
     50 H12       -18.7680   11.3581  -21.0037 H         1 017         0.0233
     51 H13       -20.8409    9.5731  -17.7227 H         1 017         0.0233
     52 H14       -20.2890    8.5895  -19.1208 H         1 017         0.0233
     53 H15       -21.6479    9.7477  -19.3179 H         1 017         0.0233
     54 H16       -16.1968   12.8386  -17.8041 H         1 017         0.0504
     55 H17       -17.8370   12.5566  -17.1283 H         1 017         0.0504
     56 H18       -18.6608   13.1713  -19.5497 H         1 017         0.0634
     57 H19       -18.9562   14.4237  -17.6829 H         1 017         0.2100
     58 H20       -16.4569   13.2205  -20.6427 H         1 017         0.0604
     59 H21       -17.5753   15.9666  -20.5200 H         1 017         0.1873
     60 H22       -18.7828   14.7244  -24.5579 H         1 017         0.0692
     61 H23       -20.9507   15.9110  -23.5557 H         1 017         0.0592
     62 H24       -20.6715   15.9999  -25.3280 H         1 017         0.0592
     63 H25       -18.7693   18.3066  -25.8774 H         1 017         0.0985
     64 H26       -16.3192   18.3007  -22.4015 H         1 017         0.0851
     65 H27       -15.7160   16.5651  -24.2552 H         1 017         0.0339
     66 H28       -17.8403   16.4853  -25.9159 H         1 017         0.0475
     67 H29       -15.0356   14.1216  -18.7798 H         1 017         0.0449
     68 H30       -15.8738   15.7025  -18.9370 H         1 017         0.0449
     69 H31       -15.1748   17.2028  -20.2709 H         1 017         0.0557
     70 H32       -13.8234   18.1091  -22.1356 H         1 017         0.0599
     71 H33       -12.5191   16.5714  -23.5763 H         1 017         0.0559
     72 H34       -12.5917   14.1307  -23.1411 H         1 017         0.0599
     73 H35       -13.9379   13.2296  -21.2763 H         1 017         0.0557
@<TRIPOS>BOND
     1    2    1 1  
     2    3    2 ar 
     3    7    2 ar 
     4    4    3 ar 
     5    5    4 ar 
     6    5    6 ar 
     7    8    5 1  
     8    6    7 ar 
     9    8    9 2  
    10    8   10 2  
    11   11    8 am 
    12   11   12 1  
    13   16   11 1  
    14   12   13 1  
    15   13   14 1  
    16   13   15 1  
    17   17   16 1  
    18   17   18 1  
    19   19   17 1  
    20   19   20 1  
    21   32   19 1  
    22   20   21 am 
    23   21   22 2  
    24   21   23 1  
    25   23   24 1  
    26   24   25 1  
    27   24   31 1  
    28   25   26 1  
    29   27   26 1  
    30   27   28 1  
    31   31   27 1  
    32   29   28 1  
    33   30   29 2  
    34   31   30 1  
    35   38   32 1  
    36   33   34 ar 
    37   33   38 ar 
    38   34   35 ar 
    39   35   36 ar 
    40   36   37 ar 
    41   37   38 ar 
    42    1   39 1  
    43    1   40 1  
    44    3   41 1  
    45    4   42 1  
    46    6   43 1  
    47    7   44 1  
    48   12   45 1  
    49   12   46 1  
    50   13   47 1  
    51   14   48 1  
    52   14   49 1  
    53   14   50 1  
    54   15   51 1  
    55   15   52 1  
    56   15   53 1  
    57   16   54 1  
    58   16   55 1  
    59   17   56 1  
    60   18   57 1  
    61   19   58 1  
    62   20   59 1  
    63   24   60 1  
    64   25   61 1  
    65   25   62 1  
    66   27   63 1  
    67   29   64 1  
    68   30   65 1  
    69   31   66 1  
    70   32   67 1  
    71   32   68 1  
    72   33   69 1  
    73   34   70 1  
    74   35   71 1  
    75   36   72 1  
    76   37   73 1  
@<TRIPOS>SUBSTRUCTURE
     1 017         1

