### 
### Created by X-TOOL on Mon Sep 10 21:13:27 2018
### 

@<TRIPOS>MOLECULE
5kr0_ligand
   70    72     1     0     0
SMALL
GAST_HUCK


@<TRIPOS>ATOM
      1 C1        -18.6840   16.9350  -25.3020 C.3       1 478         0.0782
      2 C2        -19.8140   15.1650  -24.4130 C.3       1 478         0.0034
      3 C3        -17.6260   14.8100  -22.3820 C.2       1 478         0.3203
      4 C4        -18.5860   15.5870  -24.5160 C.3       1 478         0.1134
      5 C5        -16.7170   14.1520  -20.1650 C.3       1 478         0.0807
      6 C6        -17.6500   13.7790  -19.0340 C.3       1 478         0.0967
      7 C7        -15.4510   14.8710  -19.6530 C.3       1 478         0.0064
      8 C8        -14.5540   15.1770  -20.8630 C.ar      1 478        -0.0408
      9 C9        -14.5950   16.4430  -21.4800 C.ar      1 478        -0.0603
     10 C10       -13.7190   14.2030  -21.3560 C.ar      1 478        -0.0603
     11 C11       -13.7860   16.7030  -22.5700 C.ar      1 478        -0.0686
     12 C12       -12.9090   14.4760  -22.4600 C.ar      1 478        -0.0686
     13 C13       -12.9470   15.7280  -23.0640 C.ar      1 478        -0.0687
     14 C14       -17.0500   12.6840  -18.1150 C.3       1 478         0.0578
     15 C15       -18.2250   10.4710  -18.3870 C.3       1 478         0.0319
     16 C16       -19.5530   10.7480  -19.1700 C.3       1 478        -0.0296
     17 C17       -15.1420    9.6410  -17.6850 C.ar      1 478         0.0949
     18 C18       -14.4330   10.3000  -16.6770 C.ar      1 478        -0.0471
     19 C19       -14.0180    9.6010  -15.5500 C.ar      1 478        -0.0429
     20 C20       -14.3130    8.2370  -15.4360 C.ar      1 478         0.0353
     21 C21       -15.0220    7.5720  -16.4420 C.ar      1 478        -0.0429
     22 C22       -15.4450    8.2760  -17.5880 C.ar      1 478        -0.0471
     23 C23       -19.3560   10.5340  -20.6470 C.3       1 478        -0.0612
     24 C24       -20.5830    9.7390  -18.6880 C.3       1 478        -0.0612
     25 C25       -20.7840   16.4600  -24.6610 C.3       1 478         0.0505
     26 N1        -17.3930   15.0680  -21.0080 N.am      1 478        -0.2550
     27 N2        -17.1200   11.3700  -18.7330 N.am      1 478        -0.2327
     28 N3        -13.8620    7.5350  -14.2510 N.pl3     1 478        -0.3369
     29 O1        -18.0870   15.9190  -23.1880 O.3       1 478        -0.2582
     30 O2        -17.4650   13.7160  -22.8640 O.2       1 478        -0.3775
     31 O3        -17.9080   14.9080  -18.2780 O.3       1 478        -0.3877
     32 O4        -14.6360   11.6060  -19.3630 O.2       1 478        -0.1518
     33 O5        -15.8090    9.8090  -20.2470 O.2       1 478        -0.1518
     34 O6        -19.9980   17.5150  -24.7630 O.3       1 478        -0.3768
     35 S1        -15.6560   10.6250  -19.1020 S.o2      1 478         0.0648
     36 H1        -18.7369   16.7634  -26.3872 H         1 478         0.0589
     37 H2        -17.8325   17.5937  -25.0760 H         1 478         0.0589
     38 H3        -19.9881   14.7486  -23.4099 H         1 478         0.0316
     39 H4        -20.0134   14.3925  -25.1703 H         1 478         0.0316
     40 H5        -17.9403   14.8529  -25.0202 H         1 478         0.0671
     41 H6        -16.4335   13.2476  -20.7232 H         1 478         0.0604
     42 H7        -18.5911   13.4033  -19.4619 H         1 478         0.0634
     43 H8        -14.9141   14.2222  -18.9454 H         1 478         0.0449
     44 H9        -15.7319   15.8083  -19.1505 H         1 478         0.0449
     45 H10       -15.2593   17.2111  -21.1008 H         1 478         0.0557
     46 H11       -13.6894   13.2253  -20.8889 H         1 478         0.0557
     47 H12       -13.8117   17.6799  -23.0391 H         1 478         0.0599
     48 H13       -12.2481   13.7092  -22.8477 H         1 478         0.0599
     49 H14       -12.3178   15.9365  -23.9218 H         1 478         0.0559
     50 H15       -17.6117   12.6642  -17.1694 H         1 478         0.0504
     51 H16       -15.9968   12.9269  -17.9108 H         1 478         0.0504
     52 H17       -17.9087    9.4392  -18.5999 H         1 478         0.0480
     53 H18       -18.4310   10.5769  -17.3117 H         1 478         0.0480
     54 H19       -19.8966   11.7756  -18.9806 H         1 478         0.0311
     55 H20       -14.2069   11.3557  -16.7742 H         1 478         0.0602
     56 H21       -13.4696   10.1082  -14.7645 H         1 478         0.0515
     57 H22       -15.2460    6.5163  -16.3405 H         1 478         0.0515
     58 H23       -15.9925    7.7727  -18.3767 H         1 478         0.0602
     59 H24       -20.2998   10.7339  -21.1755 H         1 478         0.0233
     60 H25       -19.0471    9.4941  -20.8289 H         1 478         0.0233
     61 H26       -18.5773   11.2177  -21.0159 H         1 478         0.0233
     62 H27       -20.7486    9.8712  -17.6086 H         1 478         0.0233
     63 H28       -20.2161    8.7200  -18.8805 H         1 478         0.0233
     64 H29       -21.5295    9.8957  -19.2260 H         1 478         0.0233
     65 H30       -21.4741   16.5833  -23.8134 H         1 478         0.0561
     66 H31       -21.3615   16.3278  -25.5878 H         1 478         0.0561
     67 H32       -17.7183   15.9298  -20.6187 H         1 478         0.1873
     68 H33       -13.3411    8.0403  -13.5201 H         1 478         0.1719
     69 H34       -14.0623    6.5308  -14.1398 H         1 478         0.1719
     70 H35       -18.5260   14.6923  -17.5895 H         1 478         0.2100
@<TRIPOS>BOND
     1    4    1 1  
     2    1   34 1  
     3    4    2 1  
     4    2   25 1  
     5   26    3 am 
     6    3   29 1  
     7    3   30 2  
     8   29    4 1  
     9    6    5 1  
    10    5    7 1  
    11    5   26 1  
    12   14    6 1  
    13    6   31 1  
    14    7    8 1  
    15    8    9 ar 
    16    8   10 ar 
    17    9   11 ar 
    18   10   12 ar 
    19   11   13 ar 
    20   12   13 ar 
    21   27   14 1  
    22   15   16 1  
    23   27   15 1  
    24   16   23 1  
    25   16   24 1  
    26   17   18 ar 
    27   17   22 ar 
    28   35   17 1  
    29   18   19 ar 
    30   19   20 ar 
    31   21   20 ar 
    32   20   28 1  
    33   22   21 ar 
    34   25   34 1  
    35   27   35 am 
    36   35   32 2  
    37   35   33 2  
    38    1   36 1  
    39    1   37 1  
    40    2   38 1  
    41    2   39 1  
    42    4   40 1  
    43    5   41 1  
    44    6   42 1  
    45    7   43 1  
    46    7   44 1  
    47    9   45 1  
    48   10   46 1  
    49   11   47 1  
    50   12   48 1  
    51   13   49 1  
    52   14   50 1  
    53   14   51 1  
    54   15   52 1  
    55   15   53 1  
    56   16   54 1  
    57   18   55 1  
    58   19   56 1  
    59   21   57 1  
    60   22   58 1  
    61   23   59 1  
    62   23   60 1  
    63   23   61 1  
    64   24   62 1  
    65   24   63 1  
    66   24   64 1  
    67   25   65 1  
    68   25   66 1  
    69   26   67 1  
    70   28   68 1  
    71   28   69 1  
    72   31   70 1  
@<TRIPOS>SUBSTRUCTURE
     1 478         1

