### 
### Created by X-TOOL on Mon Sep 10 21:13:28 2018
### 

@<TRIPOS>MOLECULE
5kr1_ligand
   73    76     1     0     0
SMALL
GAST_HUCK


@<TRIPOS>ATOM
      1 N1        -10.3220   -7.9870  -17.8700 N.pl3     1 017        -0.3369
      2 C2         -9.5960   -6.9780  -17.1550 C.ar      1 017         0.0353
      3 C3         -8.4720   -7.3600  -16.4440 C.ar      1 017        -0.0429
      4 C4         -7.7500   -6.4090  -15.7380 C.ar      1 017        -0.0471
      5 C5         -8.1580   -5.0840  -15.7410 C.ar      1 017         0.0949
      6 C6         -9.2830   -4.6860  -16.4510 C.ar      1 017        -0.0471
      7 C7        -10.0090   -5.6520  -17.1670 C.ar      1 017        -0.0429
      8 S8         -7.1370   -3.9150  -14.8100 S.o2      1 017         0.0648
      9 O9         -7.9170   -2.8380  -14.2920 O.2       1 017        -0.1518
     10 O10        -6.4820   -4.6090  -13.7510 O.2       1 017        -0.1518
     11 N11        -5.9610   -3.2900  -15.8390 N.am      1 017        -0.2327
     12 C12        -5.0990   -4.2670  -16.5160 C.3       1 017         0.0319
     13 C13        -3.5910   -3.8980  -16.5190 C.3       1 017        -0.0296
     14 C14        -3.0520   -3.9650  -15.0970 C.3       1 017        -0.0612
     15 C15        -2.8540   -4.8860  -17.3940 C.3       1 017        -0.0612
     16 C16        -6.2730   -1.9850  -16.4750 C.3       1 017         0.0578
     17 C17        -5.3710   -0.8830  -15.9180 C.3       1 017         0.0967
     18 O18        -5.2990    0.1790  -16.8160 O.3       1 017        -0.3877
     19 C19        -5.8370   -0.3700  -14.5590 C.3       1 017         0.0807
     20 N20        -4.8500    0.5530  -14.1160 N.am      1 017        -0.2550
     21 C21        -3.8770    0.2420  -13.1050 C.2       1 017         0.3204
     22 O22        -3.8590   -0.8110  -12.4820 O.2       1 017        -0.3775
     23 O23        -2.9270    1.2790  -12.9030 O.3       1 017        -0.2563
     24 C24        -2.1350    1.2880  -11.7600 C.3       1 017         0.1234
     25 C25        -0.8400    1.8660  -12.1530 C.3       1 017         0.0834
     26 O26        -1.0550    3.1620  -12.1270 O.3       1 017        -0.3429
     27 C27        -2.0650    3.4060  -10.9330 C.3       1 017         0.1875
     28 O28        -3.1020    4.3440  -11.5050 O.3       1 017        -0.3064
     29 C29        -4.3970    3.5940  -11.4960 C.2       1 017         0.0387
     30 C30        -4.2030    2.5770  -10.7420 C.2       1 017        -0.0682
     31 C31        -2.6200    2.3070  -10.6820 C.3       1 017         0.0589
     32 C32        -7.1470    0.4130  -14.5830 C.3       1 017         0.0064
     33 C33        -7.4160    2.1630  -12.9130 C.ar      1 017        -0.0603
     34 C34        -7.6690    2.6970  -11.6440 C.ar      1 017        -0.0686
     35 C35        -7.9770    1.8500  -10.5880 C.ar      1 017        -0.0687
     36 C36        -8.0340    0.4760  -10.7990 C.ar      1 017        -0.0686
     37 C37        -7.7790   -0.0590  -12.0630 C.ar      1 017        -0.0603
     38 C38        -7.4730    0.7880  -13.1220 C.ar      1 017        -0.0408
     39 H1        -10.0002   -8.9652  -17.8492 H         1 017         0.1719
     40 H2        -11.1653   -7.7335  -18.4043 H         1 017         0.1719
     41 H3         -8.1573   -8.3973  -16.4388 H         1 017         0.0515
     42 H4         -6.8659   -6.7021  -15.1834 H         1 017         0.0602
     43 H5         -9.5955   -3.6480  -16.4527 H         1 017         0.0602
     44 H6        -10.8903   -5.3630  -17.7281 H         1 017         0.0515
     45 H7         -5.4335   -4.3558  -17.5601 H         1 017         0.0480
     46 H8         -5.2148   -5.2369  -16.0101 H         1 017         0.0480
     47 H9         -3.4575   -2.8806  -16.9154 H         1 017         0.0311
     48 H10        -1.9835   -3.7038  -15.0972 H         1 017         0.0233
     49 H11        -3.1802   -4.9843  -14.7039 H         1 017         0.0233
     50 H12        -3.6028   -3.2553  -14.4623 H         1 017         0.0233
     51 H13        -3.2481   -4.8326  -18.4196 H         1 017         0.0233
     52 H14        -2.9962   -5.9028  -16.9991 H         1 017         0.0233
     53 H15        -1.7815   -4.6416  -17.4001 H         1 017         0.0233
     54 H16        -7.3235   -1.7275  -16.2745 H         1 017         0.0504
     55 H17        -6.1160   -2.0657  -17.5607 H         1 017         0.0504
     56 H18        -4.3623   -1.3038  -15.7941 H         1 017         0.0634
     57 H19        -6.1697    0.5313  -16.9585 H         1 017         0.2100
     58 H20        -5.9295   -1.2172  -13.8635 H         1 017         0.0604
     59 H21        -4.8321    1.4638  -14.5285 H         1 017         0.1873
     60 H22        -2.0439    0.2736  -11.3445 H         1 017         0.0692
     61 H23        -0.5538    1.5364  -13.1627 H         1 017         0.0592
     62 H24        -0.0523    1.5850  -11.4385 H         1 017         0.0592
     63 H25        -1.5712    3.8238  -10.0433 H         1 017         0.0985
     64 H26        -5.3137    3.8580  -12.0213 H         1 017         0.0851
     65 H27        -4.9728    1.9989  -10.2329 H         1 017         0.0339
     66 H28        -2.3419    1.9455   -9.6810 H         1 017         0.0475
     67 H29        -7.9516   -0.2089  -15.0022 H         1 017         0.0449
     68 H30        -7.0326    1.3229  -15.1903 H         1 017         0.0449
     69 H31        -7.1743    2.8239  -13.7375 H         1 017         0.0557
     70 H32        -7.6246    3.7686  -11.4863 H         1 017         0.0599
     71 H33        -8.1723    2.2577   -9.6028 H         1 017         0.0559
     72 H34        -8.2785   -0.1846   -9.9751 H         1 017         0.0599
     73 H35        -7.8195   -1.1311  -12.2181 H         1 017         0.0557
@<TRIPOS>BOND
     1    2    1 1  
     2    3    2 ar 
     3    7    2 ar 
     4    4    3 ar 
     5    5    4 ar 
     6    5    6 ar 
     7    8    5 1  
     8    6    7 ar 
     9    8    9 2  
    10    8   10 2  
    11   11    8 am 
    12   11   12 1  
    13   16   11 1  
    14   12   13 1  
    15   13   14 1  
    16   13   15 1  
    17   17   16 1  
    18   17   18 1  
    19   19   17 1  
    20   19   20 1  
    21   32   19 1  
    22   20   21 am 
    23   21   22 2  
    24   21   23 1  
    25   23   24 1  
    26   24   25 1  
    27   24   31 1  
    28   25   26 1  
    29   27   26 1  
    30   27   28 1  
    31   31   27 1  
    32   29   28 1  
    33   30   29 2  
    34   31   30 1  
    35   38   32 1  
    36   33   34 ar 
    37   33   38 ar 
    38   34   35 ar 
    39   35   36 ar 
    40   36   37 ar 
    41   37   38 ar 
    42    1   39 1  
    43    1   40 1  
    44    3   41 1  
    45    4   42 1  
    46    6   43 1  
    47    7   44 1  
    48   12   45 1  
    49   12   46 1  
    50   13   47 1  
    51   14   48 1  
    52   14   49 1  
    53   14   50 1  
    54   15   51 1  
    55   15   52 1  
    56   15   53 1  
    57   16   54 1  
    58   16   55 1  
    59   17   56 1  
    60   18   57 1  
    61   19   58 1  
    62   20   59 1  
    63   24   60 1  
    64   25   61 1  
    65   25   62 1  
    66   27   63 1  
    67   29   64 1  
    68   30   65 1  
    69   31   66 1  
    70   32   67 1  
    71   32   68 1  
    72   33   69 1  
    73   34   70 1  
    74   35   71 1  
    75   36   72 1  
    76   37   73 1  
@<TRIPOS>SUBSTRUCTURE
     1 017         1

