### 
### Created by X-TOOL on Mon Sep 10 21:13:28 2018
### 

@<TRIPOS>MOLECULE
5kr2_ligand
  100   104     1     0     0
SMALL
GAST_HUCK


@<TRIPOS>ATOM
      1 C          -3.0090  -23.2730   61.1800 C.2       1 ROC         0.2293
      2 O          -2.5800  -22.4770   62.0110 O.2       1 ROC        -0.3762
      3 N1         -4.1330  -25.4140   60.6240 N.ar      1 ROC        -0.2737
      4 C2         -4.0130  -24.3920   61.5380 C.ar      1 ROC         0.1219
      5 C3         -4.7660  -24.4240   62.7040 C.ar      1 ROC        -0.0136
      6 C4         -5.6270  -25.4670   62.9260 C.ar      1 ROC        -0.0314
      7 C5         -6.6360  -27.5760   62.2430 C.ar      1 ROC        -0.0444
      8 C6         -6.7550  -28.6100   61.3160 C.ar      1 ROC        -0.0546
      9 C7         -6.0000  -28.5850   60.1480 C.ar      1 ROC        -0.0545
     10 C8         -5.1250  -27.5170   59.9140 C.ar      1 ROC        -0.0370
     11 C4A        -5.7500  -26.4980   62.0040 C.ar      1 ROC         0.0097
     12 C8A        -5.0050  -26.4680   60.8520 C.ar      1 ROC         0.0527
     13 N          -2.5330  -23.2250   59.8300 N.am      1 ROC        -0.2600
     14 CA         -1.6120  -22.2260   59.4080 C.3       1 ROC         0.1473
     15 C1         -2.2850  -21.5730   58.2020 C.2       1 ROC         0.2045
     16 O1         -2.2250  -22.1120   57.1060 O.2       1 ROC        -0.3943
     17 CB         -0.3000  -22.8250   58.9950 C.3       1 ROC         0.0773
     18 CG          0.4690  -23.2540   60.2280 C.2       1 ROC         0.1780
     19 OD1         0.8080  -22.4340   61.0640 O.2       1 ROC        -0.3970
     20 ND2         0.7960  -24.6280   60.3990 N.am      1 ROC        -0.3007
     21 C9         -2.9760  -18.3190   57.1370 C.3       1 ROC         0.1194
     22 O2         -3.1870  -17.4860   58.2280 O.3       1 ROC        -0.3840
     23 CA1        -3.6850  -19.6600   57.3460 C.3       1 ROC         0.0823
     24 N2         -3.0190  -20.3270   58.4170 N.am      1 ROC        -0.2772
     25 CB1        -5.1430  -19.4730   57.7290 C.3       1 ROC         0.0066
     26 CG1        -5.7190  -20.7790   58.3100 C.ar      1 ROC        -0.0408
     27 CD1        -6.1420  -21.7940   57.4560 C.ar      1 ROC        -0.0603
     28 CD2        -5.8220  -20.9610   59.6840 C.ar      1 ROC        -0.0603
     29 CE1        -6.6680  -22.9690   57.9710 C.ar      1 ROC        -0.0686
     30 CE2        -6.3410  -22.1510   60.2040 C.ar      1 ROC        -0.0686
     31 CZ         -6.7640  -23.1570   59.3420 C.ar      1 ROC        -0.0687
     32 N11        -2.7100  -18.2260   54.7210 N.4       1 ROC         0.2562
     33 CM         -3.4490  -17.6180   55.8430 C.3       1 ROC        -0.0008
     34 C21        -3.4640  -18.0840   53.4190 C.3       1 ROC         0.0688
     35 CC         -4.8250  -18.6810   53.5120 C.2       1 ROC         0.2251
     36 O3         -5.0320  -19.7400   54.0670 O.2       1 ROC        -0.3909
     37 C31        -2.6950  -18.6900   52.2360 C.3       1 ROC         0.0113
     38 C3A        -1.3220  -18.0790   52.1460 C.3       1 ROC        -0.0261
     39 C41        -0.5650  -18.7740   50.9790 C.3       1 ROC        -0.0494
     40 C51        -0.2470  -20.2330   51.2950 C.3       1 ROC        -0.0528
     41 C61         0.5380  -20.3560   52.5890 C.3       1 ROC        -0.0526
     42 C71        -0.1480  -19.6450   53.7670 C.3       1 ROC        -0.0451
     43 C7A        -0.5620  -18.1880   53.4370 C.3       1 ROC         0.0024
     44 C81        -1.3460  -17.6280   54.6290 C.3       1 ROC        -0.0266
     45 N3         -5.8610  -17.8920   52.8910 N.am      1 ROC        -0.2771
     46 CD         -7.2480  -18.3170   52.8830 C.3       1 ROC         0.0448
     47 C11        -7.4120  -19.6440   52.1610 C.3       1 ROC        -0.0396
     48 C22        -7.7070  -18.4400   54.3280 C.3       1 ROC        -0.0396
     49 C32        -8.0470  -17.2760   52.1430 C.3       1 ROC        -0.0396
     50 H1         -4.6735  -23.6286   63.4346 H         1 ROC         0.0729
     51 H2         -6.2198  -25.4873   63.8333 H         1 ROC         0.0774
     52 H3         -7.2254  -27.5974   63.1525 H         1 ROC         0.0657
     53 H4         -7.4351  -29.4327   61.5050 H         1 ROC         0.0652
     54 H5         -6.0884  -29.3868   59.4238 H         1 ROC         0.0657
     55 H6         -4.5347  -27.4952   59.0051 H         1 ROC         0.0653
     56 H7         -2.8539  -23.9062   59.1719 H         1 ROC         0.1882
     57 H8         -1.4443  -21.4917   60.2097 H         1 ROC         0.0826
     58 H9          0.2855  -22.0779   58.4391 H         1 ROC         0.0551
     59 H10        -0.4819  -23.6998   58.3534 H         1 ROC         0.0551
     60 H11         1.3032  -24.9243   61.2083 H         1 ROC         0.1814
     61 H12         0.5186  -25.2975   59.7099 H         1 ROC         0.1814
     62 H13        -1.8967  -18.5124   57.0489 H         1 ROC         0.0672
     63 H14        -2.7419  -16.6591   58.0844 H         1 ROC         0.2101
     64 H15        -3.6229  -20.2588   56.4253 H         1 ROC         0.0606
     65 H16        -3.0551  -19.9333   59.3356 H         1 ROC         0.1857
     66 H17        -5.7187  -19.1892   56.8357 H         1 ROC         0.0449
     67 H18        -5.2200  -18.6761   58.4833 H         1 ROC         0.0449
     68 H19        -6.0597  -21.6650   56.3829 H         1 ROC         0.0557
     69 H20        -5.4979  -20.1754   60.3570 H         1 ROC         0.0557
     70 H21        -7.0070  -23.7471   57.2967 H         1 ROC         0.0599
     71 H22        -6.4134  -22.2889   61.2768 H         1 ROC         0.0599
     72 H23        -7.1661  -24.0821   59.7389 H         1 ROC         0.0559
     73 H24        -2.6077  -19.2106   54.9111 H         1 ROC         0.2057
     74 H25        -3.2321  -16.5410   55.8972 H         1 ROC         0.0841
     75 H26        -4.5302  -17.7679   55.7071 H         1 ROC         0.0841
     76 H27        -3.5822  -17.0081   53.2229 H         1 ROC         0.1100
     77 H28        -3.2442  -18.4903   51.3041 H         1 ROC         0.0348
     78 H29        -2.6013  -19.7764   52.3808 H         1 ROC         0.0348
     79 H30        -1.4303  -17.0104   51.9088 H         1 ROC         0.0309
     80 H31         0.3771  -18.2364   50.7962 H         1 ROC         0.0268
     81 H32        -1.1911  -18.7343   50.0755 H         1 ROC         0.0268
     82 H33         0.3481  -20.6568   50.4727 H         1 ROC         0.0265
     83 H34        -1.1890  -20.7926   51.3922 H         1 ROC         0.0265
     84 H35         1.5333  -19.9117   52.4408 H         1 ROC         0.0265
     85 H36         0.6456  -21.4226   52.8357 H         1 ROC         0.0265
     86 H37         0.5476  -19.6273   54.6189 H         1 ROC         0.0270
     87 H38        -1.0497  -20.2119   54.0416 H         1 ROC         0.0270
     88 H39         0.3557  -17.5922   53.3240 H         1 ROC         0.0355
     89 H40        -0.7954  -17.8514   55.5547 H         1 ROC         0.0818
     90 H41        -1.4413  -16.5383   54.5129 H         1 ROC         0.0818
     91 H42        -5.6158  -17.0269   52.4533 H         1 ROC         0.1859
     92 H43        -8.4717  -19.9388   52.1718 H         1 ROC         0.0254
     93 H44        -6.8121  -20.4140   52.6682 H         1 ROC         0.0254
     94 H45        -7.0710  -19.5399   51.1204 H         1 ROC         0.0254
     95 H46        -8.7586  -18.7618   54.3525 H         1 ROC         0.0254
     96 H47        -7.6103  -17.4649   54.8277 H         1 ROC         0.0254
     97 H48        -7.0842  -19.1823   54.8487 H         1 ROC         0.0254
     98 H49        -9.1058  -17.5734   52.1214 H         1 ROC         0.0254
     99 H50        -7.6699  -17.1878   51.1134 H         1 ROC         0.0254
    100 H51        -7.9488  -16.3068   52.6538 H         1 ROC         0.0254
@<TRIPOS>BOND
     1    1    2 2  
     2    1    4 1  
     3   13    1 am 
     4    4    3 ar 
     5    3   12 ar 
     6    4    5 ar 
     7    5    6 ar 
     8    6   11 ar 
     9    7    8 ar 
    10   11    7 ar 
    11    9    8 ar 
    12   10    9 ar 
    13   12   10 ar 
    14   12   11 ar 
    15   14   13 1  
    16   15   14 1  
    17   14   17 1  
    18   15   16 2  
    19   24   15 am 
    20   17   18 1  
    21   18   19 2  
    22   18   20 am 
    23   21   22 1  
    24   23   21 1  
    25   21   33 1  
    26   23   24 1  
    27   23   25 1  
    28   25   26 1  
    29   26   27 ar 
    30   26   28 ar 
    31   27   29 ar 
    32   28   30 ar 
    33   29   31 ar 
    34   30   31 ar 
    35   33   32 1  
    36   32   34 1  
    37   32   44 1  
    38   34   35 1  
    39   34   37 1  
    40   35   36 2  
    41   35   45 am 
    42   37   38 1  
    43   38   39 1  
    44   38   43 1  
    45   39   40 1  
    46   40   41 1  
    47   41   42 1  
    48   42   43 1  
    49   43   44 1  
    50   45   46 1  
    51   46   47 1  
    52   46   48 1  
    53   46   49 1  
    54    5   50 1  
    55    6   51 1  
    56    7   52 1  
    57    8   53 1  
    58    9   54 1  
    59   10   55 1  
    60   13   56 1  
    61   14   57 1  
    62   17   58 1  
    63   17   59 1  
    64   20   60 1  
    65   20   61 1  
    66   21   62 1  
    67   22   63 1  
    68   23   64 1  
    69   24   65 1  
    70   25   66 1  
    71   25   67 1  
    72   27   68 1  
    73   28   69 1  
    74   29   70 1  
    75   30   71 1  
    76   31   72 1  
    77   32   73 1  
    78   33   74 1  
    79   33   75 1  
    80   34   76 1  
    81   37   77 1  
    82   37   78 1  
    83   38   79 1  
    84   39   80 1  
    85   39   81 1  
    86   40   82 1  
    87   40   83 1  
    88   41   84 1  
    89   41   85 1  
    90   42   86 1  
    91   42   87 1  
    92   43   88 1  
    93   44   89 1  
    94   44   90 1  
    95   45   91 1  
    96   47   92 1  
    97   47   93 1  
    98   47   94 1  
    99   48   95 1  
   100   48   96 1  
   101   48   97 1  
   102   49   98 1  
   103   49   99 1  
   104   49  100 1  
@<TRIPOS>SUBSTRUCTURE
     1 ROC         1

