### 
### Created by X-TOOL on Mon Sep 10 21:13:29 2018
### 

@<TRIPOS>MOLECULE
5kr8_ligand
   41    43     1     0     0
SMALL
GAST_HUCK


@<TRIPOS>ATOM
      1 N14        14.9280   40.0540   -6.2580 N.pl3     1 6WE        -0.2673
      2 C18        20.2250   39.4510   -6.5750 C.ar      1 6WE        -0.0006
      3 C17        18.9230   39.2490   -7.0240 C.ar      1 6WE        -0.0379
      4 C16        18.6400   38.8580   -8.3350 C.ar      1 6WE         0.0261
      5 C15        16.9900   37.2030   -9.1970 C.3       1 6WE        -0.0456
      6 C19        21.2880   39.2600   -7.4530 C.ar      1 6WE         0.1648
      7 C20        21.0320   38.8740   -8.7660 C.ar      1 6WE         0.0380
      8 C21        19.7250   38.6730   -9.2110 C.ar      1 6WE         0.1644
      9 C12        15.6520   39.9860   -7.3820 C.cat     1 6WE         0.2591
     10 C1         14.1450   41.2170  -11.3450 C.3       1 6WE        -0.0299
     11 C2         15.4410   41.9540  -11.6060 C.2       1 6WE         0.0138
     12 C3         16.6480   41.8770  -10.8970 C.2       1 6WE        -0.0041
     13 C4         17.5460   42.7400  -11.5240 C.2       1 6WE         0.1262
     14 O5         16.9540   43.3050  -12.5300 O.3       1 6WE        -0.1900
     15 N6         15.6300   42.8330  -12.6130 N.2       1 6WE        -0.1775
     16 C7         18.9800   42.9900  -11.1110 C.3       1 6WE         0.0025
     17 C8         16.9810   41.0350   -9.6760 C.3       1 6WE         0.0199
     18 C9         16.8420   39.5370   -9.9820 C.3       1 6WE        -0.0192
     19 C10        17.1930   38.6590   -8.7730 C.3       1 6WE         0.0955
     20 N11        16.2550   38.8850   -7.6660 N.pl3     1 6WE        -0.2866
     21 S13        15.9060   41.4670   -8.3040 S.3       1 6WE        -0.0799
     22 F22        19.5490   38.3030  -10.4870 F         1 6WE        -0.1563
     23 F23        22.5400   39.4520   -7.0180 F         1 6WE        -0.1572
     24 H1         14.7634   39.2045   -5.6992 H         1 6WE         0.3186
     25 H2         14.5355   40.9558   -5.9520 H         1 6WE         0.3186
     26 H3         20.4094   39.7543   -5.5508 H         1 6WE         0.0665
     27 H4         18.1013   39.4001   -6.3334 H         1 6WE         0.0823
     28 H5         15.9470   37.0554   -9.5138 H         1 6WE         0.0167
     29 H6         17.2128   36.5395   -8.3484 H         1 6WE         0.0167
     30 H7         17.6641   36.9673  -10.0337 H         1 6WE         0.0167
     31 H8         21.8589   38.7277   -9.4515 H         1 6WE         0.0674
     32 H9         13.3970   41.5138  -12.0950 H         1 6WE         0.0367
     33 H10        13.7761   41.4687  -10.3397 H         1 6WE         0.0367
     34 H11        14.3200   40.1330  -11.4107 H         1 6WE         0.0367
     35 H12        19.4366   43.7203  -11.7952 H         1 6WE         0.0423
     36 H13        19.5435   42.0462  -11.1529 H         1 6WE         0.0423
     37 H14        19.0024   43.3853  -10.0847 H         1 6WE         0.0423
     38 H15        18.0225   41.2390   -9.3868 H         1 6WE         0.0466
     39 H16        17.5171   39.2816  -10.8121 H         1 6WE         0.0225
     40 H17        15.8027   39.3316  -10.2781 H         1 6WE         0.0225
     41 H18        16.0596   38.0798   -7.0541 H         1 6WE         0.3096
@<TRIPOS>BOND
     1    9    1 ar 
     2    3    2 ar 
     3    2    6 ar 
     4    4    3 ar 
     5    4    8 ar 
     6   19    4 1  
     7   19    5 1  
     8    7    6 ar 
     9    6   23 1  
    10    8    7 ar 
    11    8   22 1  
    12    9   20 ar 
    13   21    9 1  
    14   11   10 1  
    15   12   11 1  
    16   11   15 2  
    17   12   13 2  
    18   17   12 1  
    19   13   14 1  
    20   13   16 1  
    21   14   15 1  
    22   18   17 1  
    23   17   21 1  
    24   18   19 1  
    25   19   20 1  
    26    1   24 1  
    27    1   25 1  
    28    2   26 1  
    29    3   27 1  
    30    5   28 1  
    31    5   29 1  
    32    5   30 1  
    33    7   31 1  
    34   10   32 1  
    35   10   33 1  
    36   10   34 1  
    37   16   35 1  
    38   16   36 1  
    39   16   37 1  
    40   17   38 1  
    41   18   39 1  
    42   18   40 1  
    43   20   41 1  
@<TRIPOS>SUBSTRUCTURE
     1 6WE         1

