### 
### Created by X-TOOL on Mon Sep 10 21:13:26 2018
### 

@<TRIPOS>MOLECULE
5kre_ligand
   29    30     1     0     0
SMALL
GAST_HUCK


@<TRIPOS>ATOM
      1 C4         22.0090   43.9720   26.5000 C.ar      1 6WG        -0.0176
      2 C7         22.4500   42.8040   27.3720 C.3       1 6WG         0.0787
      3 C6         21.9920   46.3340   26.0010 C.ar      1 6WG        -0.0685
      4 C9         21.3660   43.4420   29.5780 C.3       1 6WG        -0.0473
      5 C8         22.6650   43.0900   28.8600 C.3       1 6WG        -0.0195
      6 C1         21.1800   46.1150   24.9080 C.ar      1 6WG        -0.0687
      7 C2         20.7930   44.8320   24.5940 C.ar      1 6WG        -0.0685
      8 C3         21.2060   43.7640   25.3790 C.ar      1 6WG        -0.0581
      9 C5         22.4110   45.2700   26.7890 C.ar      1 6WG        -0.0581
     10 C10        20.3290   42.3540   29.4090 C.3       1 6WG        -0.0319
     11 C11        20.1530   42.0040   27.9560 C.3       1 6WG         0.0367
     12 N1         21.4550   41.7170   27.3440 N.am      1 6WG        -0.2605
     13 C12        21.7170   40.4770   26.8890 C.2       1 6WG         0.1739
     14 O1         20.8960   39.5940   26.8070 O.2       1 6WG        -0.3827
     15 H1         23.3996   42.4372   26.9553 H         1 6WG         0.0724
     16 H2         22.3050   47.3424   26.2464 H         1 6WG         0.0599
     17 H3         20.9706   44.3807   29.1626 H         1 6WG         0.0268
     18 H4         21.5742   43.5743   30.6500 H         1 6WG         0.0268
     19 H5         23.3638   43.9336   28.9603 H         1 6WG         0.0310
     20 H6         23.0988   42.1964   29.3325 H         1 6WG         0.0310
     21 H7         20.8484   46.9486   24.2996 H         1 6WG         0.0559
     22 H8         20.1629   44.6547   23.7299 H         1 6WG         0.0599
     23 H9         20.9009   42.7572   25.1176 H         1 6WG         0.0557
     24 H10        23.0586   45.4542   27.6386 H         1 6WG         0.0557
     25 H11        19.3685   42.7052   29.8141 H         1 6WG         0.0285
     26 H12        20.6533   41.4582   29.9589 H         1 6WG         0.0285
     27 H13        19.6838   42.8500   27.4325 H         1 6WG         0.0526
     28 H14        19.5080   41.1170   27.8712 H         1 6WG         0.0526
     29 H15        22.7357   40.2553   26.5742 H         1 6WG         0.1547
@<TRIPOS>BOND
     1    1    2 1  
     2    1    8 ar 
     3    9    1 ar 
     4    2    5 1  
     5    2   12 1  
     6    3    6 ar 
     7    3    9 ar 
     8    5    4 1  
     9    4   10 1  
    10    6    7 ar 
    11    7    8 ar 
    12   10   11 1  
    13   11   12 1  
    14   12   13 am 
    15   13   14 2  
    16    2   15 1  
    17    3   16 1  
    18    4   17 1  
    19    4   18 1  
    20    5   19 1  
    21    5   20 1  
    22    6   21 1  
    23    7   22 1  
    24    8   23 1  
    25    9   24 1  
    26   10   25 1  
    27   10   26 1  
    28   11   27 1  
    29   11   28 1  
    30   13   29 1  
@<TRIPOS>SUBSTRUCTURE
     1 6WG         1

