### 
### Created by X-TOOL on Mon Sep 10 21:13:28 2018
### 

@<TRIPOS>MOLECULE
5ktu_ligand
   35    37     1     0     0
SMALL
GAST_HUCK


@<TRIPOS>ATOM
      1 CAM        50.4150  121.5190    6.8480 C.3       1 6XB         0.0232
      2 CAN        51.1710  120.4910    6.0470 C.3       1 6XB         0.0462
      3 NAO        50.7390  120.6260    4.6440 N.am      1 6XB        -0.2685
      4 CAQ        50.0120  119.6310    4.1270 C.2       1 6XB         0.1763
      5 OAR        49.7040  118.6570    4.7990 O.2       1 6XB        -0.3971
      6 CAS        49.7360  119.6930    2.6120 C.3       1 6XB         0.0259
      7 CAP        51.0380  121.8840    3.9760 C.3       1 6XB         0.0495
      8 CAL        50.6610  122.9480    4.8520 C.2       1 6XB         0.0129
      9 CAK        50.3720  122.7510    6.1820 C.2       1 6XB         0.0601
     10 NAJ        50.1000  123.9630    6.7130 N.pl3     1 6XB        -0.2413
     11 NAI        50.1080  124.8280    5.7600 N.2       1 6XB        -0.2346
     12 CAH        50.4580  124.2460    4.6150 C.2       1 6XB         0.0976
     13 NAG        50.7670  124.8820    3.4680 N.pl3     1 6XB        -0.2787
     14 CAF        50.1340  125.9410    2.9530 C.ar      1 6XB         0.0548
     15 CAE        50.7180  126.5460    1.8440 C.ar      1 6XB        -0.0408
     16 CAD        50.1260  127.6300    1.2280 C.ar      1 6XB        -0.0728
     17 CAC        48.9000  128.0460    1.6980 C.ar      1 6XB        -0.0745
     18 CAB        48.3190  127.4950    2.8270 C.ar      1 6XB        -0.0728
     19 CAA        48.9240  126.4100    3.4530 C.ar      1 6XB        -0.0408
     20 H1         50.9131  121.6538    7.8194 H         1 6XB         0.0467
     21 H2         49.3869  121.1627    7.0094 H         1 6XB         0.0467
     22 H3         50.9401  119.4811    6.4167 H         1 6XB         0.0547
     23 H4         52.2530  120.6723    6.1270 H         1 6XB         0.0547
     24 H5         49.1324  118.8233    2.3134 H         1 6XB         0.0467
     25 H6         50.6901  119.6824    2.0647 H         1 6XB         0.0467
     26 H7         49.1885  120.6175    2.3765 H         1 6XB         0.0467
     27 H8         50.4684  121.9532    3.0375 H         1 6XB         0.0576
     28 H9         52.1143  121.9441    3.7570 H         1 6XB         0.0576
     29 H10        49.9179  124.1605    7.7074 H         1 6XB         0.2409
     30 H11        51.5695  124.5165    2.9358 H         1 6XB         0.2035
     31 H12        51.6539  126.1592    1.4574 H         1 6XB         0.0525
     32 H13        50.6101  128.1373    0.4014 H         1 6XB         0.0584
     33 H14        48.3731  128.8302    1.1666 H         1 6XB         0.0510
     34 H15        47.3971  127.9069    3.2214 H         1 6XB         0.0584
     35 H16        48.4616  125.9396    4.3132 H         1 6XB         0.0525
@<TRIPOS>BOND
     1    1    2 1  
     2    1    9 1  
     3    2    3 1  
     4    3    4 am 
     5    3    7 1  
     6    4    5 2  
     7    4    6 1  
     8    7    8 1  
     9    8    9 2  
    10    8   12 1  
    11    9   10 1  
    12   10   11 1  
    13   11   12 2  
    14   12   13 1  
    15   13   14 1  
    16   14   15 ar 
    17   14   19 ar 
    18   15   16 ar 
    19   16   17 ar 
    20   17   18 ar 
    21   18   19 ar 
    22    1   20 1  
    23    1   21 1  
    24    2   22 1  
    25    2   23 1  
    26    6   24 1  
    27    6   25 1  
    28    6   26 1  
    29    7   27 1  
    30    7   28 1  
    31   10   29 1  
    32   13   30 1  
    33   15   31 1  
    34   16   32 1  
    35   17   33 1  
    36   18   34 1  
    37   19   35 1  
@<TRIPOS>SUBSTRUCTURE
     1 6XB         1

