### 
### Created by X-TOOL on Mon Sep 10 21:13:26 2018
### 

@<TRIPOS>MOLECULE
5ktw_ligand
   58    61     1     0     0
SMALL
GAST_HUCK


@<TRIPOS>ATOM
      1 C7        -34.0760    0.8480  -15.0390 C.ar      1 6XG         0.0390
      2 C9        -34.1990    2.6470  -16.6320 C.ar      1 6XG        -0.0671
      3 C2        -33.1070   -2.8020  -15.1620 C.3       1 6XG         0.0359
      4 C10       -34.7880    3.4540  -15.6770 C.ar      1 6XG        -0.0365
      5 C1        -34.2920   -3.7460  -15.0980 C.3       1 6XG        -0.0423
      6 C3        -31.8680   -3.2670  -15.9040 C.3       1 6XG        -0.0423
      7 N4        -33.4970   -1.4310  -15.5510 N.am      1 6XG        -0.2838
      8 C5        -33.7180   -0.5000  -14.6090 C.2       1 6XG         0.2022
      9 O6        -33.6230   -0.7650  -13.3890 O.2       1 6XG        -0.3847
     10 C8        -33.8470    1.3370  -16.3380 C.ar      1 6XG        -0.0547
     11 C11       -35.0180    2.9790  -14.3910 C.ar      1 6XG         0.0604
     12 C12       -34.6560    1.6840  -14.0820 C.ar      1 6XG        -0.0211
     13 N13       -35.5280    3.8590  -13.4350 N.pl3     1 6XG        -0.2779
     14 C14       -36.1090    3.5070  -12.2130 C.2       1 6XG         0.0978
     15 C15       -36.0490    4.2780  -11.0410 C.2       1 6XG         0.0131
     16 C16       -36.7760    3.5610  -10.1310 C.2       1 6XG         0.0629
     17 N17       -37.2160    2.4340  -10.7210 N.pl3     1 6XG        -0.2270
     18 N18       -36.7940    2.3920  -12.0240 N.2       1 6XG        -0.2321
     19 C19       -38.0310    1.3570  -10.1580 C.3       1 6XG         0.0644
     20 C20       -39.4490    1.4110  -10.7280 C.3       1 6XG        -0.0132
     21 C21       -40.5690    0.7880   -9.8930 C.3       1 6XG        -0.0474
     22 C22       -40.4110    2.3000   -9.9640 C.3       1 6XG        -0.0474
     23 C23       -37.0200    3.9770   -8.7040 C.3       1 6XG         0.0234
     24 C24       -36.6570    5.4510   -8.5680 C.3       1 6XG         0.0462
     25 N25       -35.3880    5.7120   -9.2550 N.am      1 6XG        -0.2685
     26 C26       -35.3670    5.5850  -10.7310 C.3       1 6XG         0.0495
     27 C27       -34.3170    6.1080   -8.5420 C.2       1 6XG         0.1763
     28 O28       -34.3710    6.1860   -7.2930 O.2       1 6XG        -0.3971
     29 C29       -33.0040    6.3940   -9.2230 C.3       1 6XG         0.0259
     30 H1        -34.0095    3.0423  -17.6234 H         1 6XG         0.0596
     31 H2        -32.7769   -2.7204  -14.1159 H         1 6XG         0.0550
     32 H3        -35.0735    4.4678  -15.9335 H         1 6XG         0.0560
     33 H4        -33.9467   -4.7485  -14.8051 H         1 6XG         0.0252
     34 H5        -34.7732   -3.7980  -16.0858 H         1 6XG         0.0252
     35 H6        -35.0157   -3.3764  -14.3566 H         1 6XG         0.0252
     36 H7        -31.1000   -2.4805  -15.8642 H         1 6XG         0.0252
     37 H8        -32.1254   -3.4754  -16.9530 H         1 6XG         0.0252
     38 H9        -31.4802   -4.1822  -15.4328 H         1 6XG         0.0252
     39 H10       -33.5966   -1.1960  -16.5179 H         1 6XG         0.1848
     40 H11       -33.4034    0.7018  -17.0961 H         1 6XG         0.0562
     41 H12       -34.8246    1.3088  -13.0791 H         1 6XG         0.0575
     42 H13       -35.4708    4.8646  -13.6506 H         1 6XG         0.2035
     43 H14       -38.0750    1.4688   -9.0646 H         1 6XG         0.0619
     44 H15       -37.5755    0.3878  -10.4095 H         1 6XG         0.0619
     45 H16       -39.4501    1.3511  -11.8264 H         1 6XG         0.0328
     46 H17       -40.3299    0.2520   -8.9626 H         1 6XG         0.0269
     47 H18       -41.4199    0.2989  -10.3897 H         1 6XG         0.0269
     48 H19       -41.1510    2.9040  -10.5095 H         1 6XG         0.0269
     49 H20       -40.0610    2.8571   -9.0824 H         1 6XG         0.0269
     50 H21       -36.3937    3.3756   -8.0287 H         1 6XG         0.0467
     51 H22       -38.0799    3.8297   -8.4494 H         1 6XG         0.0467
     52 H23       -36.5554    5.7060   -7.5028 H         1 6XG         0.0547
     53 H24       -37.4500    6.0661   -9.0183 H         1 6XG         0.0547
     54 H25       -35.9116    6.4206  -11.1950 H         1 6XG         0.0576
     55 H26       -34.3307    5.5730  -11.0995 H         1 6XG         0.0576
     56 H27       -32.2610    6.7015   -8.4724 H         1 6XG         0.0467
     57 H28       -33.1399    7.2021   -9.9569 H         1 6XG         0.0467
     58 H29       -32.6523    5.4873   -9.7369 H         1 6XG         0.0467
@<TRIPOS>BOND
     1    8    1 1  
     2    1   10 ar 
     3    1   12 ar 
     4    2    4 ar 
     5   10    2 ar 
     6    3    5 1  
     7    3    6 1  
     8    7    3 1  
     9    4   11 ar 
    10    7    8 am 
    11    8    9 2  
    12   11   12 ar 
    13   11   13 1  
    14   13   14 1  
    15   14   15 1  
    16   14   18 2  
    17   15   16 2  
    18   15   26 1  
    19   16   17 1  
    20   16   23 1  
    21   17   18 1  
    22   17   19 1  
    23   19   20 1  
    24   20   21 1  
    25   20   22 1  
    26   21   22 1  
    27   23   24 1  
    28   24   25 1  
    29   25   26 1  
    30   25   27 am 
    31   27   28 2  
    32   27   29 1  
    33    2   30 1  
    34    3   31 1  
    35    4   32 1  
    36    5   33 1  
    37    5   34 1  
    38    5   35 1  
    39    6   36 1  
    40    6   37 1  
    41    6   38 1  
    42    7   39 1  
    43   10   40 1  
    44   12   41 1  
    45   13   42 1  
    46   19   43 1  
    47   19   44 1  
    48   20   45 1  
    49   21   46 1  
    50   21   47 1  
    51   22   48 1  
    52   22   49 1  
    53   23   50 1  
    54   23   51 1  
    55   24   52 1  
    56   24   53 1  
    57   26   54 1  
    58   26   55 1  
    59   29   56 1  
    60   29   57 1  
    61   29   58 1  
@<TRIPOS>SUBSTRUCTURE
     1 6XG         1

