### 
### Created by X-TOOL on Mon Sep 10 21:13:26 2018
### 

@<TRIPOS>MOLECULE
5ktx_ligand
   56    60     1     0     0
SMALL
GAST_HUCK


@<TRIPOS>ATOM
      1 C7          2.9960   -1.9820    4.3780 C.2       1 6XH         0.0632
      2 C9          1.5610   -2.0750    2.6750 C.2       1 6XH         0.0967
      3 C2          6.4740   -2.0250    2.4460 C.2       1 6XH         0.1763
      4 C6          4.2430   -1.8260    5.1970 C.3       1 6XH         0.0234
      5 C1          6.6040   -2.4310    0.9950 C.3       1 6XH         0.0259
      6 C12         1.4070   -2.6440    6.2220 C.3       1 6XH         0.0977
      7 C14         0.3820   -1.6030    6.7460 C.3       1 6XH         0.0034
      8 C15        -0.8350   -2.4750    7.1560 C.3       1 6XH         0.0507
      9 C17         0.6580   -3.9860    6.2750 C.3       1 6XH         0.0782
     10 C19         0.1640   -3.1300    0.9650 C.ar      1 6XH         0.0862
     11 C20        -0.0340   -4.2980    1.7030 C.ar      1 6XH        -0.0454
     12 C21        -0.8080   -5.3360    1.1930 C.ar      1 6XH        -0.0754
     13 C22        -1.4180   -5.2330   -0.0620 C.ar      1 6XH        -0.0485
     14 C23        -1.2170   -4.0670   -0.7990 C.ar      1 6XH        -0.0380
     15 C24        -0.4420   -3.0370   -0.2840 C.ar      1 6XH         0.1487
     16 C26        -2.2440   -6.3450   -0.6370 C.2       1 6XH        -0.0081
     17 C27        -3.0270   -6.2830   -1.8090 C.2       1 6XH         0.0035
     18 C30        -2.3680   -7.6260   -0.1650 C.2       1 6XH         0.0593
     19 C31        -3.6220   -9.7110   -0.8900 C.3       1 6XH         0.0607
     20 C32         4.0770   -1.3730    2.1550 C.3       1 6XH         0.0495
     21 C5          5.3160   -1.1440    4.3660 C.3       1 6XH         0.0462
     22 C8          2.9020   -1.7990    3.0270 C.2       1 6XH         0.0129
     23 F25        -0.2580   -1.9160   -1.0070 F         1 6XH        -0.1924
     24 N10         0.9020   -2.3790    3.7690 N.2       1 6XH        -0.2323
     25 N11         1.7850   -2.3390    4.8400 N.pl3     1 6XH        -0.2221
     26 N18         0.9480   -2.0410    1.4140 N.pl3     1 6XH        -0.2803
     27 N28        -3.5930   -7.4510   -2.0060 N.2       1 6XH        -0.2152
     28 N29        -3.1920   -8.3140   -0.9950 N.pl3     1 6XH        -0.2082
     29 N4          5.3170   -1.5390    2.9480 N.am      1 6XH        -0.2685
     30 O16        -0.7350   -3.6370    6.3060 O.3       1 6XH        -0.3766
     31 O3          7.4130   -2.1540    3.2160 O.2       1 6XH        -0.3971
     32 H1          4.5998   -2.8173    5.5132 H         1 6XH         0.0467
     33 H2          4.0239   -1.2147    6.0849 H         1 6XH         0.0467
     34 H3          7.6245   -2.7956    0.8063 H         1 6XH         0.0467
     35 H4          6.4002   -1.5625    0.3515 H         1 6XH         0.0467
     36 H5          5.8820   -3.2302    0.7717 H         1 6XH         0.0467
     37 H6          2.3038   -2.6669    6.8585 H         1 6XH         0.0676
     38 H7          0.1067   -0.8889    5.9559 H         1 6XH         0.0318
     39 H8          0.7838   -1.0555    7.6114 H         1 6XH         0.0318
     40 H9         -1.7784   -1.9389    6.9757 H         1 6XH         0.0561
     41 H10        -0.7721   -2.7600    8.2166 H         1 6XH         0.0561
     42 H11         0.9354   -4.5475    7.1793 H         1 6XH         0.0590
     43 H12         0.8848   -4.5901    5.3842 H         1 6XH         0.0590
     44 H13         0.4194   -4.3975    2.6826 H         1 6XH         0.0507
     45 H14        -0.9405   -6.2392    1.7776 H         1 6XH         0.0516
     46 H15        -1.6682   -3.9641   -1.7793 H         1 6XH         0.0532
     47 H16        -3.1431   -5.4080   -2.4469 H         1 6XH         0.0666
     48 H17        -1.8861   -8.0246    0.7265 H         1 6XH         0.1004
     49 H18        -4.2914   -9.9526   -1.7288 H         1 6XH         0.0606
     50 H19        -4.1562   -9.8598    0.0600 H         1 6XH         0.0606
     51 H20        -2.7413  -10.3692   -0.9225 H         1 6XH         0.0606
     52 H21         3.9606   -0.3198    1.8597 H         1 6XH         0.0576
     53 H22         4.1221   -2.0035    1.2547 H         1 6XH         0.0576
     54 H23         6.2973   -1.3945    4.7954 H         1 6XH         0.0547
     55 H24         5.1579   -0.0569    4.4220 H         1 6XH         0.0547
     56 H25         1.0696   -1.2160    0.8094 H         1 6XH         0.2021
@<TRIPOS>BOND
     1    1    4 1  
     2   22    1 2  
     3    1   25 1  
     4   22    2 1  
     5    2   24 2  
     6    2   26 1  
     7    3    5 1  
     8   29    3 am 
     9    3   31 2  
    10    4   21 1  
    11    6    7 1  
    12    6    9 1  
    13   25    6 1  
    14    7    8 1  
    15   30    8 1  
    16    9   30 1  
    17   10   11 ar 
    18   10   15 ar 
    19   26   10 1  
    20   11   12 ar 
    21   12   13 ar 
    22   14   13 ar 
    23   13   16 1  
    24   15   14 ar 
    25   15   23 1  
    26   16   17 1  
    27   16   18 2  
    28   17   27 2  
    29   18   28 1  
    30   28   19 1  
    31   20   22 1  
    32   20   29 1  
    33   21   29 1  
    34   24   25 1  
    35   27   28 1  
    36    4   32 1  
    37    4   33 1  
    38    5   34 1  
    39    5   35 1  
    40    5   36 1  
    41    6   37 1  
    42    7   38 1  
    43    7   39 1  
    44    8   40 1  
    45    8   41 1  
    46    9   42 1  
    47    9   43 1  
    48   11   44 1  
    49   12   45 1  
    50   14   46 1  
    51   17   47 1  
    52   18   48 1  
    53   19   49 1  
    54   19   50 1  
    55   19   51 1  
    56   20   52 1  
    57   20   53 1  
    58   21   54 1  
    59   21   55 1  
    60   26   56 1  
@<TRIPOS>SUBSTRUCTURE
     1 6XH         1

