### 
### Created by X-TOOL on Mon Sep 10 21:13:26 2018
### 

@<TRIPOS>MOLECULE
5ku3_ligand
   56    60     1     0     0
SMALL
GAST_HUCK


@<TRIPOS>ATOM
      1 C7         -0.6650  -17.3930  -21.7470 C.2       1 6XH         0.0632
      2 C9         -0.3700  -15.2300  -22.0830 C.2       1 6XH         0.0967
      3 C2          2.0330  -18.1720  -19.0400 C.2       1 6XH         0.1763
      4 C6         -0.6570  -18.7710  -21.1490 C.3       1 6XH         0.0234
      5 C1          3.1550  -17.1840  -18.8170 C.3       1 6XH         0.0259
      6 C12        -1.8510  -17.8970  -23.9110 C.3       1 6XH         0.0977
      7 C14        -3.1700  -17.2900  -24.4240 C.3       1 6XH         0.0034
      8 C15        -3.2410  -17.8190  -25.8820 C.3       1 6XH         0.0507
      9 C17        -0.9870  -17.9760  -25.1780 C.3       1 6XH         0.0782
     10 C19        -0.3120  -12.8070  -22.6960 C.ar      1 6XH         0.0862
     11 C20        -1.1210  -12.8570  -23.8360 C.ar      1 6XH        -0.0454
     12 C21        -1.3890  -11.6970  -24.5590 C.ar      1 6XH        -0.0754
     13 C22        -0.8630  -10.4620  -24.1690 C.ar      1 6XH        -0.0485
     14 C23        -0.0630  -10.4090  -23.0270 C.ar      1 6XH        -0.0380
     15 C24         0.1920  -11.5700  -22.3210 C.ar      1 6XH         0.1487
     16 C26        -1.1620   -9.2120  -24.9270 C.2       1 6XH        -0.0081
     17 C27        -1.6690   -9.1370  -26.2360 C.2       1 6XH         0.0035
     18 C30        -1.0340   -7.9180  -24.4880 C.2       1 6XH         0.0593
     19 C31        -1.4290   -5.6190  -25.4230 C.3       1 6XH         0.0607
     20 C32         0.5560  -16.3060  -19.8210 C.3       1 6XH         0.0495
     21 C5         -0.2730  -18.6600  -19.6760 C.3       1 6XH         0.0462
     22 C8         -0.1290  -16.2860  -21.1780 C.2       1 6XH         0.0129
     23 F25         0.9650  -11.5160  -21.2140 F         1 6XH        -0.1924
     24 N10        -0.9980  -15.6750  -23.1510 N.2       1 6XH        -0.2323
     25 N11        -1.1940  -17.0350  -22.9420 N.pl3     1 6XH        -0.2221
     26 N18         0.0210  -13.9130  -21.8860 N.pl3     1 6XH        -0.2803
     27 N28        -1.8030   -7.8740  -26.5410 N.2       1 6XH        -0.2152
     28 N29        -1.4180   -7.0800  -25.4680 N.pl3     1 6XH        -0.2082
     29 N4          0.8360  -17.7200  -19.4960 N.am      1 6XH        -0.2685
     30 O16        -1.9300  -18.3570  -26.1810 O.3       1 6XH        -0.3766
     31 O3          2.2050  -19.3700  -18.8260 O.2       1 6XH        -0.3971
     32 H1          0.0754  -19.3997  -21.6765 H         1 6XH         0.0467
     33 H2         -1.6573  -19.2197  -21.2384 H         1 6XH         0.0467
     34 H3          4.0447  -17.7164  -18.4496 H         1 6XH         0.0467
     35 H4          2.8425  -16.4358  -18.0737 H         1 6XH         0.0467
     36 H5          3.3944  -16.6808  -19.7654 H         1 6XH         0.0467
     37 H6         -2.0192  -18.8916  -23.4723 H         1 6XH         0.0676
     38 H7         -3.1366  -16.1907  -24.4015 H         1 6XH         0.0318
     39 H8         -4.0267  -17.6430  -23.8313 H         1 6XH         0.0318
     40 H9         -3.4834  -16.9989  -26.5738 H         1 6XH         0.0561
     41 H10        -4.0044  -18.6066  -25.9651 H         1 6XH         0.0561
     42 H11        -0.1952  -18.7320  -25.0711 H         1 6XH         0.0590
     43 H12        -0.5340  -17.0009  -25.4101 H         1 6XH         0.0590
     44 H13        -1.5413  -13.8028  -24.1583 H         1 6XH         0.0507
     45 H14        -2.0172  -11.7530  -25.4406 H         1 6XH         0.0516
     46 H15         0.3551   -9.4652  -22.6961 H         1 6XH         0.0532
     47 H16        -1.9076   -9.9815  -26.8809 H         1 6XH         0.0666
     48 H17        -0.6784   -7.6175  -23.5035 H         1 6XH         0.1004
     49 H18        -1.7967   -5.2254  -26.3821 H         1 6XH         0.0606
     50 H19        -0.4086   -5.2500  -25.2423 H         1 6XH         0.0606
     51 H20        -2.0900   -5.2821  -24.6109 H         1 6XH         0.0606
     52 H21        -0.1044  -15.8674  -19.0585 H         1 6XH         0.0576
     53 H22         1.4956  -15.7357  -19.8643 H         1 6XH         0.0576
     54 H23         0.0308  -19.6507  -19.3070 H         1 6XH         0.0547
     55 H24        -1.1423  -18.3059  -19.1025 H         1 6XH         0.0547
     56 H25         0.6143  -13.7240  -21.0655 H         1 6XH         0.2021
@<TRIPOS>BOND
     1    1    4 1  
     2   22    1 2  
     3    1   25 1  
     4   22    2 1  
     5    2   24 2  
     6    2   26 1  
     7    3    5 1  
     8   29    3 am 
     9    3   31 2  
    10    4   21 1  
    11    6    7 1  
    12    6    9 1  
    13   25    6 1  
    14    7    8 1  
    15   30    8 1  
    16    9   30 1  
    17   10   11 ar 
    18   10   15 ar 
    19   26   10 1  
    20   11   12 ar 
    21   12   13 ar 
    22   14   13 ar 
    23   13   16 1  
    24   15   14 ar 
    25   15   23 1  
    26   16   17 1  
    27   16   18 2  
    28   17   27 2  
    29   18   28 1  
    30   28   19 1  
    31   20   22 1  
    32   20   29 1  
    33   21   29 1  
    34   24   25 1  
    35   27   28 1  
    36    4   32 1  
    37    4   33 1  
    38    5   34 1  
    39    5   35 1  
    40    5   36 1  
    41    6   37 1  
    42    7   38 1  
    43    7   39 1  
    44    8   40 1  
    45    8   41 1  
    46    9   42 1  
    47    9   43 1  
    48   11   44 1  
    49   12   45 1  
    50   14   46 1  
    51   17   47 1  
    52   18   48 1  
    53   19   49 1  
    54   19   50 1  
    55   19   51 1  
    56   20   52 1  
    57   20   53 1  
    58   21   54 1  
    59   21   55 1  
    60   26   56 1  
@<TRIPOS>SUBSTRUCTURE
     1 6XH         1

