### 
### Created by X-TOOL on Fri Nov  2 10:56:53 2018
### 

@<TRIPOS>MOLECULE
5ku6_ligand
   23    23     1     0     0
SMALL
GAST_HUCK


@<TRIPOS>ATOM
      1 N1         33.0390    8.4230   18.1770 N.am      1 MZM        -0.2493
      2 S1         33.2790    9.6110   19.2490 S.o2      1 MZM         0.1310
      3 O1         32.5000    9.3860   20.4190 O.2       1 MZM        -0.1365
      4 O2         32.9320   10.8930   18.7010 O.2       1 MZM        -0.1365
      5 C1         34.8930    9.5830   19.6210 C.2       1 MZM         0.3379
      6 S2         35.9970   10.8700   19.1610 S.3       1 MZM         0.1839
      7 C2         37.1820    9.8770   19.9700 C.2       1 MZM         0.3501
      8 N2         36.7490    8.7370   20.4970 N.2       1 MZM        -0.1996
      9 C5         37.4500    7.6680   21.2330 C.3       1 MZM         0.0349
     10 N3         35.3790    8.5160   20.3030 N.2       1 MZM        -0.1220
     11 N4         38.4970   10.2050   20.0710 N.am      1 MZM        -0.1240
     12 C3         38.9350   11.4300   20.3540 C.2       1 MZM         0.2781
     13 O3         38.3300   12.4440   20.0340 O.2       1 MZM        -0.3375
     14 C4         40.2470   11.4760   21.0840 C.3       1 MZM         0.0502
     15 H1         33.2403    7.4759   18.4269 H         1 MZM         0.1646
     16 H2         32.6894    8.6359   17.2646 H         1 MZM         0.1646
     17 H3         36.7329    6.8799   21.5061 H         1 MZM         0.0456
     18 H4         37.9007    8.0857   22.1453 H         1 MZM         0.0456
     19 H5         38.2391    7.2412   20.5965 H         1 MZM         0.0456
     20 H6         39.1748    9.4846   19.9243 H         1 MZM         0.3258
     21 H7         40.5252   12.5234   21.2725 H         1 MZM         0.0490
     22 H8         41.0241   10.9947   20.4722 H         1 MZM         0.0490
     23 H9         40.1525   10.9437   22.0420 H         1 MZM         0.0490
@<TRIPOS>BOND
     1    1    2 am 
     2    2    3 2  
     3    2    4 2  
     4    2    5 1  
     5    5    6 1  
     6    5   10 2  
     7    6    7 1  
     8    7    8 2  
     9    7   11 1  
    10    8    9 1  
    11    8   10 1  
    12   11   12 am 
    13   12   13 2  
    14   12   14 1  
    15    1   15 1  
    16    1   16 1  
    17    9   17 1  
    18    9   18 1  
    19    9   19 1  
    20   11   20 1  
    21   14   21 1  
    22   14   22 1  
    23   14   23 1  
@<TRIPOS>SUBSTRUCTURE
     1 MZM         1

