### 
### Created by X-TOOL on Mon Sep 10 21:13:32 2018
### 

@<TRIPOS>MOLECULE
5ku9_ligand
   82    85     1     0     0
SMALL
GAST_HUCK


@<TRIPOS>ATOM
      1 C1         -0.5440   -3.6070   22.4950 C.2       1 6XJ         0.1781
      2 C2         -1.3760   -3.9800   23.7000 C.3       1 6XJ         0.0620
      3 C3         -1.8950   -5.4220   23.6090 C.3       1 6XJ         0.0682
      4 C7         -2.1810   -9.9170   24.3680 C.ar      1 6XJ        -0.0541
      5 C8         -1.8500  -10.4870   23.1460 C.ar      1 6XJ         0.0469
      6 C9         -1.1260   -9.7560   22.2260 C.ar      1 6XJ         0.0477
      7 C10        -0.7160   -8.4650   22.5170 C.ar      1 6XJ        -0.0458
      8 C11        -4.2950   -5.2180   24.1690 C.2       1 6XJ         0.2046
      9 C12        -5.3950   -5.5110   25.1720 C.3       1 6XJ         0.1426
     10 C13        -5.6000   -7.7830   26.1710 C.ar      1 6XJ         0.0742
     11 C14        -5.4060   -8.4870   24.9800 C.ar      1 6XJ        -0.0472
     12 C15        -5.7770   -9.8220   24.9010 C.ar      1 6XJ        -0.0825
     13 C16        -6.3390  -10.4510   25.9870 C.ar      1 6XJ        -0.0840
     14 C19        -6.3740   -7.7520   28.6310 C.3       1 6XJ        -0.0188
     15 C20        -5.0510   -7.4020   29.3440 C.3       1 6XJ        -0.0042
     16 C21        -3.9330   -7.0340   28.3590 C.3       1 6XJ         0.1381
     17 C22        -4.4520   -5.9540   27.3560 C.2       1 6XJ         0.2322
     18 C24        -0.3950   -5.7980   29.0060 C.3       1 6XJ         0.0820
     19 C27         0.0140   -8.7590   29.2980 C.ar      1 6XJ        -0.0347
     20 C30        -2.2440  -10.3690   29.2430 C.ar      1 6XJ         0.0056
     21 C31        -1.8920   -9.7340   30.4210 C.ar      1 6XJ        -0.0590
     22 C32        -0.7670   -8.9230   30.4360 C.ar      1 6XJ        -0.0573
     23 BR         -3.8260  -11.4110   29.1830 Br        1 6XJ        -0.0561
     24 C29        -1.4870  -10.2290   28.0990 C.ar      1 6XJ        -0.0590
     25 C28        -0.3550   -9.4320   28.1370 C.ar      1 6XJ        -0.0573
     26 C26         1.1670   -7.7900   29.2900 C.3       1 6XJ         0.0275
     27 C25         0.8580   -6.5160   28.4880 C.3       1 6XJ         0.0025
     28 N4          2.0240   -5.6320   28.3960 N.4       1 6XJ         0.2239
     29 C23        -1.6290   -6.2530   28.2600 C.2       1 6XJ         0.1839
     30 O3         -1.6210   -6.3420   27.0390 O.2       1 6XJ        -0.3967
     31 N3         -2.6990   -6.5830   28.9960 N.am      1 6XJ        -0.2648
     32 C18        -6.1760   -8.4140   27.2850 C.ar      1 6XJ        -0.0205
     33 C17        -6.5410   -9.7550   27.1690 C.ar      1 6XJ        -0.0735
     34 O2         -4.2820   -4.7650   27.5390 O.2       1 6XJ        -0.3828
     35 N2         -5.1260   -6.4330   26.2680 N.am      1 6XJ        -0.2019
     36 O1         -4.5730   -4.6660   23.1090 O.2       1 6XJ        -0.3943
     37 N1         -3.0430   -5.5580   24.5100 N.am      1 6XJ        -0.2776
     38 O          -0.9370   -3.8230   21.3490 O.2       1 6XJ        -0.3970
     39 N           0.6130   -3.0150   22.7570 N.am      1 6XJ        -0.2900
     40 C           1.4740   -2.4860   21.7110 C.3       1 6XJ         0.0196
     41 C4         -0.7620   -6.4060   23.9650 C.3       1 6XJ         0.0063
     42 C5         -1.0810   -7.8630   23.7190 C.ar      1 6XJ        -0.0400
     43 CL         -0.8130  -10.4090   20.6500 Cl        1 6XJ        -0.0718
     44 CL1        -2.4040  -12.0850   22.7530 Cl        1 6XJ        -0.0764
     45 C6         -1.8010   -8.6100   24.6450 C.ar      1 6XJ        -0.0595
     46 H1         -2.2348   -3.2958   23.7656 H         1 6XJ         0.0527
     47 H2         -0.7579   -3.8803   24.6044 H         1 6XJ         0.0527
     48 H3         -2.2252   -5.6253   22.5796 H         1 6XJ         0.0604
     49 H4         -2.7341  -10.4900   25.1034 H         1 6XJ         0.0606
     50 H5         -0.1073   -7.9199   21.8047 H         1 6XJ         0.0562
     51 H6         -6.2450   -5.9214   24.6072 H         1 6XJ         0.0827
     52 H7         -5.6840   -4.5502   25.6230 H         1 6XJ         0.0827
     53 H8         -4.9674   -7.9924   24.1209 H         1 6XJ         0.0480
     54 H9         -5.6231  -10.3713   23.9792 H         1 6XJ         0.0520
     55 H10        -6.6250  -11.4944   25.9188 H         1 6XJ         0.0470
     56 H11        -6.9456   -6.8241   28.4821 H         1 6XJ         0.0399
     57 H12        -6.9464   -8.4360   29.2748 H         1 6XJ         0.0399
     58 H13        -4.7281   -8.2714   29.9355 H         1 6XJ         0.0331
     59 H14        -5.2265   -6.5474   30.0139 H         1 6XJ         0.0331
     60 H15        -3.6897   -7.9415   27.7870 H         1 6XJ         0.0806
     61 H16        -0.2709   -4.7138   28.8681 H         1 6XJ         0.0561
     62 H17        -0.5198   -6.0196   30.0762 H         1 6XJ         0.0561
     63 H18        -2.4860   -9.8683   31.3177 H         1 6XJ         0.0626
     64 H19        -0.4924   -8.4088   31.3499 H         1 6XJ         0.0564
     65 H20        -1.7735  -10.7349   27.1841 H         1 6XJ         0.0626
     66 H21         0.2546   -9.3305   27.2464 H         1 6XJ         0.0564
     67 H22         2.0413   -8.2853   28.8426 H         1 6XJ         0.0489
     68 H23         1.3972   -7.5067   30.3276 H         1 6XJ         0.0489
     69 H24         0.6296   -6.8383   27.4614 H         1 6XJ         0.0900
     70 H25         1.7817   -4.8106   27.8644 H         1 6XJ         0.2000
     71 H26         2.7789   -6.1181   27.9379 H         1 6XJ         0.2000
     72 H27         2.3130   -5.3595   29.3224 H         1 6XJ         0.2000
     73 H28        -2.6519   -6.5197   29.9929 H         1 6XJ         0.1883
     74 H29        -6.9896  -10.2611   28.0162 H         1 6XJ         0.0513
     75 H30        -2.8846   -5.9235   25.4272 H         1 6XJ         0.1858
     76 H31         0.9047   -2.9290   23.7097 H         1 6XJ         0.1847
     77 H32         2.3731   -2.0438   22.1649 H         1 6XJ         0.0484
     78 H33         0.9317   -1.7143   21.1450 H         1 6XJ         0.0484
     79 H34         1.7685   -3.2998   21.0320 H         1 6XJ         0.0484
     80 H35        -0.5266   -6.2837   25.0325 H         1 6XJ         0.0451
     81 H36         0.1201   -6.1433   23.3625 H         1 6XJ         0.0451
     82 H37        -2.0696   -8.1659   25.5967 H         1 6XJ         0.0559
@<TRIPOS>BOND
     1    2    1 1  
     2    1   38 2  
     3    1   39 am 
     4    3    2 1  
     5    3   37 1  
     6   41    3 1  
     7    5    4 ar 
     8    4   45 ar 
     9    6    5 ar 
    10    5   44 1  
    11    7    6 ar 
    12    6   43 1  
    13   42    7 ar 
    14    8    9 1  
    15    8   36 2  
    16   37    8 am 
    17    9   35 1  
    18   10   11 ar 
    19   10   32 ar 
    20   35   10 1  
    21   11   12 ar 
    22   12   13 ar 
    23   33   13 ar 
    24   15   14 1  
    25   32   14 1  
    26   16   15 1  
    27   17   16 1  
    28   16   31 1  
    29   17   34 2  
    30   35   17 am 
    31   18   27 1  
    32   29   18 1  
    33   19   22 ar 
    34   19   25 ar 
    35   26   19 1  
    36   21   20 ar 
    37   20   23 1  
    38   24   20 ar 
    39   22   21 ar 
    40   25   24 ar 
    41   27   26 1  
    42   27   28 1  
    43   29   30 2  
    44   31   29 am 
    45   32   33 ar 
    46   39   40 1  
    47   41   42 1  
    48   42   45 ar 
    49    2   46 1  
    50    2   47 1  
    51    3   48 1  
    52    4   49 1  
    53    7   50 1  
    54    9   51 1  
    55    9   52 1  
    56   11   53 1  
    57   12   54 1  
    58   13   55 1  
    59   14   56 1  
    60   14   57 1  
    61   15   58 1  
    62   15   59 1  
    63   16   60 1  
    64   18   61 1  
    65   18   62 1  
    66   21   63 1  
    67   22   64 1  
    68   24   65 1  
    69   25   66 1  
    70   26   67 1  
    71   26   68 1  
    72   27   69 1  
    73   28   70 1  
    74   28   71 1  
    75   28   72 1  
    76   31   73 1  
    77   33   74 1  
    78   37   75 1  
    79   39   76 1  
    80   40   77 1  
    81   40   78 1  
    82   40   79 1  
    83   41   80 1  
    84   41   81 1  
    85   45   82 1  
@<TRIPOS>SUBSTRUCTURE
     1 6XJ         1

