### 
### Created by X-TOOL on Mon Sep 10 21:13:26 2018
### 

@<TRIPOS>MOLECULE
5kup_ligand
   67    71     1     0     0
SMALL
GAST_HUCK


@<TRIPOS>ATOM
      1 C4        -42.0910   27.1580    0.8550 C.3       1 6XL        -0.0827
      2 C14       -41.2430   28.6230   -2.9540 C.ar      1 6XL         0.1759
      3 C5        -41.7680   26.7250   -1.5770 C.ar      1 6XL        -0.0480
      4 C6        -41.7980   25.9300   -2.7010 C.ar      1 6XL        -0.0318
      5 C11       -40.9850   28.3310   -5.4650 C.2       1 6XL         0.2882
      6 C7        -41.5560   26.4690   -3.9710 C.ar      1 6XL         0.0333
      7 C8        -41.5630   25.6080   -5.1400 C.2       1 6XL         0.0523
      8 C13       -41.2970   27.8440   -4.1150 C.ar      1 6XL         0.1270
      9 C3        -43.3800   25.3360   -0.2460 C.3       1 6XL        -0.0827
     10 C1        -40.9210   25.0910    0.0710 C.3       1 6XL        -0.0827
     11 C2        -42.0450   26.0900   -0.2340 C.3       1 6XL        -0.0441
     12 N9        -41.2420   26.0800   -6.2940 N.2       1 6XL        -0.1482
     13 N10       -40.9300   27.4240   -6.4660 N.am      1 6XL        -0.0792
     14 O12       -40.7150   29.5210   -5.6690 O.2       1 6XL        -0.3699
     15 C15       -41.4970   28.0830   -1.7020 C.ar      1 6XL        -0.0061
     16 F16       -40.9570   29.9380   -3.0410 F         1 6XL        -0.1721
     17 C17       -40.5600   27.7890   -7.7620 C.ar      1 6XL         0.1916
     18 C18       -39.1930   27.7880   -8.0390 C.ar      1 6XL         0.0458
     19 C19       -38.7660   28.1380   -9.3280 C.ar      1 6XL        -0.0155
     20 C20       -39.7720   28.4810  -10.2420 C.ar      1 6XL        -0.0526
     21 C21       -41.1090   28.4500   -9.8770 C.ar      1 6XL        -0.0157
     22 N22       -41.4680   28.1000   -8.6580 N.ar      1 6XL        -0.2892
     23 C23       -37.3420   28.2170   -9.7770 C.2       1 6XL        -0.0208
     24 C24       -36.9110   27.7000  -11.0210 C.2       1 6XL        -0.0341
     25 C25       -35.5880   27.8500  -11.3980 C.3       1 6XL         0.1536
     26 C26       -34.6730   28.5100  -10.5500 C.2       1 6XL         0.2165
     27 O27       -33.4990   28.6430  -10.8900 O.2       1 6XL        -0.3909
     28 N28       -35.1020   28.9850   -9.3780 N.am      1 6XL        -0.2645
     29 C29       -36.4010   28.8550   -9.0040 C.3       1 6XL         0.0595
     30 C30       -34.1300   29.6430   -8.4950 C.3       1 6XL         0.0245
     31 N31       -35.0190   27.3710  -12.5970 N.pl3     1 6XL        -0.2696
     32 C32       -35.6830   26.9560  -13.7350 C.ar      1 6XL         0.1337
     33 C33       -34.9110   26.6490  -14.8530 C.ar      1 6XL         0.0083
     34 C34       -35.5630   26.2280  -15.9910 C.ar      1 6XL         0.0141
     35 N35       -36.8910   26.1470  -15.9910 N.ar      1 6XL        -0.2826
     36 C36       -37.5890   26.4490  -14.9180 C.ar      1 6XL         0.0725
     37 N37       -37.0030   26.8410  -13.8020 N.ar      1 6XL        -0.2505
     38 C38       -38.2150   27.3310   -6.9830 C.3       1 6XL         0.0821
     39 O39       -37.7850   28.3510   -6.0980 O.3       1 6XL        -0.3830
     40 H1        -42.2931   26.6828    1.8263 H         1 6XL         0.0141
     41 H2        -42.8889   27.8801    0.6270 H         1 6XL         0.0141
     42 H3        -41.1242   27.6809    0.8968 H         1 6XL         0.0141
     43 H4        -42.0119   24.8720   -2.6015 H         1 6XL         0.0840
     44 H5        -41.8406   24.5597   -5.0404 H         1 6XL         0.0785
     45 H6        -43.3575   24.5630   -1.0283 H         1 6XL         0.0141
     46 H7        -44.1981   26.0420   -0.4517 H         1 6XL         0.0141
     47 H8        -43.5422   24.8620    0.7333 H         1 6XL         0.0141
     48 H9        -39.9555   25.6179    0.0830 H         1 6XL         0.0141
     49 H10       -40.9034   24.3109   -0.7043 H         1 6XL         0.0141
     50 H11       -41.0983   24.6281    1.0530 H         1 6XL         0.0141
     51 H12       -41.4843   28.7179   -0.8234 H         1 6XL         0.0792
     52 H13       -39.5003   28.7749  -11.2494 H         1 6XL         0.0554
     53 H14       -41.8685   28.7169  -10.6030 H         1 6XL         0.0707
     54 H15       -37.6142   27.1883  -11.6764 H         1 6XL         0.0606
     55 H16       -35.8538   28.7956  -11.8932 H         1 6XL         0.0960
     56 H17       -36.3875   28.3224   -8.0417 H         1 6XL         0.0645
     57 H18       -36.7764   29.8777   -8.8519 H         1 6XL         0.0645
     58 H19       -33.1411   29.6470   -8.9767 H         1 6XL         0.0488
     59 H20       -34.0715   29.0965   -7.5422 H         1 6XL         0.0488
     60 H21       -34.4494   30.6783   -8.3049 H         1 6XL         0.0488
     61 H22       -33.9904   27.3256  -12.6272 H         1 6XL         0.1905
     62 H23       -33.8310   26.7386  -14.8283 H         1 6XL         0.0678
     63 H24       -34.9991   25.9650  -16.8787 H         1 6XL         0.0885
     64 H25       -38.6699   26.3743  -14.9508 H         1 6XL         0.1084
     65 H26       -37.3293   26.9204   -7.4899 H         1 6XL         0.0716
     66 H27       -38.6963   26.5408   -6.3881 H         1 6XL         0.0716
     67 H28       -37.1754   27.9855   -5.4676 H         1 6XL         0.2126
@<TRIPOS>BOND
     1   11    1 1  
     2    2    8 ar 
     3   15    2 ar 
     4    2   16 1  
     5    3    4 ar 
     6    3   11 1  
     7    3   15 ar 
     8    4    6 ar 
     9    8    5 1  
    10    5   13 am 
    11    5   14 2  
    12    6    7 1  
    13    6    8 ar 
    14    7   12 2  
    15   11    9 1  
    16   11   10 1  
    17   12   13 1  
    18   13   17 1  
    19   17   18 ar 
    20   17   22 ar 
    21   18   19 ar 
    22   18   38 1  
    23   19   20 ar 
    24   19   23 1  
    25   20   21 ar 
    26   21   22 ar 
    27   23   24 2  
    28   23   29 1  
    29   24   25 1  
    30   25   26 1  
    31   25   31 1  
    32   26   27 2  
    33   26   28 am 
    34   28   29 1  
    35   28   30 1  
    36   31   32 1  
    37   32   33 ar 
    38   32   37 ar 
    39   33   34 ar 
    40   34   35 ar 
    41   35   36 ar 
    42   36   37 ar 
    43   38   39 1  
    44    1   40 1  
    45    1   41 1  
    46    1   42 1  
    47    4   43 1  
    48    7   44 1  
    49    9   45 1  
    50    9   46 1  
    51    9   47 1  
    52   10   48 1  
    53   10   49 1  
    54   10   50 1  
    55   15   51 1  
    56   20   52 1  
    57   21   53 1  
    58   24   54 1  
    59   25   55 1  
    60   29   56 1  
    61   29   57 1  
    62   30   58 1  
    63   30   59 1  
    64   30   60 1  
    65   31   61 1  
    66   33   62 1  
    67   34   63 1  
    68   36   64 1  
    69   38   65 1  
    70   38   66 1  
    71   39   67 1  
@<TRIPOS>SUBSTRUCTURE
     1 6XL         1

