### 
### Created by X-TOOL on Mon Sep 10 21:13:26 2018
### 

@<TRIPOS>MOLECULE
5kva_ligand
   50    52     1     0     0
SMALL
GAST_HUCK


@<TRIPOS>ATOM
      1 N          42.4230   40.3640  -12.1460 N.4       1 SAM         0.2328
      2 CA         42.5920   40.8400  -13.5210 C.3       1 SAM         0.0327
      3 C          42.2400   42.3050  -13.7080 C.2       1 SAM         0.0846
      4 O          41.8090   43.0050  -12.7850 O.co2     1 SAM        -0.5643
      5 OXT        42.3900   42.8270  -14.8140 O.co2     1 SAM        -0.5643
      6 CB         41.7810   40.0210  -14.5230 C.3       1 SAM         0.0473
      7 CG         42.3460   38.6300  -14.7940 C.3       1 SAM         0.1163
      8 SD         41.6360   37.9600  -16.3170 S.3       1 SAM        -0.0103
      9 CE         39.9090   37.7850  -15.8100 C.3       1 SAM         0.0995
     10 C5'        42.1700   36.2210  -16.3040 C.3       1 SAM         0.1381
     11 C4'        43.6810   36.0830  -16.4210 C.3       1 SAM         0.1350
     12 O4'        44.1010   34.7910  -16.0110 O.3       1 SAM        -0.3344
     13 C3'        44.1630   36.2460  -17.8600 C.3       1 SAM         0.1168
     14 O3'        45.0360   37.3560  -17.9080 O.3       1 SAM        -0.3863
     15 C2'        44.8830   34.9470  -18.2040 C.3       1 SAM         0.1386
     16 O2'        46.0940   35.1560  -18.8960 O.3       1 SAM        -0.3836
     17 C1'        45.1690   34.3750  -16.8290 C.3       1 SAM         0.2011
     18 N9         45.2400   32.9090  -16.7580 N.pl3     1 SAM        -0.1919
     19 C8         44.4590   31.9650  -17.3730 C.2       1 SAM         0.1123
     20 N7         44.9010   30.7430  -16.9750 N.2       1 SAM        -0.2958
     21 C5         45.9330   30.9110  -16.1170 C.ar      1 SAM         0.1045
     22 C6         46.7430   30.0370  -15.4180 C.ar      1 SAM         0.1298
     23 N6         46.5810   28.7170  -15.5160 N.pl3     1 SAM        -0.3152
     24 N1         47.7350   30.5410  -14.6030 N.ar      1 SAM        -0.2698
     25 C2         47.9350   31.9020  -14.4860 C.ar      1 SAM         0.0533
     26 N3         47.1240   32.7730  -15.1840 N.ar      1 SAM        -0.2714
     27 C4         46.1470   32.2770  -15.9770 C.ar      1 SAM         0.1613
     28 H1         42.6731   39.3889  -12.0949 H         1 SAM         0.2010
     29 H2         41.4615   40.4793  -11.8663 H         1 SAM         0.2010
     30 H3         43.0181   40.8962  -11.5306 H         1 SAM         0.2010
     31 H4         43.6566   40.7197  -13.7703 H         1 SAM         0.1026
     32 H5         41.7495   40.5722  -15.4744 H         1 SAM         0.0385
     33 H6         40.7596   39.9083  -14.1305 H         1 SAM         0.0385
     34 H7         42.0975   37.9657  -13.9532 H         1 SAM         0.0843
     35 H8         43.4390   38.6949  -14.8994 H         1 SAM         0.0843
     36 H9         39.3211   37.3772  -16.6455 H         1 SAM         0.0803
     37 H10        39.5086   38.7694  -15.5261 H         1 SAM         0.0803
     38 H11        39.8467   37.1019  -14.9501 H         1 SAM         0.0803
     39 H12        41.7000   35.6997  -17.1510 H         1 SAM         0.0867
     40 H13        41.8439   35.7573  -15.3614 H         1 SAM         0.0867
     41 H14        44.1533   36.8473  -15.7864 H         1 SAM         0.0671
     42 H15        43.3169   36.4065  -18.5444 H         1 SAM         0.0649
     43 H16        45.3475   37.4742  -18.7976 H         1 SAM         0.2100
     44 H17        44.2349   34.2817  -18.7933 H         1 SAM         0.0676
     45 H18        46.6786   35.6775  -18.3586 H         1 SAM         0.2101
     46 H19        46.1194   34.7893  -16.4615 H         1 SAM         0.0996
     47 H20        43.6339   32.1591  -18.0566 H         1 SAM         0.1349
     48 H21        47.1954   28.0820  -14.9866 H         1 SAM         0.1820
     49 H22        45.8415   28.3324  -16.1211 H         1 SAM         0.1820
     50 H23        48.7247   32.2841  -13.8493 H         1 SAM         0.0996
@<TRIPOS>BOND
     1    1    2 1  
     2    2    3 1  
     3    2    6 1  
     4    3    4 ar 
     5    3    5 ar 
     6    6    7 1  
     7    7    8 1  
     8    8    9 1  
     9    8   10 1  
    10   10   11 1  
    11   11   12 1  
    12   11   13 1  
    13   12   17 1  
    14   13   14 1  
    15   13   15 1  
    16   15   16 1  
    17   15   17 1  
    18   17   18 1  
    19   18   19 1  
    20   18   27 1  
    21   19   20 2  
    22   20   21 1  
    23   21   22 ar 
    24   21   27 ar 
    25   22   23 1  
    26   22   24 ar 
    27   24   25 ar 
    28   25   26 ar 
    29   26   27 ar 
    30    1   28 1  
    31    1   29 1  
    32    1   30 1  
    33    2   31 1  
    34    6   32 1  
    35    6   33 1  
    36    7   34 1  
    37    7   35 1  
    38    9   36 1  
    39    9   37 1  
    40    9   38 1  
    41   10   39 1  
    42   10   40 1  
    43   11   41 1  
    44   13   42 1  
    45   14   43 1  
    46   15   44 1  
    47   16   45 1  
    48   17   46 1  
    49   19   47 1  
    50   23   48 1  
    51   23   49 1  
    52   25   50 1  
@<TRIPOS>SUBSTRUCTURE
     1 SAM         1

