### 
### Created by X-TOOL on Wed Jan  1 15:39:38 2020
### 

@<TRIPOS>MOLECULE
5kw2_ligand
   90    95     1     0     0
SMALL
GAST_HUCK


@<TRIPOS>ATOM
      1 O1         22.9500   30.6620   20.3940 O.co2     1 6XQ        -0.5688
      2 C7         20.1870   31.8650   24.0140 C.ar      1 6XQ        -0.0522
      3 O2         23.9740   30.8720   22.3560 O.co2     1 6XQ        -0.5688
      4 C6         22.9610   30.7230   21.7020 C.2       1 6XQ         0.0369
      5 C1         21.5210   33.6400   20.8650 C.3       1 6XQ        -0.0478
      6 N1         19.1890   31.3370   32.5790 N.pl3     1 6XQ        -0.3061
      7 C5         21.5920   30.6100   22.3180 C.3       1 6XQ         0.0117
      8 C4         21.1290   31.9810   22.8310 C.3       1 6XQ         0.0011
      9 C3         20.5580   32.8090   21.6570 C.3       1 6XQ        -0.0282
     10 C2         20.5550   34.3010   21.7920 C.3       1 6XQ        -0.0478
     11 O3         16.1730   32.5890   33.8180 O.2       1 6XQ        -0.3830
     12 C24        17.2850   33.0650   33.9360 C.2       1 6XQ         0.2233
     13 N2         17.5780   34.3180   33.4790 N.am      1 6XQ        -0.2080
     14 C31        16.9040   35.4760   34.0830 C.3       1 6XQ         0.0626
     15 C32        16.0120   36.3120   33.1410 C.3       1 6XQ        -0.0118
     16 C35        14.9050   36.9640   33.9620 C.3       1 6XQ        -0.0577
     17 C34        16.8560   37.4000   32.4840 C.3       1 6XQ        -0.0577
     18 C33        15.3740   35.4510   32.0510 C.3       1 6XQ        -0.0577
     19 C25        18.7890   34.5230   32.7790 C.ar      1 6XQ         0.1316
     20 N3         18.6190   34.5900   31.4500 N.ar      1 6XQ        -0.2865
     21 C29        19.7110   34.7920   30.6870 C.ar      1 6XQ         0.0068
     22 C30        19.4910   34.8600   29.2050 C.3       1 6XQ        -0.0198
     23 C28        20.9860   34.9240   31.2450 C.ar      1 6XQ        -0.0499
     24 C27        21.1330   34.8530   32.6190 C.ar      1 6XQ        -0.0636
     25 C26        20.0220   34.6550   33.4190 C.ar      1 6XQ        -0.0210
     26 C23        18.3630   32.2890   34.6410 C.ar      1 6XQ         0.0632
     27 C22        18.4410   32.4230   36.0240 C.ar      1 6XQ        -0.0604
     28 C21        19.4060   31.7510   36.7490 C.ar      1 6XQ        -0.0397
     29 C20        20.3110   30.9340   36.0970 C.ar      1 6XQ         0.0847
     30 O4         21.1840   30.3540   36.9790 O.3       1 6XQ        -0.3211
     31 C36        22.1840   29.4810   36.4690 C.3       1 6XQ         0.0603
     32 C19        20.2650   30.7740   34.7180 C.ar      1 6XQ        -0.0102
     33 C18        19.2850   31.4480   33.9880 C.ar      1 6XQ         0.0534
     34 C17        18.0690   30.5810   32.0180 C.3       1 6XQ         0.0305
     35 C16        17.8440   30.9500   30.5530 C.3       1 6XQ        -0.0159
     36 C37        20.4250   31.0380   31.8590 C.3       1 6XQ         0.0305
     37 C38        20.3070   31.4170   30.3890 C.3       1 6XQ        -0.0159
     38 C15        19.1190   30.6970   29.7390 C.3       1 6XQ         0.0304
     39 C14        18.9490   31.0500   28.3140 C.2       1 6XQ         0.1036
     40 O5         20.1350   31.0120   27.5970 O.3       1 6XQ        -0.2536
     41 C9         19.8120   31.3830   26.3110 C.ar      1 6XQ         0.1135
     42 C8         20.6930   31.4770   25.2550 C.ar      1 6XQ        -0.0336
     43 C13        17.9230   31.4300   27.5390 C.2       1 6XQ        -0.0541
     44 C10        18.4560   31.6510   26.2180 C.ar      1 6XQ        -0.0279
     45 C11        17.9640   32.0400   24.9730 C.ar      1 6XQ        -0.0808
     46 C12        18.8210   32.1440   23.8890 C.ar      1 6XQ        -0.0767
     47 H1         21.3950   33.7402   19.7769 H         1 6XQ         0.0270
     48 H2         22.5932   33.6220   21.1098 H         1 6XQ         0.0270
     49 H3         21.6285   29.9007   23.1580 H         1 6XQ         0.0454
     50 H4         20.8815   30.2459   21.5613 H         1 6XQ         0.0454
     51 H5         22.0212   32.5121   23.1942 H         1 6XQ         0.0464
     52 H6         19.7258   32.2794   21.1703 H         1 6XQ         0.0325
     53 H7         19.7177   34.8879   21.3864 H         1 6XQ         0.0270
     54 H8         20.9160   34.7697   22.7194 H         1 6XQ         0.0270
     55 H9         17.6797   36.1417   34.4893 H         1 6XQ         0.0598
     56 H10        16.2716   35.1061   34.9035 H         1 6XQ         0.0598
     57 H11        14.2622   37.5631   33.3003 H         1 6XQ         0.0236
     58 H12        15.3515   37.6155   34.7276 H         1 6XQ         0.0236
     59 H13        14.3026   36.1838   34.4503 H         1 6XQ         0.0236
     60 H14        17.6565   36.9346   31.8902 H         1 6XQ         0.0236
     61 H15        17.3003   38.0389   33.2614 H         1 6XQ         0.0236
     62 H16        16.2198   38.0108   31.8267 H         1 6XQ         0.0236
     63 H17        14.7632   34.6634   32.5165 H         1 6XQ         0.0236
     64 H18        16.1632   34.9895   31.4393 H         1 6XQ         0.0236
     65 H19        14.7364   36.0804   31.4128 H         1 6XQ         0.0236
     66 H20        20.4532   35.0270   28.6988 H         1 6XQ         0.0417
     67 H21        18.8063   35.6892   28.9736 H         1 6XQ         0.0417
     68 H22        19.0523   33.9137   28.8556 H         1 6XQ         0.0417
     69 H23        21.8495   35.0802   30.6086 H         1 6XQ         0.0515
     70 H24        22.1152   34.9522   33.0669 H         1 6XQ         0.0671
     71 H25        20.1057   34.6045   34.4986 H         1 6XQ         0.0536
     72 H26        17.7347   33.0636   36.5396 H         1 6XQ         0.0611
     73 H27        19.4535   31.8639   37.8261 H         1 6XQ         0.0454
     74 H28        22.7979   29.1020   37.2993 H         1 6XQ         0.0580
     75 H29        22.8230   30.0292   35.7611 H         1 6XQ         0.0580
     76 H30        21.7047   28.6365   35.9522 H         1 6XQ         0.0580
     77 H31        20.9810   30.1339   34.2154 H         1 6XQ         0.0447
     78 H32        17.1578   30.8081   32.5909 H         1 6XQ         0.0519
     79 H33        18.2884   29.5055   32.0892 H         1 6XQ         0.0519
     80 H34        17.5746   32.0142   30.4840 H         1 6XQ         0.0314
     81 H35        17.0260   30.3375   30.1459 H         1 6XQ         0.0314
     82 H36        20.6348   29.9610   31.9368 H         1 6XQ         0.0519
     83 H37        21.2511   31.6062   32.3115 H         1 6XQ         0.0519
     84 H38        21.2321   31.1317   29.8668 H         1 6XQ         0.0314
     85 H39        20.1598   32.5040   30.3067 H         1 6XQ         0.0314
     86 H40        19.3276   29.6177   29.7790 H         1 6XQ         0.0518
     87 H41        21.7463   31.2563   25.3847 H         1 6XQ         0.0482
     88 H42        16.8856   31.5489   27.8483 H         1 6XQ         0.0202
     89 H43        16.9097   32.2614   24.8527 H         1 6XQ         0.0507
     90 H44        18.4261   32.4471   22.9261 H         1 6XQ         0.0472
@<TRIPOS>BOND
     1    4    1 ar 
     2    2    8 1  
     3   42    2 ar 
     4    2   46 ar 
     5    4    3 ar 
     6    7    4 1  
     7    9    5 1  
     8   10    5 1  
     9    6   33 1  
    10   34    6 1  
    11   36    6 1  
    12    8    7 1  
    13    8    9 1  
    14    9   10 1  
    15   12   11 2  
    16   12   13 am 
    17   26   12 1  
    18   13   14 1  
    19   13   19 1  
    20   14   15 1  
    21   15   16 1  
    22   15   17 1  
    23   15   18 1  
    24   19   20 ar 
    25   19   25 ar 
    26   20   21 ar 
    27   21   22 1  
    28   21   23 ar 
    29   24   23 ar 
    30   25   24 ar 
    31   26   27 ar 
    32   33   26 ar 
    33   27   28 ar 
    34   29   28 ar 
    35   29   30 1  
    36   32   29 ar 
    37   30   31 1  
    38   33   32 ar 
    39   35   34 1  
    40   38   35 1  
    41   37   36 1  
    42   38   37 1  
    43   39   38 1  
    44   40   39 1  
    45   39   43 2  
    46   41   40 1  
    47   41   42 ar 
    48   41   44 ar 
    49   43   44 1  
    50   44   45 ar 
    51   45   46 ar 
    52    5   47 1  
    53    5   48 1  
    54    7   49 1  
    55    7   50 1  
    56    8   51 1  
    57    9   52 1  
    58   10   53 1  
    59   10   54 1  
    60   14   55 1  
    61   14   56 1  
    62   16   57 1  
    63   16   58 1  
    64   16   59 1  
    65   17   60 1  
    66   17   61 1  
    67   17   62 1  
    68   18   63 1  
    69   18   64 1  
    70   18   65 1  
    71   22   66 1  
    72   22   67 1  
    73   22   68 1  
    74   23   69 1  
    75   24   70 1  
    76   25   71 1  
    77   27   72 1  
    78   28   73 1  
    79   31   74 1  
    80   31   75 1  
    81   31   76 1  
    82   32   77 1  
    83   34   78 1  
    84   34   79 1  
    85   35   80 1  
    86   35   81 1  
    87   36   82 1  
    88   36   83 1  
    89   37   84 1  
    90   37   85 1  
    91   38   86 1  
    92   42   87 1  
    93   43   88 1  
    94   45   89 1  
    95   46   90 1  
@<TRIPOS>SUBSTRUCTURE
     1 6XQ         1

