### 
### Created by X-TOOL on Mon Sep 10 21:13:33 2018
### 

@<TRIPOS>MOLECULE
5kww_ligand
   53    56     1     0     0
SMALL
GAST_HUCK


@<TRIPOS>ATOM
      1 C10        22.1000   16.7480   22.5150 C.ar      1 6YA        -0.0464
      2 C13        19.2010   15.7300   19.2770 C.3       1 6YA         0.0679
      3 C17        18.2830   13.8130   17.2880 C.3       1 6YA         0.0544
      4 C20        19.0140   20.0340   18.3100 C.2       1 6YA         0.3209
      5 C24        20.9540   21.2520   18.5880 C.ar      1 6YA         0.1238
      6 C28        21.9260   21.3920   16.3330 C.ar      1 6YA        -0.0263
      7 C01        21.6290   20.3710   22.2550 C.2       1 6YA        -0.0639
      8 C02        20.5710   19.9360   21.4390 C.2       1 6YA         0.0723
      9 N03        20.6020   18.5610   21.4040 N.pl3     1 6YA        -0.2567
     10 C04        21.6570   18.0780   22.2060 C.ar      1 6YA         0.0618
     11 C05        22.3310   19.1800   22.7600 C.ar      1 6YA        -0.0373
     12 C06        23.4590   18.9820   23.6200 C.ar      1 6YA        -0.0662
     13 C07        23.8990   17.6540   23.9160 C.ar      1 6YA         0.0190
     14 CL8        25.2650   17.3810   24.9570 Cl        1 6YA        -0.0829
     15 C09        23.2200   16.5540   23.3630 C.ar      1 6YA        -0.0658
     16 C11        19.6320   17.7470   20.6560 C.3       1 6YA         0.0537
     17 C12        20.2360   16.8360   19.5740 C.3       1 6YA        -0.0072
     18 S14        19.5760   14.8940   17.7250 S.o2      1 6YA        -0.0337
     19 O15        20.8370   14.1870   17.8050 O.2       1 6YA        -0.1746
     20 O16        19.8480   15.8150   16.6910 O.2       1 6YA        -0.1746
     21 C18        19.5720   20.8350   20.6980 C.3       1 6YA         0.1146
     22 N19        19.8260   20.7150   19.2630 N.am      1 6YA        -0.1829
     23 O21        17.9530   19.4440   18.5450 O.2       1 6YA        -0.3921
     24 N22        19.6330   20.1620   17.0470 N.am      1 6YA        -0.1878
     25 C23        20.8410   20.9150   17.2260 C.ar      1 6YA         0.1151
     26 C25        22.0640   22.0070   19.0430 C.ar      1 6YA         0.0150
     27 N26        23.0320   22.4190   18.1670 N.ar      1 6YA        -0.3353
     28 C27        22.9800   22.1280   16.8530 C.ar      1 6YA        -0.0220
     29 C29        19.1420   19.6060   15.8090 C.3       1 6YA         0.1529
     30 C30        17.9410   20.3810   15.2360 C.3       1 6YA         0.4153
     31 F31        17.0290   20.7050   16.2300 F         1 6YA        -0.1679
     32 F32        17.3400   19.6020   14.3350 F         1 6YA        -0.1679
     33 F33        18.3650   21.5030   14.6460 F         1 6YA        -0.1679
     34 H1         21.5788   15.8926   22.1005 H         1 6YA         0.0534
     35 H2         18.2006   16.1824   19.2092 H         1 6YA         0.0500
     36 H3         19.2162   14.9943   20.0946 H         1 6YA         0.0500
     37 H4         18.5285   13.3122   16.3399 H         1 6YA         0.0464
     38 H5         17.3509   14.3850   17.1699 H         1 6YA         0.0464
     39 H6         18.1528   13.0588   18.0780 H         1 6YA         0.0464
     40 H7         21.8946   21.1650   15.2735 H         1 6YA         0.0547
     41 H8         21.8845   21.4065   22.4749 H         1 6YA         0.0167
     42 H9         23.9767   19.8346   24.0444 H         1 6YA         0.0513
     43 H10        23.5558   15.5480   23.5870 H         1 6YA         0.0509
     44 H11        18.9205   18.4291   20.1678 H         1 6YA         0.0598
     45 H12        19.0955   17.1109   21.3754 H         1 6YA         0.0598
     46 H13        20.4384   17.4172   18.6623 H         1 6YA         0.0306
     47 H14        21.1721   16.3879   19.9385 H         1 6YA         0.0306
     48 H15        19.7064   21.8801   21.0137 H         1 6YA         0.0800
     49 H16        18.5443   20.5134   20.9223 H         1 6YA         0.0800
     50 H17        22.1471   22.2604   20.0937 H         1 6YA         0.0648
     51 H18        23.7699   22.4725   16.1954 H         1 6YA         0.0645
     52 H19        18.8338   18.5656   15.9898 H         1 6YA         0.0682
     53 H20        19.9560   19.6241   15.0694 H         1 6YA         0.0682
@<TRIPOS>BOND
     1   10    1 ar 
     2    1   15 ar 
     3   17    2 1  
     4    2   18 1  
     5   18    3 1  
     6   22    4 am 
     7    4   23 2  
     8    4   24 am 
     9   22    5 1  
    10    5   25 ar 
    11    5   26 ar 
    12   25    6 ar 
    13    6   28 ar 
    14    8    7 2  
    15    7   11 1  
    16    8    9 1  
    17   21    8 1  
    18    9   10 1  
    19    9   16 1  
    20   10   11 ar 
    21   11   12 ar 
    22   12   13 ar 
    23   13   14 1  
    24   15   13 ar 
    25   16   17 1  
    26   18   19 2  
    27   18   20 2  
    28   21   22 1  
    29   24   25 1  
    30   24   29 1  
    31   26   27 ar 
    32   27   28 ar 
    33   29   30 1  
    34   30   31 1  
    35   30   32 1  
    36   30   33 1  
    37    1   34 1  
    38    2   35 1  
    39    2   36 1  
    40    3   37 1  
    41    3   38 1  
    42    3   39 1  
    43    6   40 1  
    44    7   41 1  
    45   12   42 1  
    46   15   43 1  
    47   16   44 1  
    48   16   45 1  
    49   17   46 1  
    50   17   47 1  
    51   21   48 1  
    52   21   49 1  
    53   26   50 1  
    54   28   51 1  
    55   29   52 1  
    56   29   53 1  
@<TRIPOS>SUBSTRUCTURE
     1 6YA         1

