### 
### Created by X-TOOL on Mon Sep 10 21:13:29 2018
### 

@<TRIPOS>MOLECULE
5kx7_ligand
   39    41     1     0     0
SMALL
GAST_HUCK


@<TRIPOS>ATOM
      1 N01        34.8230   40.4370   60.7550 N.am      1 6YD        -0.2474
      2 C02        33.8620   40.2980   61.7260 C.2       1 6YD         0.2401
      3 O03        34.1500   40.1030   62.9020 O.2       1 6YD        -0.3722
      4 C04        32.4320   40.2400   61.2580 C.ar      1 6YD         0.1176
      5 N05        32.1930   40.4740   59.9580 N.ar      1 6YD        -0.2830
      6 C06        30.9340   40.3190   59.5150 C.ar      1 6YD         0.0392
      7 C07        29.8880   39.9040   60.3350 C.ar      1 6YD        -0.0319
      8 C08        30.1570   39.6390   61.6620 C.ar      1 6YD        -0.0430
      9 C09        31.4420   39.8110   62.1400 C.ar      1 6YD        -0.0201
     10 C10        30.7240   40.5790   58.0720 C.2       1 6YD         0.0205
     11 C11        29.5340   40.8250   57.3570 C.2       1 6YD         0.0096
     12 N12        29.7550   41.0040   56.0660 N.2       1 6YD        -0.2116
     13 N13        31.1410   40.8520   55.9270 N.pl3     1 6YD        -0.2028
     14 C14        31.7070   40.5930   57.1110 C.2       1 6YD         0.0694
     15 C15        36.2070   40.2690   61.0190 C.2       1 6YD         0.0946
     16 C16        36.9380   40.2600   62.2370 C.2       1 6YD         0.0660
     17 N17        38.2270   40.0720   61.9300 N.pl3     1 6YD        -0.2182
     18 N18        38.4500   39.9400   60.6000 N.2       1 6YD        -0.1981
     19 C19        37.2350   40.0560   60.0500 C.2       1 6YD         0.1331
     20 C20        39.3530   39.9750   62.8510 C.3       1 6YD         0.0569
     21 C21        37.0410   39.9250   58.5980 C.2       1 6YD         0.2045
     22 N22        38.0290   39.3510   57.9110 N.am      1 6YD        -0.3013
     23 O23        35.9690   40.3050   58.0710 O.2       1 6YD        -0.3898
     24 C24        31.8090   40.9670   54.6390 C.3       1 6YD         0.0624
     25 H1         34.5360   40.6657   59.8248 H         1 6YD         0.2139
     26 H2         28.8849   39.7917   59.9397 H         1 6YD         0.0696
     27 H3         29.3680   39.2992   62.3231 H         1 6YD         0.0728
     28 H4         31.6754   39.6161   63.1805 H         1 6YD         0.0712
     29 H5         28.5469   40.8631   57.8153 H         1 6YD         0.0685
     30 H6         32.7684   40.4219   57.2846 H         1 6YD         0.1077
     31 H7         36.5252   40.3834   63.2371 H         1 6YD         0.0776
     32 H8         40.2808   39.8199   62.2808 H         1 6YD         0.0600
     33 H9         39.1963   39.1269   63.5338 H         1 6YD         0.0600
     34 H10        39.4316   40.9049   63.4333 H         1 6YD         0.0600
     35 H11        37.9489   39.2369   56.9208 H         1 6YD         0.1805
     36 H12        38.8502   39.0346   58.3860 H         1 6YD         0.1805
     37 H13        32.8899   40.8113   54.7714 H         1 6YD         0.0609
     38 H14        31.6313   41.9692   54.2219 H         1 6YD         0.0609
     39 H15        31.4108   40.2073   53.9503 H         1 6YD         0.0609
@<TRIPOS>BOND
     1    1    2 am 
     2    1   15 1  
     3    2    3 2  
     4    2    4 1  
     5    4    5 ar 
     6    4    9 ar 
     7    5    6 ar 
     8    6    7 ar 
     9    6   10 1  
    10    7    8 ar 
    11    8    9 ar 
    12   10   11 1  
    13   10   14 2  
    14   11   12 2  
    15   12   13 1  
    16   13   14 1  
    17   13   24 1  
    18   15   16 2  
    19   15   19 1  
    20   16   17 1  
    21   17   18 1  
    22   17   20 1  
    23   18   19 2  
    24   19   21 1  
    25   21   22 am 
    26   21   23 2  
    27    1   25 1  
    28    7   26 1  
    29    8   27 1  
    30    9   28 1  
    31   11   29 1  
    32   14   30 1  
    33   16   31 1  
    34   20   32 1  
    35   20   33 1  
    36   20   34 1  
    37   22   35 1  
    38   22   36 1  
    39   24   37 1  
    40   24   38 1  
    41   24   39 1  
@<TRIPOS>SUBSTRUCTURE
     1 6YD         1

