### 
### Created by X-TOOL on Mon Sep 10 21:13:29 2018
### 

@<TRIPOS>MOLECULE
5kx8_ligand
   47    50     1     0     0
SMALL
GAST_HUCK


@<TRIPOS>ATOM
      1 N01        29.9700    6.6960   -7.6660 N.am      1 6YE        -0.2578
      2 C02        30.7990    5.7640   -8.2610 C.2       1 6YE         0.1876
      3 O03        30.8900    4.5700   -7.8900 O.2       1 6YE        -0.4039
      4 C04        31.6640    6.2860   -9.3720 C.2       1 6YE         0.0694
      5 C05        32.4900    5.4380  -10.1760 C.2       1 6YE        -0.0018
      6 N06        33.2350    6.1220  -11.0960 N.2       1 6YE        -0.2106
      7 N07        32.8890    7.4540  -10.9110 N.pl3     1 6YE        -0.1367
      8 C08        31.9310    7.5960   -9.8350 C.2       1 6YE         0.1670
      9 N09        31.4850    8.8250   -9.4520 N.2       1 6YE        -0.2601
     10 C10        31.9320    9.9430  -10.1380 C.2       1 6YE         0.1181
     11 C11        32.8740    9.8220  -11.1770 C.2       1 6YE         0.0331
     12 C12        33.3470    8.5950  -11.5790 C.2       1 6YE         0.1129
     13 N13        31.5020   11.1880   -9.6740 N.pl3     1 6YE        -0.2752
     14 C14        31.9260   12.4340  -10.3260 C.3       1 6YE         0.0735
     15 C15        31.2010   13.6750   -9.8530 C.3       1 6YE        -0.0124
     16 N16        31.3080   13.7340   -8.3930 N.4       1 6YE         0.2299
     17 C17        30.6020   12.5950   -7.8130 C.3       1 6YE        -0.0124
     18 C18        31.3660   11.3720   -8.2220 C.3       1 6YE         0.0735
     19 C19        29.3520    6.5100   -6.4050 C.2       1 6YE         0.0929
     20 C20        28.7040    7.5260   -5.6130 C.2       1 6YE         0.1328
     21 N21        28.2080    6.9720   -4.5020 N.2       1 6YE        -0.1983
     22 N22        28.5120    5.6520   -4.5350 N.pl3     1 6YE        -0.2184
     23 C23        29.1820    5.3000   -5.6380 C.2       1 6YE         0.0655
     24 C24        28.5840    8.9580   -5.9360 C.2       1 6YE         0.2044
     25 N25        28.1430    9.7620   -4.9710 N.am      1 6YE        -0.3013
     26 O26        28.8850    9.3730   -7.0630 O.2       1 6YE        -0.3899
     27 C27        28.0960    4.7930   -3.4360 C.3       1 6YE         0.0568
     28 H1         29.7963    7.5514   -8.1540 H         1 6YE         0.2117
     29 H2         32.5220    4.3550  -10.0659 H         1 6YE         0.0676
     30 H3         33.2365   10.7207  -11.6738 H         1 6YE         0.0596
     31 H4         34.0607    8.5133  -12.3974 H         1 6YE         0.1357
     32 H5         31.7559   12.3295  -11.4077 H         1 6YE         0.0580
     33 H6         33.0006   12.5717  -10.1354 H         1 6YE         0.0580
     34 H7         30.1425   13.6239  -10.1478 H         1 6YE         0.0834
     35 H8         31.6627   14.5691  -10.2974 H         1 6YE         0.0834
     36 H9         30.8961   14.5913   -8.0592 H         1 6YE         0.2015
     37 H10        32.2790   13.7009   -8.1246 H         1 6YE         0.2015
     38 H11        29.5732   12.5480   -8.1994 H         1 6YE         0.0834
     39 H12        30.5784   12.6800   -6.7166 H         1 6YE         0.0834
     40 H13        32.3751   11.4382   -7.7893 H         1 6YE         0.0580
     41 H14        30.8483   10.4921   -7.8124 H         1 6YE         0.0580
     42 H15        29.5288    4.3023   -5.9032 H         1 6YE         0.0773
     43 H16        28.0448   10.7422   -5.1428 H         1 6YE         0.1805
     44 H17        27.9099    9.3857   -4.0743 H         1 6YE         0.1805
     45 H18        28.4262    3.7621   -3.6312 H         1 6YE         0.0600
     46 H19        26.9999    4.8162   -3.3471 H         1 6YE         0.0600
     47 H20        28.5476    5.1515   -2.4992 H         1 6YE         0.0600
@<TRIPOS>BOND
     1    1    2 am 
     2    1   19 1  
     3    2    3 2  
     4    2    4 1  
     5    4    5 1  
     6    4    8 2  
     7    5    6 2  
     8    6    7 1  
     9    7    8 1  
    10    7   12 1  
    11    8    9 1  
    12    9   10 2  
    13   10   11 1  
    14   10   13 1  
    15   11   12 2  
    16   13   14 1  
    17   13   18 1  
    18   14   15 1  
    19   15   16 1  
    20   16   17 1  
    21   17   18 1  
    22   19   20 1  
    23   19   23 2  
    24   20   21 2  
    25   20   24 1  
    26   21   22 1  
    27   22   23 1  
    28   22   27 1  
    29   24   25 am 
    30   24   26 2  
    31    1   28 1  
    32    5   29 1  
    33   11   30 1  
    34   12   31 1  
    35   14   32 1  
    36   14   33 1  
    37   15   34 1  
    38   15   35 1  
    39   16   36 1  
    40   16   37 1  
    41   17   38 1  
    42   17   39 1  
    43   18   40 1  
    44   18   41 1  
    45   23   42 1  
    46   25   43 1  
    47   25   44 1  
    48   27   45 1  
    49   27   46 1  
    50   27   47 1  
@<TRIPOS>SUBSTRUCTURE
     1 6YE         1

