### 
### Created by X-TOOL on Mon Sep 10 21:13:28 2018
### 

@<TRIPOS>MOLECULE
5kxc_ligand
   69    71     1     0     0
SMALL
GAST_HUCK


@<TRIPOS>ATOM
      1 CAB         5.8930  -24.4340  -14.3000 C.ar      1 6Y2         0.1016
      2 CAC         6.1310  -25.6860  -14.8700 C.ar      1 6Y2        -0.0239
      3 CAD         5.0920  -26.6190  -14.8700 C.ar      1 6Y2        -0.0271
      4 CAE         3.8470  -26.2800  -14.3000 C.ar      1 6Y2         0.1882
      5 CAF         3.6290  -25.0260  -13.7350 C.ar      1 6Y2        -0.0271
      6 CAG         4.6610  -24.1110  -13.7360 C.ar      1 6Y2        -0.0239
      7 CAL         6.6750  -22.4210  -15.1930 C.3       1 6Y2         0.2080
      8 CAO         6.5460  -21.1250  -14.4650 C.3       1 6Y2         0.1256
      9 CAW         8.4110  -20.0920  -15.7750 C.3       1 6Y2         0.1182
     10 CBA         8.6160  -21.4460  -16.4380 C.3       1 6Y2         0.1137
     11 CBK        13.0390  -19.6310  -18.6280 C.3       1 6Y2         0.0257
     12 CBG        11.8200  -18.7560  -18.7570 C.2       1 6Y2         0.1733
     13 OBH        11.3800  -18.4640  -19.8770 O.2       1 6Y2        -0.3974
     14 N2         11.3430  -18.2720  -17.5860 N.am      1 6Y2        -0.2766
     15 C2         10.1560  -17.4050  -17.5070 C.3       1 6Y2         0.1210
     16 C3         10.6000  -15.9870  -17.2220 C.3       1 6Y2         0.1111
     17 O3         11.4060  -15.5740  -18.3210 O.3       1 6Y2        -0.3867
     18 C4          9.4170  -15.0950  -17.0310 C.3       1 6Y2         0.1116
     19 O4          8.6790  -15.0880  -18.2230 O.3       1 6Y2        -0.3865
     20 C5          8.5600  -15.6770  -15.8940 C.3       1 6Y2         0.1130
     21 C6          7.3410  -14.8310  -15.6860 C.3       1 6Y2         0.0730
     22 O6          6.6930  -15.5040  -14.5920 O.3       1 6Y2        -0.3924
     23 O5          8.1470  -17.0410  -16.2230 O.3       1 6Y2        -0.3408
     24 C1          9.2810  -17.8820  -16.3630 C.3       1 6Y2         0.1854
     25 O1          8.8520  -19.1550  -16.7940 O.3       1 6Y2        -0.3404
     26 OBB         7.9600  -22.5440  -15.7720 O.3       1 6Y2        -0.3368
     27 CBE        10.0840  -21.8310  -16.4300 C.3       1 6Y2         0.0730
     28 OBF        10.2360  -22.7260  -17.5270 O.3       1 6Y2        -0.3924
     29 CAS         6.9150  -19.9610  -15.4340 C.3       1 6Y2         0.1118
     30 OAT         6.5650  -18.7080  -14.8300 O.3       1 6Y2        -0.3867
     31 NAP         5.1670  -20.9320  -13.9940 N.am      1 6Y2        -0.2762
     32 CBI         4.7870  -20.4630  -12.7700 C.2       1 6Y2         0.1734
     33 OBJ         3.6000  -20.2940  -12.5260 O.2       1 6Y2        -0.3974
     34 CBL         5.8020  -20.1460  -11.6280 C.3       1 6Y2         0.0257
     35 OAA         6.8460  -23.4940  -14.2570 O.3       1 6Y2        -0.2808
     36 NAH         2.8270  -27.1310  -14.2880 N.2       1 6Y2         0.3062
     37 OAJ         3.1100  -28.6160  -13.9440 O.2       1 6Y2         0.1732
     38 OAI         1.3480  -26.5370  -14.6400 O.2       1 6Y2         0.1732
     39 H1          7.0960  -25.9273  -15.3008 H         1 6Y2         0.0561
     40 H2          5.2416  -27.6000  -15.3063 H         1 6Y2         0.0666
     41 H3          2.6673  -24.7740  -13.3030 H         1 6Y2         0.0666
     42 H4          4.5121  -23.1324  -13.2942 H         1 6Y2         0.0561
     43 H5          5.8460  -22.5654  -15.9015 H         1 6Y2         0.0993
     44 H6          7.2298  -21.1212  -13.6034 H         1 6Y2         0.0638
     45 H7          9.0138  -19.9863  -14.8610 H         1 6Y2         0.0650
     46 H8          8.2493  -21.3773  -17.4728 H         1 6Y2         0.0647
     47 H9         13.2745  -19.7770  -17.5635 H         1 6Y2         0.0467
     48 H10        13.8912  -19.1488  -19.1293 H         1 6Y2         0.0467
     49 H11        12.8416  -20.6063  -19.0969 H         1 6Y2         0.0467
     50 H12        11.8169  -18.5136  -16.7392 H         1 6Y2         0.1857
     51 H13         9.5964  -17.4428  -18.4533 H         1 6Y2         0.0633
     52 H14        11.2038  -15.9687  -16.3027 H         1 6Y2         0.0645
     53 H15        11.7044  -14.6838  -18.1765 H         1 6Y2         0.2100
     54 H16         9.7403  -14.0743  -16.7787 H         1 6Y2         0.0647
     55 H17         9.2241  -14.7624  -18.9297 H         1 6Y2         0.2100
     56 H18         9.1536  -15.6916  -14.9681 H         1 6Y2         0.0647
     57 H19         6.7038  -14.8207  -16.5826 H         1 6Y2         0.0584
     58 H20         7.6116  -13.7994  -15.4166 H         1 6Y2         0.0584
     59 H21         5.8913  -15.0453  -14.3697 H         1 6Y2         0.2095
     60 H22         9.8416  -17.9345  -15.4180 H         1 6Y2         0.0935
     61 H23        10.3480  -22.3289  -15.4854 H         1 6Y2         0.0584
     62 H24        10.7176  -20.9421  -16.5656 H         1 6Y2         0.0584
     63 H25         9.6742  -23.4812  -17.3983 H         1 6Y2         0.2095
     64 H26         6.3365  -20.0648  -16.3638 H         1 6Y2         0.0645
     65 H27         6.7818  -17.9996  -15.4246 H         1 6Y2         0.2100
     66 H28         4.4352  -21.1676  -14.6335 H         1 6Y2         0.1857
     67 H29         5.2575  -19.7834  -10.7437 H         1 6Y2         0.0467
     68 H30         6.5062  -19.3723  -11.9677 H         1 6Y2         0.0467
     69 H31         6.3578  -21.0588  -11.3675 H         1 6Y2         0.0467
@<TRIPOS>BOND
     1    1    2 ar 
     2    1    6 ar 
     3   35    1 1  
     4    2    3 ar 
     5    3    4 ar 
     6    5    4 ar 
     7    4   36 1  
     8    6    5 ar 
     9    8    7 1  
    10   26    7 1  
    11    7   35 1  
    12   29    8 1  
    13    8   31 1  
    14    9   10 1  
    15   25    9 1  
    16    9   29 1  
    17   10   26 1  
    18   10   27 1  
    19   12   11 1  
    20   12   13 2  
    21   14   12 am 
    22   15   14 1  
    23   15   16 1  
    24   24   15 1  
    25   16   17 1  
    26   16   18 1  
    27   18   19 1  
    28   20   18 1  
    29   20   21 1  
    30   23   20 1  
    31   21   22 1  
    32   24   23 1  
    33   24   25 1  
    34   27   28 1  
    35   29   30 1  
    36   31   32 am 
    37   32   33 2  
    38   32   34 1  
    39   36   37 2  
    40   36   38 2  
    41    2   39 1  
    42    3   40 1  
    43    5   41 1  
    44    6   42 1  
    45    7   43 1  
    46    8   44 1  
    47    9   45 1  
    48   10   46 1  
    49   11   47 1  
    50   11   48 1  
    51   11   49 1  
    52   14   50 1  
    53   15   51 1  
    54   16   52 1  
    55   17   53 1  
    56   18   54 1  
    57   19   55 1  
    58   20   56 1  
    59   21   57 1  
    60   21   58 1  
    61   22   59 1  
    62   24   60 1  
    63   27   61 1  
    64   27   62 1  
    65   28   63 1  
    66   29   64 1  
    67   30   65 1  
    68   31   66 1  
    69   34   67 1  
    70   34   68 1  
    71   34   69 1  
@<TRIPOS>SUBSTRUCTURE
     1 6Y2         1

