### 
### Created by X-TOOL on Mon Sep 10 21:13:30 2018
### 

@<TRIPOS>MOLECULE
5kxi_ligand
   27    28     1     0     0
SMALL
GAST_HUCK


@<TRIPOS>ATOM
      1 N1         69.3500  -25.7340  -42.4450 N.ar      1 NCT        -0.3042
      2 C1         68.4560  -26.2350  -41.5570 C.ar      1 NCT         0.0179
      3 C2         68.3180  -27.6120  -41.2940 C.ar      1 NCT         0.0324
      4 C3         69.1440  -28.4790  -42.0040 C.ar      1 NCT        -0.0351
      5 C4         70.0670  -27.9890  -42.9290 C.ar      1 NCT        -0.0403
      6 C5         70.1380  -26.6050  -43.1220 C.ar      1 NCT         0.0042
      7 N2         67.3670  -27.2020  -39.0760 N.4       1 NCT         0.2482
      8 C6         67.3240  -28.1100  -40.2920 C.3       1 NCT         0.0189
      9 C7         65.8770  -28.0320  -40.6550 C.3       1 NCT         0.0064
     10 C8         65.1070  -27.9140  -39.3700 C.3       1 NCT        -0.0054
     11 C9         66.0000  -27.0950  -38.4900 C.3       1 NCT        -0.0300
     12 C10        68.1510  -28.0170  -38.1560 C.3       1 NCT        -0.0413
     13 H1         67.8160  -25.5417  -41.0232 H         1 NCT         0.0767
     14 H2         69.0694  -29.5474  -41.8364 H         1 NCT         0.0680
     15 H3         70.7113  -28.6622  -43.4828 H         1 NCT         0.0693
     16 H4         70.8500  -26.2144  -43.8400 H         1 NCT         0.0767
     17 H5         67.7706  -26.2983  -39.2669 H         1 NCT         0.2049
     18 H6         67.5855  -29.1466  -40.0329 H         1 NCT         0.1033
     19 H7         65.5735  -28.9410  -41.1950 H         1 NCT         0.0346
     20 H8         65.6932  -27.1511  -41.2876 H         1 NCT         0.0346
     21 H9         64.9259  -28.9056  -38.9296 H         1 NCT         0.0320
     22 H10        64.1459  -27.4049  -39.5348 H         1 NCT         0.0320
     23 H11        65.6693  -26.0459  -38.4809 H         1 NCT         0.0815
     24 H12        65.9922  -27.4909  -37.4637 H         1 NCT         0.0815
     25 H13        69.1742  -28.1271  -38.5445 H         1 NCT         0.0778
     26 H14        67.6869  -29.0096  -38.0587 H         1 NCT         0.0778
     27 H15        68.1835  -27.5293  -37.1706 H         1 NCT         0.0778
@<TRIPOS>BOND
     1    1    2 ar 
     2    1    6 ar 
     3    2    3 ar 
     4    3    4 ar 
     5    3    8 1  
     6    4    5 ar 
     7    5    6 ar 
     8    8    7 1  
     9    7   11 1  
    10    7   12 1  
    11    8    9 1  
    12    9   10 1  
    13   10   11 1  
    14    2   13 1  
    15    4   14 1  
    16    5   15 1  
    17    6   16 1  
    18    7   17 1  
    19    8   18 1  
    20    9   19 1  
    21    9   20 1  
    22   10   21 1  
    23   10   22 1  
    24   11   23 1  
    25   11   24 1  
    26   12   25 1  
    27   12   26 1  
    28   12   27 1  
@<TRIPOS>SUBSTRUCTURE
     1 NCT         1

