### 
### Created by X-TOOL on Mon Sep 10 21:13:28 2018
### 

@<TRIPOS>MOLECULE
5kya_ligand
   55    58     1     0     0
SMALL
GAST_HUCK


@<TRIPOS>ATOM
      1 N4         10.9960  -41.1420   12.0360 N.pl3     1 6Y4        -0.1801
      2 C8          9.6410  -41.1850   12.0700 C.2       1 6Y4         0.0594
      3 N3          9.0020  -39.9100   15.3840 N.pl3     1 6Y4        -0.2538
      4 C5          9.4870  -39.4250   18.8970 C.ar      1 6Y4         0.0571
      5 C4          8.6480  -39.8790   16.7220 C.ar      1 6Y4         0.2210
      6 C3          7.2700  -40.3090   18.5010 C.ar      1 6Y4         0.1249
      7 C6          8.1870  -40.3140   14.2070 C.3       1 6Y4         0.0554
      8 C7          9.3370  -40.6650   13.3100 C.2       1 6Y4        -0.0012
      9 C2          8.2960  -39.8370   19.4690 C.ar      1 6Y4         0.0569
     10 C1          8.1060  -39.8130   20.9910 C.3       1 6Y4         0.1000
     11 N2          9.6280  -39.4770   17.5730 N.ar      1 6Y4        -0.2209
     12 N1          7.4660  -40.3220   17.1630 N.ar      1 6Y4        -0.2369
     13 C9         10.5950  -40.3440   13.8980 C.2       1 6Y4         0.0412
     14 C14        11.7410  -41.5020   10.9980 C.ar      1 6Y4         0.1071
     15 C13         9.8800  -37.3960   14.2740 C.3       1 6Y4        -0.0589
     16 O3         12.0020  -44.9650    8.0270 O.2       1 6Y4        -0.1697
     17 C15        11.2610  -42.3550   10.0250 C.ar      1 6Y4        -0.0018
     18 C12        11.4500  -37.7220   16.1840 C.3       1 6Y4        -0.0589
     19 C11        10.9160  -38.3100   14.9080 C.3       1 6Y4        -0.0143
     20 C10        10.4450  -39.7290   15.1620 C.3       1 6Y4         0.0843
     21 C16        12.0140  -42.6840    8.9150 C.ar      1 6Y4         0.0835
     22 C17         9.7830  -43.8160    8.0500 C.3       1 6Y4         0.0594
     23 C21         5.9710  -40.7860   18.9820 C.3       1 6Y4         0.3932
     24 C20        13.0330  -40.9910   10.8140 C.ar      1 6Y4        -0.0265
     25 C19        13.7980  -41.3290    9.7200 C.ar      1 6Y4        -0.0645
     26 C18        13.2840  -42.1730    8.7450 C.ar      1 6Y4        -0.0443
     27 F3          5.4210  -39.8180   19.7060 F         1 6Y4        -0.2156
     28 F1          6.2610  -41.8720   19.7000 F         1 6Y4        -0.2156
     29 F2          5.2490  -41.0410   17.8930 F         1 6Y4        -0.2156
     30 O1          8.8100  -38.7380   21.6580 O.3       1 6Y4        -0.3751
     31 N5         11.6380  -40.5960   13.1340 N.2       1 6Y4        -0.2163
     32 S          11.4050  -43.6650    7.8260 S.o2      1 6Y4        -0.0074
     33 O2         11.7650  -43.1320    6.5510 O.2       1 6Y4        -0.1697
     34 H1          8.9573  -41.5441   11.3022 H         1 6Y4         0.0877
     35 H2         10.2972  -39.0636   19.5199 H         1 6Y4         0.0957
     36 H3          7.5795  -39.4872   13.8104 H         1 6Y4         0.0611
     37 H4          7.5384  -41.1768   14.4188 H         1 6Y4         0.0611
     38 H5          8.4676  -40.7682   21.3993 H         1 6Y4         0.0814
     39 H6          7.0320  -39.7065   21.2034 H         1 6Y4         0.0814
     40 H7         10.3131  -36.3951   14.1303 H         1 6Y4         0.0234
     41 H8          9.0020  -37.3244   14.9327 H         1 6Y4         0.0234
     42 H9          9.5753  -37.8070   13.3002 H         1 6Y4         0.0234
     43 H10        10.2686  -42.7771   10.1347 H         1 6Y4         0.0601
     44 H11        12.1956  -38.4043   16.6183 H         1 6Y4         0.0234
     45 H12        10.6239  -37.5803   16.8963 H         1 6Y4         0.0234
     46 H13        11.9214  -36.7512   15.9713 H         1 6Y4         0.0234
     47 H14        11.7526  -38.3749   14.1968 H         1 6Y4         0.0338
     48 H15        11.0338  -40.1988   15.9636 H         1 6Y4         0.0709
     49 H16         9.3000  -42.8387    7.9029 H         1 6Y4         0.0468
     50 H17         9.5855  -44.1725    9.0717 H         1 6Y4         0.0468
     51 H18         9.3783  -44.5377    7.3252 H         1 6Y4         0.0468
     52 H19        13.4412  -40.3111   11.5530 H         1 6Y4         0.0582
     53 H20        14.8031  -40.9354    9.6200 H         1 6Y4         0.0599
     54 H21        13.8688  -42.4254    7.8678 H         1 6Y4         0.0573
     55 H22         9.7419  -38.8212   21.4934 H         1 6Y4         0.2142
@<TRIPOS>BOND
     1    1    2 1  
     2   14    1 1  
     3    1   31 1  
     4    2    8 2  
     5    3    5 1  
     6    7    3 1  
     7   20    3 1  
     8    4    9 ar 
     9   11    4 ar 
    10    5   11 ar 
    11    5   12 ar 
    12    6    9 ar 
    13   12    6 ar 
    14    6   23 1  
    15    8    7 1  
    16   13    8 1  
    17    9   10 1  
    18   10   30 1  
    19   13   20 1  
    20   31   13 2  
    21   17   14 ar 
    22   14   24 ar 
    23   19   15 1  
    24   32   16 2  
    25   21   17 ar 
    26   19   18 1  
    27   20   19 1  
    28   21   26 ar 
    29   21   32 1  
    30   32   22 1  
    31   23   27 1  
    32   23   28 1  
    33   23   29 1  
    34   24   25 ar 
    35   25   26 ar 
    36   32   33 2  
    37    2   34 1  
    38    4   35 1  
    39    7   36 1  
    40    7   37 1  
    41   10   38 1  
    42   10   39 1  
    43   15   40 1  
    44   15   41 1  
    45   15   42 1  
    46   17   43 1  
    47   18   44 1  
    48   18   45 1  
    49   18   46 1  
    50   19   47 1  
    51   20   48 1  
    52   22   49 1  
    53   22   50 1  
    54   22   51 1  
    55   24   52 1  
    56   25   53 1  
    57   26   54 1  
    58   30   55 1  
@<TRIPOS>SUBSTRUCTURE
     1 6Y4         1

