### 
### Created by X-TOOL on Mon Sep 10 21:13:27 2018
### 

@<TRIPOS>MOLECULE
5kz0_ligand
   53    55     1     0     0
SMALL
GAST_HUCK


@<TRIPOS>ATOM
      1 C11        34.7820   46.3750    8.7590 C.ar      1 6YL        -0.0500
      2 C12        35.0420   46.2260   10.1360 C.ar      1 6YL        -0.0292
      3 C6         29.8660   45.4720    8.3110 C.ar      1 6YL        -0.0259
      4 C14        33.4820   44.3360   10.2360 C.ar      1 6YL        -0.0180
      5 C4         27.7530   45.9740    9.3150 C.ar      1 6YL        -0.0170
      6 C27        29.8210   48.1960    7.0410 C.2       1 6YL         0.0576
      7 C5         28.7610   46.3710    8.4130 C.ar      1 6YL        -0.0322
      8 C23        28.6990   47.6260    7.6270 C.2       1 6YL         0.0007
      9 C10        33.8620   45.4970    8.1020 C.ar      1 6YL         0.0501
     10 C9         33.1810   44.4440    8.8360 C.ar      1 6YL         0.0084
     11 C1         29.9510   44.2620    9.0600 C.ar      1 6YL         0.1358
     12 C13        34.3930   45.2110   10.8580 C.ar      1 6YL         0.1312
     13 C24        27.6420   48.5510    7.2530 C.2       1 6YL         0.0157
     14 C2         28.8740   43.9650    9.9370 C.ar      1 6YL         0.1363
     15 C17        33.6870   45.7740    6.6430 C.2       1 6YL         0.1992
     16 C28        26.1860   48.5440    7.5520 C.3       1 6YL        -0.0265
     17 C15        32.7380   42.0310    8.1530 C.3       1 6YL        -0.0234
     18 C29        30.2590   50.2330    5.6630 C.3       1 6YL         0.0579
     19 C21        34.3410   45.3810    4.2790 C.3       1 6YL         0.0215
     20 C22        35.5440   44.0910    5.9940 C.3       1 6YL         0.0215
     21 C8         32.1670   43.4550    8.2230 C.3       1 6YL         0.1137
     22 N3         27.7890   44.8160   10.0590 N.ar      1 6YL        -0.3016
     23 N25        28.1060   49.5660    6.5170 N.2       1 6YL        -0.2245
     24 N26        29.4190   49.3220    6.4080 N.pl3     1 6YL        -0.2160
     25 N18        28.8990   42.7810   10.7090 N.pl3     1 6YL        -0.3269
     26 N20        34.5060   45.0890    5.6990 N.am      1 6YL        -0.2803
     27 O19        32.8260   46.6080    6.3550 O.2       1 6YL        -0.3902
     28 O7         30.9770   43.3300    9.0400 O.3       1 6YL        -0.3003
     29 F16        34.6390   45.0700   12.1560 F         1 6YL        -0.1813
     30 H1         35.2798   47.1563    8.1961 H         1 6YL         0.0642
     31 H2         35.7383   46.8904   10.6347 H         1 6YL         0.0560
     32 H3         30.6756   45.7206    7.6344 H         1 6YL         0.0562
     33 H4         32.9983   43.5656   10.8256 H         1 6YL         0.0555
     34 H5         26.8927   46.6233    9.4305 H         1 6YL         0.0635
     35 H6         30.8377   47.8081    7.0831 H         1 6YL         0.1012
     36 H7         25.7125   49.4226    7.0895 H         1 6YL         0.0381
     37 H8         26.0351   48.5770    8.6411 H         1 6YL         0.0381
     38 H9         25.7328   47.6273    7.1467 H         1 6YL         0.0381
     39 H10        31.9889   41.3569    7.7120 H         1 6YL         0.0282
     40 H11        32.9895   41.6865    9.1669 H         1 6YL         0.0282
     41 H12        33.6445   42.0296    7.5299 H         1 6YL         0.0282
     42 H13        29.6457   51.0548    5.2649 H         1 6YL         0.0600
     43 H14        30.7356   49.6947    4.8305 H         1 6YL         0.0600
     44 H15        31.0346   50.6426    6.3268 H         1 6YL         0.0600
     45 H16        35.0452   44.7703    3.6949 H         1 6YL         0.0485
     46 H17        34.5427   46.4471    4.0980 H         1 6YL         0.0485
     47 H18        33.3108   45.1457    3.9735 H         1 6YL         0.0485
     48 H19        35.6013   43.9319    7.0809 H         1 6YL         0.0485
     49 H20        36.5152   44.4519    5.6246 H         1 6YL         0.0485
     50 H21        35.2923   43.1423    5.4974 H         1 6YL         0.0485
     51 H22        31.8982   43.8048    7.2154 H         1 6YL         0.0823
     52 H23        28.1185   42.5645   11.3453 H         1 6YL         0.1726
     53 H24        29.6977   42.1348   10.6351 H         1 6YL         0.1726
@<TRIPOS>BOND
     1    1    2 ar 
     2    9    1 ar 
     3   12    2 ar 
     4    3    7 ar 
     5   11    3 ar 
     6   10    4 ar 
     7    4   12 ar 
     8    7    5 ar 
     9   22    5 ar 
    10    8    6 2  
    11    6   24 1  
    12    7    8 1  
    13    8   13 1  
    14   10    9 ar 
    15    9   15 1  
    16   21   10 1  
    17   11   14 ar 
    18   28   11 1  
    19   12   29 1  
    20   13   16 1  
    21   13   23 2  
    22   14   22 ar 
    23   14   25 1  
    24   15   26 am 
    25   15   27 2  
    26   21   17 1  
    27   24   18 1  
    28   26   19 1  
    29   26   20 1  
    30   21   28 1  
    31   23   24 1  
    32    1   30 1  
    33    2   31 1  
    34    3   32 1  
    35    4   33 1  
    36    5   34 1  
    37    6   35 1  
    38   16   36 1  
    39   16   37 1  
    40   16   38 1  
    41   17   39 1  
    42   17   40 1  
    43   17   41 1  
    44   18   42 1  
    45   18   43 1  
    46   18   44 1  
    47   19   45 1  
    48   19   46 1  
    49   19   47 1  
    50   20   48 1  
    51   20   49 1  
    52   20   50 1  
    53   21   51 1  
    54   25   52 1  
    55   25   53 1  
@<TRIPOS>SUBSTRUCTURE
     1 6YL         1

