### 
### Created by X-TOOL on Mon Sep 10 21:13:27 2018
### 

@<TRIPOS>MOLECULE
5kzi_ligand
   53    57     1     0     0
SMALL
GAST_HUCK


@<TRIPOS>ATOM
      1 F1        -43.0660   -2.9100    3.0190 F         1 6YN        -0.1805
      2 C12       -44.0740   -2.0540    3.2620 C.ar      1 6YN         0.1445
      3 C11       -44.6180   -2.0130    4.5440 C.ar      1 6YN        -0.0288
      4 C2        -45.6690   -1.1420    4.8290 C.ar      1 6YN        -0.0633
      5 C1        -46.1620   -0.3210    3.8170 C.ar      1 6YN        -0.0288
      6 C10       -45.6050   -0.3640    2.5400 C.ar      1 6YN         0.1445
      7 F2        -46.0970    0.4390    1.5870 F         1 6YN        -0.1805
      8 C3        -44.5530   -1.2270    2.2380 C.ar      1 6YN         0.0719
      9 C4        -43.9910   -1.2980    0.9420 C.2       1 6YN         0.0791
     10 C7        -44.7540   -1.2290   -0.2310 C.2       1 6YN        -0.0340
     11 C6        -44.1410   -1.3140   -1.4840 C.2       1 6YN        -0.0242
     12 N1        -42.6740   -1.4510    0.8040 N.2       1 6YN        -0.1590
     13 N2        -42.1140   -1.5360   -0.3010 N.pl3     1 6YN        -0.1169
     14 C5        -42.7630   -1.4820   -1.5120 C.2       1 6YN         0.1038
     15 C9        -41.8350   -1.6150   -2.4770 C.2       1 6YN        -0.0259
     16 N3        -40.6190   -1.7500   -1.9200 N.2       1 6YN        -0.3191
     17 C8        -40.7920   -1.7150   -0.5990 C.2       1 6YN         0.2582
     18 N4        -39.9430   -1.7860    0.4270 N.pl3     1 6YN        -0.2342
     19 C13       -38.6680   -2.1580    0.4380 C.ar      1 6YN         0.1090
     20 C17       -37.8940   -2.1930   -0.7150 C.ar      1 6YN         0.0179
     21 N5        -36.6220   -2.5620   -0.6590 N.ar      1 6YN        -0.3294
     22 C16       -36.0410   -2.9010    0.4840 C.ar      1 6YN        -0.0170
     23 C15       -36.7440   -2.8850    1.6830 C.ar      1 6YN        -0.0267
     24 C14       -38.0830   -2.5140    1.6550 C.ar      1 6YN         0.0856
     25 N6        -38.7860   -2.4590    2.8760 N.pl3     1 6YN        -0.2989
     26 C22       -38.8350   -3.6310    3.7770 C.3       1 6YN         0.0700
     27 C18       -39.2650   -1.1180    3.3340 C.3       1 6YN         0.0277
     28 C19       -40.4690   -1.2050    4.2720 C.3       1 6YN        -0.0280
     29 C20       -40.2480   -2.2700    5.3410 C.3       1 6YN        -0.0061
     30 C21       -40.0860   -3.6490    4.6560 C.3       1 6YN        -0.0042
     31 N7        -39.9730   -4.7110    5.6670 N.4       1 6YN         0.2221
     32 H1        -44.2239   -2.6587    5.3205 H         1 6YN         0.0576
     33 H2        -46.0966   -1.1042    5.8244 H         1 6YN         0.0615
     34 H3        -46.9836    0.3552    4.0240 H         1 6YN         0.0576
     35 H4        -45.8343   -1.1081   -0.1658 H         1 6YN         0.0580
     36 H5        -44.7217   -1.2509   -2.4031 H         1 6YN         0.0725
     37 H6        -42.0381   -1.6135   -3.5469 H         1 6YN         0.0353
     38 H7        -40.3314   -1.5135    1.3412 H         1 6YN         0.2123
     39 H8        -38.3331   -1.9167   -1.6668 H         1 6YN         0.0676
     40 H9        -34.9980   -3.1962    0.4832 H         1 6YN         0.0676
     41 H10       -36.2607   -3.1547    2.6151 H         1 6YN         0.0564
     42 H11       -37.9483   -3.6118    4.4277 H         1 6YN         0.0571
     43 H12       -38.8215   -4.5454    3.1657 H         1 6YN         0.0571
     44 H13       -39.5498   -0.5267    2.4513 H         1 6YN         0.0515
     45 H14       -38.4432   -0.6138    3.8636 H         1 6YN         0.0515
     46 H15       -41.3641   -1.4622    3.6867 H         1 6YN         0.0286
     47 H16       -40.6173   -0.2302    4.7596 H         1 6YN         0.0286
     48 H17       -41.1129   -2.2954    6.0201 H         1 6YN         0.0321
     49 H18       -39.3389   -2.0341    5.9137 H         1 6YN         0.0321
     50 H19       -40.9672   -3.8452    4.0276 H         1 6YN         0.0870
     51 H20       -39.8682   -5.6022    5.2078 H         1 6YN         0.1997
     52 H21       -40.8044   -4.7224    6.2368 H         1 6YN         0.1997
     53 H22       -39.1689   -4.5364    6.2493 H         1 6YN         0.1997
@<TRIPOS>BOND
     1    1    2 1  
     2    2    3 ar 
     3    2    8 ar 
     4    3    4 ar 
     5    4    5 ar 
     6    5    6 ar 
     7    6    7 1  
     8    6    8 ar 
     9    8    9 1  
    10    9   10 1  
    11    9   12 2  
    12   10   11 2  
    13   11   14 1  
    14   12   13 1  
    15   13   14 1  
    16   13   17 1  
    17   14   15 2  
    18   15   16 1  
    19   16   17 2  
    20   17   18 1  
    21   18   19 1  
    22   19   20 ar 
    23   19   24 ar 
    24   20   21 ar 
    25   21   22 ar 
    26   22   23 ar 
    27   23   24 ar 
    28   24   25 1  
    29   25   26 1  
    30   25   27 1  
    31   26   30 1  
    32   27   28 1  
    33   28   29 1  
    34   29   30 1  
    35   30   31 1  
    36    3   32 1  
    37    4   33 1  
    38    5   34 1  
    39   10   35 1  
    40   11   36 1  
    41   15   37 1  
    42   18   38 1  
    43   20   39 1  
    44   22   40 1  
    45   23   41 1  
    46   26   42 1  
    47   26   43 1  
    48   27   44 1  
    49   27   45 1  
    50   28   46 1  
    51   28   47 1  
    52   29   48 1  
    53   29   49 1  
    54   30   50 1  
    55   31   51 1  
    56   31   52 1  
    57   31   53 1  
@<TRIPOS>SUBSTRUCTURE
     1 6YN         1

