### 
### Created by X-TOOL on Mon Sep 10 21:13:29 2018
### 

@<TRIPOS>MOLECULE
5kzq_ligand
   38    40     1     0     0
SMALL
GAST_HUCK


@<TRIPOS>ATOM
      1 C7        -20.9850  -28.2950   23.0120 C.2       1 6YS         0.0386
      2 C6        -26.9050  -31.4270   25.9420 C.ar      1 6YS         0.0096
      3 C1        -27.5900  -32.5800   23.9380 C.ar      1 6YS        -0.0357
      4 C5        -26.7090  -33.8450   25.8270 C.ar      1 6YS         0.1596
      5 C4        -27.2180  -33.7940   24.5280 C.ar      1 6YS         0.1577
      6 C3        -26.5480  -32.6430   26.5270 C.ar      1 6YS        -0.0180
      7 C2        -27.4410  -31.3870   24.6510 C.ar      1 6YS        -0.0555
      8 C8        -23.9610  -27.2250   26.9540 C.2       1 6YS         0.0968
      9 C9        -22.0200  -28.7030   23.9460 C.3       1 6YS         0.0257
     10 C10       -21.7200  -29.1270   25.3560 C.3       1 6YS         0.0097
     11 C11       -22.4870  -27.8730   25.1080 C.3       1 6YS         0.0320
     12 C12       -24.0170  -29.5730   25.9790 C.3       1 6YS         0.0476
     13 C13       -22.5820  -30.1560   26.0140 C.3       1 6YS         0.0690
     14 C14       -23.8450  -28.0480   25.7160 C.3       1 6YS         0.0436
     15 C15       -24.8840  -30.0150   27.1590 C.3       1 6YS         0.0166
     16 N16       -24.8290  -27.5290   24.7920 N.4       1 6YS         0.2235
     17 O17       -20.1840  -27.3900   23.1820 O.co2     1 6YS        -0.5687
     18 O18       -24.8890  -26.4850   27.2270 O.co2     1 6YS        -0.5422
     19 O19       -21.0380  -29.1000   21.9400 O.co2     1 6YS        -0.5687
     20 O20       -22.8780  -27.4180   27.7260 O.co2     1 6YS        -0.5422
     21 O21       -22.4610  -31.3480   25.2420 O.3       1 6YS        -0.3910
     22 F22       -27.3090  -34.9260   23.8340 F         1 6YS        -0.1901
     23 F23       -26.3680  -35.0280   26.3880 F         1 6YS        -0.1861
     24 S24       -26.6710  -29.9460   26.8540 S.3       1 6YS        -0.1052
     25 H1        -27.9923  -32.5653   22.9315 H         1 6YS         0.0576
     26 H2        -26.1425  -32.6570   27.5322 H         1 6YS         0.0541
     27 H3        -27.7372  -30.4427   24.2088 H         1 6YS         0.0521
     28 H4        -22.7733  -29.2663   23.3757 H         1 6YS         0.0474
     29 H5        -20.6865  -29.1460   25.7322 H         1 6YS         0.0351
     30 H6        -22.0920  -26.8566   25.2524 H         1 6YS         0.0377
     31 H7        -24.5174  -29.9859   25.0907 H         1 6YS         0.0387
     32 H8        -22.2687  -30.3431   27.0517 H         1 6YS         0.0601
     33 H9        -24.6570  -29.3620   28.0146 H         1 6YS         0.0405
     34 H10       -24.6189  -31.0528   27.4092 H         1 6YS         0.0405
     35 H11       -24.6747  -26.5422   24.6562 H         1 6YS         0.1999
     36 H12       -25.7529  -27.6761   25.1673 H         1 6YS         0.1999
     37 H13       -24.7452  -28.0069   23.9084 H         1 6YS         0.1999
     38 H14       -21.5678  -31.6677   25.2930 H         1 6YS         0.2098
@<TRIPOS>BOND
     1    9    1 1  
     2    1   17 ar 
     3    1   19 ar 
     4    2    6 ar 
     5    2    7 ar 
     6   24    2 1  
     7    3    5 ar 
     8    7    3 ar 
     9    4    5 ar 
    10    6    4 ar 
    11    4   23 1  
    12    5   22 1  
    13   14    8 1  
    14    8   18 ar 
    15    8   20 ar 
    16   10    9 1  
    17   11    9 1  
    18   11   10 1  
    19   13   10 1  
    20   14   11 1  
    21   12   13 1  
    22   12   14 1  
    23   15   12 1  
    24   13   21 1  
    25   14   16 1  
    26   15   24 1  
    27    3   25 1  
    28    6   26 1  
    29    7   27 1  
    30    9   28 1  
    31   10   29 1  
    32   11   30 1  
    33   12   31 1  
    34   13   32 1  
    35   15   33 1  
    36   15   34 1  
    37   16   35 1  
    38   16   36 1  
    39   16   37 1  
    40   21   38 1  
@<TRIPOS>SUBSTRUCTURE
     1 6YS         1

