### 
### Created by X-TOOL on Mon Sep 10 21:13:31 2018
### 

@<TRIPOS>MOLECULE
5l01_ligand
   66    70     1     0     0
SMALL
GAST_HUCK


@<TRIPOS>ATOM
      1 C1         47.5360   -0.6190   74.9170 C.ar      1 6Z4         0.1585
      2 C2         48.9100    1.0920   75.7500 C.ar      1 6Z4         0.1030
      3 C12        48.1370    1.1460   76.8980 C.ar      1 6Z4         0.0193
      4 C13        47.0730    0.2460   76.9830 C.ar      1 6Z4         0.1554
      5 C14        45.6250   -1.1160   78.3840 C.3       1 6Z4         0.2165
      6 C22        43.6170   -2.4680   76.1170 C.ar      1 6Z4        -0.0213
      7 C23        44.1860   -3.7130   76.3660 C.ar      1 6Z4        -0.0558
      8 C25        44.2130   -4.2300   73.9630 C.ar      1 6Z4        -0.0628
      9 C26        43.6750   -2.9900   73.6710 C.ar      1 6Z4        -0.0624
     10 N1         47.1090   -1.5140   73.9530 N.pl3     1 6Z4        -0.3086
     11 N2         48.5990    0.1940   74.7660 N.ar      1 6Z4        -0.2581
     12 N3         50.0310    1.9100   75.6020 N.pl3     1 6Z4        -0.2931
     13 CE1        50.3290    3.0010   76.4750 C.3       1 6Z4         0.0321
     14 CD1        51.1710    4.0370   75.7520 C.3       1 6Z4        -0.0215
     15 CG         52.4470    3.4940   75.1590 C.3       1 6Z4         0.0211
     16 CD2        52.0290    2.3390   74.2650 C.3       1 6Z4        -0.0215
     17 CE2        51.2260    1.2850   75.0060 C.3       1 6Z4         0.0321
     18 C8         53.4500    3.0720   76.2480 C.3       1 6Z4        -0.0259
     19 N          54.6400    3.9160   76.0590 N.4       1 6Z4         0.2414
     20 CA         54.5730    4.2860   74.6200 C.3       1 6Z4         0.0308
     21 C          55.4470    5.4710   74.2150 C.2       1 6Z4         0.0845
     22 O          55.5200    5.7660   72.9810 O.co2     1 6Z4        -0.5643
     23 O2         55.9930    6.0700   75.2030 O.co2     1 6Z4        -0.5643
     24 CB         53.1250    4.5670   74.3490 C.3       1 6Z4         0.0131
     25 OH         46.3110    0.2040   78.1700 O.3       1 6Z4        -0.2734
     26 C15        45.9370   -1.6960   79.7810 C.3       1 6Z4         0.4317
     27 F1         45.1770   -2.8120   79.9210 F         1 6Z4        -0.1654
     28 F2         47.2330   -2.0660   79.9740 F         1 6Z4        -0.1654
     29 F3         45.6770   -0.8540   80.8280 F         1 6Z4        -0.1654
     30 C16        44.1380   -0.8650   78.0950 C.ar      1 6Z4         0.0094
     31 C17        43.6380    0.1690   78.8580 C.ar      1 6Z4        -0.0552
     32 C18        42.3750    0.6400   78.7720 C.ar      1 6Z4        -0.0541
     33 C19        41.5440    0.0930   77.8700 C.ar      1 6Z4         0.0339
     34 CL1        39.9880    0.7760   77.8150 Cl        1 6Z4        -0.0769
     35 C20        41.9980   -0.8970   77.0450 C.ar      1 6Z4        -0.0460
     36 C21        43.2810   -1.4400   77.1380 C.ar      1 6Z4        -0.0114
     37 C24        44.4740   -4.5770   75.2980 C.ar      1 6Z4        -0.0624
     38 C27        43.3890   -2.1460   74.7530 C.ar      1 6Z4        -0.0558
     39 N5         46.7370   -0.6030   75.9660 N.ar      1 6Z4        -0.2488
     40 H1         48.3479    1.8530   77.6922 H         1 6Z4         0.0475
     41 H2         46.0008   -1.8377   77.6438 H         1 6Z4         0.0925
     42 H3         44.4066   -4.0153   77.3834 H         1 6Z4         0.0613
     43 H4         44.4321   -4.9304   73.1652 H         1 6Z4         0.0609
     44 H5         43.4827   -2.6838   72.6491 H         1 6Z4         0.0615
     45 H6         47.6446   -1.6253   73.0802 H         1 6Z4         0.1823
     46 H7         46.2554   -2.0693   74.1078 H         1 6Z4         0.1823
     47 H8         50.8841    2.6267   77.3478 H         1 6Z4         0.0524
     48 H9         49.3897    3.4656   76.8095 H         1 6Z4         0.0524
     49 H10        51.4337    4.8289   76.4688 H         1 6Z4         0.0292
     50 H11        50.5673    4.4647   74.9380 H         1 6Z4         0.0292
     51 H12        52.9335    1.8673   73.8535 H         1 6Z4         0.0292
     52 H13        51.4153    2.7349   73.4424 H         1 6Z4         0.0292
     53 H14        50.9165    0.4977   74.3029 H         1 6Z4         0.0524
     54 H15        51.8449    0.8439   75.8012 H         1 6Z4         0.0524
     55 H16        53.7134    2.0102   76.1331 H         1 6Z4         0.0820
     56 H17        53.0202    3.2371   77.2470 H         1 6Z4         0.0820
     57 H18        55.4831    3.4016   76.2605 H         1 6Z4         0.2030
     58 H19        54.5982    4.7353   76.6447 H         1 6Z4         0.2030
     59 H20        54.8941    3.4206   74.0217 H         1 6Z4         0.1025
     60 H21        52.8400    5.5712   74.6959 H         1 6Z4         0.0346
     61 H22        52.8914    4.4688   73.2786 H         1 6Z4         0.0346
     62 H23        44.3035    0.6354   79.5753 H         1 6Z4         0.0558
     63 H24        42.0390    1.4431   79.4179 H         1 6Z4         0.0608
     64 H25        41.3300   -1.2792   76.2816 H         1 6Z4         0.0612
     65 H26        44.9128   -5.5450   75.5112 H         1 6Z4         0.0615
     66 H27        42.9617   -1.1746   74.5318 H         1 6Z4         0.0613
@<TRIPOS>BOND
     1    1   10 1  
     2    1   11 ar 
     3   39    1 ar 
     4    3    2 ar 
     5    2   11 ar 
     6    2   12 1  
     7    4    3 ar 
     8   25    4 1  
     9    4   39 ar 
    10    5   25 1  
    11    5   26 1  
    12   30    5 1  
    13    6    7 ar 
    14   36    6 1  
    15    6   38 ar 
    16    7   37 ar 
    17    9    8 ar 
    18   37    8 ar 
    19   38    9 ar 
    20   12   13 1  
    21   12   17 1  
    22   13   14 1  
    23   14   15 1  
    24   16   15 1  
    25   15   18 1  
    26   15   24 1  
    27   17   16 1  
    28   18   19 1  
    29   20   19 1  
    30   20   21 1  
    31   24   20 1  
    32   21   22 ar 
    33   21   23 ar 
    34   26   27 1  
    35   26   28 1  
    36   26   29 1  
    37   30   31 ar 
    38   30   36 ar 
    39   31   32 ar 
    40   32   33 ar 
    41   33   34 1  
    42   33   35 ar 
    43   35   36 ar 
    44    3   40 1  
    45    5   41 1  
    46    7   42 1  
    47    8   43 1  
    48    9   44 1  
    49   10   45 1  
    50   10   46 1  
    51   13   47 1  
    52   13   48 1  
    53   14   49 1  
    54   14   50 1  
    55   16   51 1  
    56   16   52 1  
    57   17   53 1  
    58   17   54 1  
    59   18   55 1  
    60   18   56 1  
    61   19   57 1  
    62   19   58 1  
    63   20   59 1  
    64   24   60 1  
    65   24   61 1  
    66   31   62 1  
    67   32   63 1  
    68   35   64 1  
    69   37   65 1  
    70   38   66 1  
@<TRIPOS>SUBSTRUCTURE
     1 6Z4         1

