### 
### Created by X-TOOL on Mon Sep 10 21:13:31 2018
### 

@<TRIPOS>MOLECULE
5l13_ligand
   38    40     1     0     0
SMALL
GAST_HUCK


@<TRIPOS>ATOM
      1 C2         91.6310   44.4930   40.3150 C.ar      1 6ZE         0.1229
      2 C4         91.1230   42.8460   42.1450 C.ar      1 6ZE        -0.0688
      3 C8         87.4510   43.4300   41.7970 C.2       1 6ZE         0.0913
      4 C11        93.9000   44.9270   39.6740 C.2       1 6ZE         0.2576
      5 C13        93.4880   43.2470   41.5020 C.2       1 6ZE        -0.0333
      6 C14        95.9420   43.7820   40.7330 C.3       1 6ZE        -0.0209
      7 C15        96.3570   42.8580   39.5980 C.3       1 6ZE        -0.0491
      8 C16        97.6740   42.1880   39.8940 C.3       1 6ZE        -0.0638
      9 O18        94.7210   45.5360   38.9740 O.2       1 6ZE        -0.3798
     10 O10        92.5480   45.1420   39.5300 O.3       1 6ZE        -0.2210
     11 C12        94.4380   43.9740   40.6510 C.2       1 6ZE         0.0322
     12 C17        93.9570   42.2640   42.5340 C.3       1 6ZE        -0.0326
     13 C3         92.0510   43.5090   41.3430 C.ar      1 6ZE         0.0047
     14 C5         89.7960   43.1270   41.9440 C.ar      1 6ZE        -0.0215
     15 C9         88.5000   42.6720   42.5350 C.2       1 6ZE        -0.0409
     16 C20        88.5050   41.6500   43.6470 C.3       1 6ZE        -0.0526
     17 C19        85.9580   43.5120   41.8540 C.3       1 6ZE        -0.0039
     18 O7         88.0600   44.2390   40.8800 O.3       1 6ZE        -0.2643
     19 C6         89.3660   44.1000   40.9320 C.ar      1 6ZE         0.1117
     20 C1         90.2850   44.7680   40.1410 C.ar      1 6ZE         0.0014
     21 H1         91.4389   42.1347   42.8995 H         1 6ZE         0.0513
     22 H2         96.4490   44.7527   40.6294 H         1 6ZE         0.0386
     23 H3         96.2091   43.3301   41.6997 H         1 6ZE         0.0386
     24 H4         96.4536   43.4463   38.6736 H         1 6ZE         0.0281
     25 H5         95.5846   42.0866   39.4627 H         1 6ZE         0.0281
     26 H6         97.9460   41.5283   39.0569 H         1 6ZE         0.0231
     27 H7         97.5841   41.5935   40.8151 H         1 6ZE         0.0231
     28 H8         98.4532   42.9531   40.0260 H         1 6ZE         0.0231
     29 H9         95.0548   42.1998   42.5070 H         1 6ZE         0.0392
     30 H10        93.5265   41.2746   42.3203 H         1 6ZE         0.0392
     31 H11        93.6336   42.5970   43.5313 H         1 6ZE         0.0392
     32 H12        87.4704   41.4377   43.9545 H         1 6ZE         0.0292
     33 H13        89.0689   42.0445   44.5051 H         1 6ZE         0.0292
     34 H14        88.9792   40.7234   43.2913 H         1 6ZE         0.0292
     35 H15        85.6008   44.2255   41.0968 H         1 6ZE         0.0413
     36 H16        85.6473   43.8515   42.8531 H         1 6ZE         0.0413
     37 H17        85.5283   42.5194   41.6539 H         1 6ZE         0.0413
     38 H18        89.9582   45.4904   39.4018 H         1 6ZE         0.0477
@<TRIPOS>BOND
     1    1   10 1  
     2   13    1 ar 
     3    1   20 ar 
     4    2   13 ar 
     5   14    2 ar 
     6   15    3 2  
     7    3   17 1  
     8    3   18 1  
     9    4    9 2  
    10   10    4 1  
    11   11    4 1  
    12    5   11 2  
    13    5   12 1  
    14   13    5 1  
    15    6    7 1  
    16   11    6 1  
    17    7    8 1  
    18   14   15 1  
    19   14   19 ar 
    20   15   16 1  
    21   18   19 1  
    22   19   20 ar 
    23    2   21 1  
    24    6   22 1  
    25    6   23 1  
    26    7   24 1  
    27    7   25 1  
    28    8   26 1  
    29    8   27 1  
    30    8   28 1  
    31   12   29 1  
    32   12   30 1  
    33   12   31 1  
    34   16   32 1  
    35   16   33 1  
    36   16   34 1  
    37   17   35 1  
    38   17   36 1  
    39   17   37 1  
    40   20   38 1  
@<TRIPOS>SUBSTRUCTURE
     1 6ZE         1

