### 
### Created by X-TOOL on Mon Sep 10 21:13:31 2018
### 

@<TRIPOS>MOLECULE
5l15_ligand
   46    46     1     0     0
SMALL
GAST_HUCK


@<TRIPOS>ATOM
      1 C1         23.8480  -19.8630  -65.1160 C.2       1 G39         0.0381
      2 O1A        22.7380  -19.6920  -65.6980 O.co2     1 G39        -0.5687
      3 O1B        24.4020  -20.9970  -65.0940 O.co2     1 G39        -0.5687
      4 C2         24.5240  -18.7370  -64.4020 C.3       1 G39         0.0194
      5 C3         23.9500  -17.3980  -64.2650 C.3       1 G39         0.0069
      6 C4         24.6170  -16.5960  -62.9930 C.3       1 G39         0.0033
      7 C5         25.9160  -16.5150  -63.0350 C.3       1 G39         0.1105
      8 N5         26.4450  -15.7690  -61.8420 N.am      1 G39        -0.2762
      9 C10        27.1720  -14.5690  -62.0080 C.2       1 G39         0.1734
     10 O10        27.3460  -14.1170  -63.1170 O.2       1 G39        -0.3974
     11 C11        27.7000  -13.8540  -60.7910 C.3       1 G39         0.0257
     12 C6         26.6790  -17.9710  -62.9430 C.3       1 G39         0.0888
     13 C7         26.0320  -19.0530  -63.6750 C.3       1 G39        -0.0096
     14 O7         28.1000  -17.8810  -63.2240 O.3       1 G39        -0.3708
     15 C8         28.8970  -18.1020  -62.0380 C.3       1 G39         0.0587
     16 C9         28.5290  -19.4190  -61.3390 C.3       1 G39        -0.0294
     17 C81        30.3880  -18.0430  -62.3990 C.3       1 G39        -0.0294
     18 C82        30.7790  -16.5730  -62.4790 C.3       1 G39        -0.0629
     19 C91        29.0590  -20.6090  -62.1410 C.3       1 G39        -0.0629
     20 N4         24.0180  -15.2060  -62.9450 N.4       1 G39         0.2225
     21 H1         25.0125  -18.4318  -65.3391 H         1 G39         0.0469
     22 H2         22.8653  -17.4866  -64.1051 H         1 G39         0.0341
     23 H3         24.1395  -16.8296  -65.1875 H         1 G39         0.0341
     24 H4         24.3452  -17.1329  -62.0722 H         1 G39         0.0875
     25 H5         26.2013  -16.0029  -63.9658 H         1 G39         0.0638
     26 H6         26.2808  -16.1254  -60.9222 H         1 G39         0.1857
     27 H7         28.2366  -12.9460  -61.1033 H         1 G39         0.0467
     28 H8         28.3877  -14.5171  -60.2457 H         1 G39         0.0467
     29 H9         26.8611  -13.5769  -60.1357 H         1 G39         0.0467
     30 H10        26.6083  -18.2616  -61.8845 H         1 G39         0.0622
     31 H11        26.7210  -19.3655  -64.4735 H         1 G39         0.0311
     32 H12        25.8872  -19.8844  -62.9694 H         1 G39         0.0311
     33 H13        28.6875  -17.2843  -61.3327 H         1 G39         0.0596
     34 H14        27.4346  -19.4940  -61.2581 H         1 G39         0.0287
     35 H15        28.9729  -19.4326  -60.3326 H         1 G39         0.0287
     36 H16        30.5595  -18.5311  -63.3697 H         1 G39         0.0287
     37 H17        30.9829  -18.5487  -61.6241 H         1 G39         0.0287
     38 H18        31.8452  -16.4907  -62.7367 H         1 G39         0.0231
     39 H19        30.5988  -16.0922  -61.5062 H         1 G39         0.0231
     40 H20        30.1755  -16.0746  -63.2518 H         1 G39         0.0231
     41 H21        28.7889  -21.5449  -61.6301 H         1 G39         0.0231
     42 H22        30.1537  -20.5382  -62.2220 H         1 G39         0.0231
     43 H23        28.6154  -20.5996  -63.1475 H         1 G39         0.0231
     44 H24        23.0128  -15.2743  -62.9126 H         1 G39         0.1998
     45 H25        24.2936  -14.6928  -63.7676 H         1 G39         0.1998
     46 H26        24.3488  -14.7258  -62.1228 H         1 G39         0.1998
@<TRIPOS>BOND
     1    1    2 ar 
     2    1    3 ar 
     3    1    4 1  
     4    4    5 1  
     5    4   13 1  
     6    5    6 1  
     7    6    7 1  
     8    6   20 1  
     9    7    8 1  
    10    7   12 1  
    11    8    9 am 
    12    9   10 2  
    13    9   11 1  
    14   12   13 1  
    15   12   14 1  
    16   14   15 1  
    17   15   16 1  
    18   15   17 1  
    19   16   19 1  
    20   17   18 1  
    21    4   21 1  
    22    5   22 1  
    23    5   23 1  
    24    6   24 1  
    25    7   25 1  
    26    8   26 1  
    27   11   27 1  
    28   11   28 1  
    29   11   29 1  
    30   12   30 1  
    31   13   31 1  
    32   13   32 1  
    33   15   33 1  
    34   16   34 1  
    35   16   35 1  
    36   17   36 1  
    37   17   37 1  
    38   18   38 1  
    39   18   39 1  
    40   18   40 1  
    41   19   41 1  
    42   19   42 1  
    43   19   43 1  
    44   20   44 1  
    45   20   45 1  
    46   20   46 1  
@<TRIPOS>SUBSTRUCTURE
     1 G39         1

