### 
### Created by X-TOOL on Mon Sep 10 21:13:33 2018
### 

@<TRIPOS>MOLECULE
5l17_ligand
   45    45     1     0     0
SMALL
GAST_HUCK


@<TRIPOS>ATOM
      1 C1         23.6840  -19.6470  -64.5900 C.2       1 ZMR         0.0637
      2 O1A        24.1350  -20.8230  -64.5610 O.co2     1 ZMR        -0.5663
      3 O1B        22.7020  -19.3460  -65.3150 O.co2     1 ZMR        -0.5663
      4 C2         24.3460  -18.6210  -63.7120 C.3       1 ZMR         0.1148
      5 C3         23.5140  -17.2770  -63.0500 C.3       1 ZMR         0.0237
      6 C4         24.2980  -16.3830  -62.1960 C.3       1 ZMR         0.1026
      7 C5         25.9060  -16.6580  -62.3250 C.3       1 ZMR         0.1065
      8 N5         26.5250  -15.8910  -61.1680 N.am      1 ZMR        -0.2778
      9 C10        27.1310  -14.6300  -61.3980 C.2       1 ZMR         0.1733
     10 O10        27.1660  -14.1500  -62.5190 O.2       1 ZMR        -0.3974
     11 C11        27.7320  -13.8880  -60.2240 C.3       1 ZMR         0.0257
     12 C6         26.2620  -17.8930  -62.2670 C.3       1 ZMR         0.1158
     13 O6         25.6720  -18.7840  -63.3810 O.3       1 ZMR        -0.3542
     14 C7         27.8240  -18.0000  -62.4570 C.3       1 ZMR         0.1116
     15 O7         28.1260  -17.5700  -63.7300 O.3       1 ZMR        -0.3865
     16 C8         28.2420  -19.4260  -62.3320 C.3       1 ZMR         0.1065
     17 O8         27.9380  -19.9230  -61.0350 O.3       1 ZMR        -0.3869
     18 C9         29.7330  -19.5460  -62.6340 C.3       1 ZMR         0.0727
     19 O9         30.5140  -19.1390  -61.5330 O.3       1 ZMR        -0.3924
     20 NE         24.0130  -14.9690  -62.4560 N.pl3     1 ZMR        -0.2671
     21 CZ         23.8800  -14.0960  -61.4880 C.cat     1 ZMR         0.2885
     22 NH1        24.0160  -14.4780  -60.1270 N.pl3     1 ZMR        -0.2849
     23 NH2        23.6030  -12.7480  -61.8170 N.pl3     1 ZMR        -0.2849
     24 H1         24.6144  -18.0286  -64.5991 H         1 ZMR         0.0767
     25 H2         22.6768  -17.6637  -62.4504 H         1 ZMR         0.0346
     26 H3         23.1211  -16.6811  -63.8870 H         1 ZMR         0.0346
     27 H4         24.0076  -16.5934  -61.1561 H         1 ZMR         0.0752
     28 H5         26.2612  -16.2481  -63.2820 H         1 ZMR         0.0621
     29 H6         26.5049  -16.2755  -60.2451 H         1 ZMR         0.1856
     30 H7         28.1575  -12.9350  -60.5715 H         1 ZMR         0.0467
     31 H8         28.5255  -14.5002  -59.7706 H         1 ZMR         0.0467
     32 H9         26.9499  -13.6893  -59.4765 H         1 ZMR         0.0467
     33 H10        25.9671  -18.2935  -61.2859 H         1 ZMR         0.0649
     34 H11        28.3433  -17.3841  -61.7080 H         1 ZMR         0.0647
     35 H12        27.6788  -18.1194  -64.3630 H         1 ZMR         0.2100
     36 H13        27.6861  -20.0225  -63.0704 H         1 ZMR         0.0643
     37 H14        28.3991  -19.4077  -60.3836 H         1 ZMR         0.2100
     38 H15        29.9754  -18.9114  -63.4991 H         1 ZMR         0.0584
     39 H16        29.9672  -20.5943  -62.8711 H         1 ZMR         0.0584
     40 H17        30.3122  -19.6866  -60.7834 H         1 ZMR         0.2095
     41 H18        23.9141  -14.6514  -63.4308 H         1 ZMR         0.2645
     42 H19        23.9075  -13.7755  -59.3816 H         1 ZMR         0.2615
     43 H20        24.2231  -15.4576  -59.8853 H         1 ZMR         0.2615
     44 H21        23.5039  -12.4685  -62.8034 H         1 ZMR         0.2615
     45 H22        23.5004  -12.0462  -61.0701 H         1 ZMR         0.2615
@<TRIPOS>BOND
     1    1    2 ar 
     2    1    3 ar 
     3    1    4 1  
     4    4    5 1  
     5    4   13 1  
     6    5    6 1  
     7    6    7 1  
     8    6   20 1  
     9    7    8 1  
    10    7   12 1  
    11    8    9 am 
    12    9   10 2  
    13    9   11 1  
    14   12   13 1  
    15   12   14 1  
    16   14   15 1  
    17   14   16 1  
    18   16   17 1  
    19   16   18 1  
    20   18   19 1  
    21   20   21 ar 
    22   21   22 ar 
    23   21   23 ar 
    24    4   24 1  
    25    5   25 1  
    26    5   26 1  
    27    6   27 1  
    28    7   28 1  
    29    8   29 1  
    30   11   30 1  
    31   11   31 1  
    32   11   32 1  
    33   12   33 1  
    34   14   34 1  
    35   15   35 1  
    36   16   36 1  
    37   17   37 1  
    38   18   38 1  
    39   18   39 1  
    40   19   40 1  
    41   20   41 1  
    42   22   42 1  
    43   22   43 1  
    44   23   44 1  
    45   23   45 1  
@<TRIPOS>SUBSTRUCTURE
     1 ZMR         1

