### 
### Created by X-TOOL on Mon Sep 10 21:13:34 2018
### 

@<TRIPOS>MOLECULE
5l26_ligand
   29    30     1     0     0
SMALL
GAST_HUCK


@<TRIPOS>ATOM
      1 N1        -91.1720   66.9350    7.7180 N.am      1 URI        -0.1592
      2 C2        -90.9760   66.1900    8.8680 C.2       1 URI         0.3328
      3 N3        -91.3070   64.8610    8.7620 N.am      1 URI        -0.1865
      4 C4        -91.8080   64.2150    7.6500 C.2       1 URI         0.1822
      5 C5        -91.9860   65.0530    6.5050 C.2       1 URI         0.0062
      6 C6        -91.6720   66.3500    6.5780 C.2       1 URI         0.0591
      7 O2        -90.5390   66.6620    9.9030 O.2       1 URI        -0.3815
      8 O4        -92.0590   63.0100    7.7100 O.2       1 URI        -0.4124
      9 C1'       -90.8420   68.3790    7.7550 C.3       1 URI         0.2058
     10 C2'       -89.3360   68.6350    7.6990 C.3       1 URI         0.1387
     11 C3'       -89.1260   68.8690    6.2080 C.3       1 URI         0.1145
     12 C4'       -90.3930   69.6080    5.8080 C.3       1 URI         0.1135
     13 O2'       -89.0580   69.8160    8.4380 O.3       1 URI        -0.3836
     14 O3'       -87.9450   69.5900    5.9040 O.3       1 URI        -0.3864
     15 O4'       -91.4260   69.0050    6.6310 O.3       1 URI        -0.3367
     16 C5'       -90.7780   69.5160    4.3530 C.3       1 URI         0.0730
     17 O5'       -90.7790   68.1700    3.8990 O.3       1 URI        -0.3924
     18 H1        -91.1701   64.3009    9.5791 H         1 URI         0.2259
     19 H2        -92.3757   64.6361    5.5775 H         1 URI         0.0258
     20 H3        -91.8185   66.9713    5.6957 H         1 URI         0.1178
     21 H4        -91.2480   68.8149    8.6797 H         1 URI         0.0997
     22 H5        -88.7447   67.7874    8.0757 H         1 URI         0.0676
     23 H6        -89.0736   67.9035    5.6836 H         1 URI         0.0648
     24 H7        -90.2800   70.6728    6.0597 H         1 URI         0.0647
     25 H8        -88.1556   70.0747    8.2918 H         1 URI         0.2101
     26 H9        -87.9539   70.4197    6.3666 H         1 URI         0.2100
     27 H10       -90.0579   70.0942    3.7554 H         1 URI         0.0584
     28 H11       -91.7854   69.9380    4.2224 H         1 URI         0.0584
     29 H12       -89.9101   67.8007    4.0047 H         1 URI         0.2095
@<TRIPOS>BOND
     1    1    2 am 
     2    1    6 1  
     3    1    9 1  
     4    2    3 am 
     5    2    7 2  
     6    3    4 am 
     7    4    5 1  
     8    4    8 2  
     9    5    6 2  
    10    9   10 1  
    11    9   15 1  
    12   10   11 1  
    13   10   13 1  
    14   11   12 1  
    15   11   14 1  
    16   12   15 1  
    17   12   16 1  
    18   16   17 1  
    19    3   18 1  
    20    5   19 1  
    21    6   20 1  
    22    9   21 1  
    23   10   22 1  
    24   11   23 1  
    25   12   24 1  
    26   13   25 1  
    27   14   26 1  
    28   16   27 1  
    29   16   28 1  
    30   17   29 1  
@<TRIPOS>SUBSTRUCTURE
     1 URI         1

