### 
### Created by X-TOOL on Mon Sep 10 21:13:30 2018
### 

@<TRIPOS>MOLECULE
5l2i_ligand
   63    67     1     0     0
SMALL
GAST_HUCK


@<TRIPOS>ATOM
      1 O01        16.4730   25.5570    3.3260 O.2       1 LQQ        -0.4005
      2 C02        15.5050   25.2870    4.0400 C.2       1 LQQ         0.1114
      3 C01        14.3430   24.5330    3.4710 C.3       1 LQQ         0.0042
      4 C03        15.4740   25.7210    5.4450 C.2       1 LQQ         0.0921
      5 C04        16.3550   25.2010    6.3500 C.2       1 LQQ        -0.0014
      6 C05        17.2580   24.0690    5.9560 C.3       1 LQQ        -0.0182
      7 C06        16.3890   25.6910    7.7230 C.ar      1 LQQ         0.0674
      8 C07        17.3510   25.4040    8.6960 C.ar      1 LQQ         0.0222
      9 N01        17.4120   25.9800    9.8990 N.ar      1 LQQ        -0.2581
     10 C08        16.4240   26.8420   10.1830 C.ar      1 LQQ         0.2007
     11 N02        15.4320   27.2180    9.3550 N.ar      1 LQQ        -0.2281
     12 C09        15.4460   26.6610    8.1290 C.ar      1 LQQ         0.1694
     13 N03        14.5400   27.1640    7.2000 N.am      1 LQQ        -0.1934
     14 C10        13.6340   28.2790    7.5850 C.3       1 LQQ         0.0762
     15 C11        14.0360   29.6370    7.0060 C.3       1 LQQ        -0.0220
     16 C12        12.7180   30.3190    6.7470 C.3       1 LQQ        -0.0502
     17 C13        11.7940   29.2310    6.3530 C.3       1 LQQ        -0.0502
     18 C14        12.1620   28.0550    7.2290 C.3       1 LQQ        -0.0220
     19 C15        14.5170   26.7310    5.8360 C.2       1 LQQ         0.2186
     20 O02        13.7290   27.2180    5.0330 O.2       1 LQQ        -0.4049
     21 N04        16.4690   27.3160   11.4640 N.pl3     1 LQQ        -0.2329
     22 C16        15.6010   28.1320   12.1550 C.ar      1 LQQ         0.1282
     23 N05        14.9340   27.4670   13.1110 N.ar      1 LQQ        -0.2923
     24 C17        14.0410   28.1470   13.8420 C.ar      1 LQQ         0.0159
     25 C18        13.7620   29.4980   13.6590 C.ar      1 LQQ         0.0573
     26 C19        14.4780   30.1740   12.6760 C.ar      1 LQQ        -0.0325
     27 C20        15.4090   29.4980   11.9130 C.ar      1 LQQ        -0.0195
     28 N06        12.7440   30.1180   14.3880 N.pl3     1 LQQ        -0.2984
     29 C21        12.9120   31.5260   14.7600 C.3       1 LQQ         0.0663
     30 C22        11.9250   31.9060   15.8380 C.3       1 LQQ        -0.0136
     31 N07        10.5390   31.6160   15.3850 N.4       1 LQQ         0.2298
     32 C23        10.3810   30.1800   15.0280 C.3       1 LQQ        -0.0136
     33 C24        11.3780   29.7950   13.9600 C.3       1 LQQ         0.0663
     34 H1         13.5825   24.3873    4.2523 H         1 LQQ         0.0439
     35 H2         14.6851   23.5537    3.1051 H         1 LQQ         0.0439
     36 H3         13.9078   25.1042    2.6377 H         1 LQQ         0.0439
     37 H4         17.1033   23.8293    4.8936 H         1 LQQ         0.0459
     38 H5         17.0268   23.1852    6.5687 H         1 LQQ         0.0459
     39 H6         18.3058   24.3627    6.1168 H         1 LQQ         0.0459
     40 H7         18.1019   24.6598    8.4564 H         1 LQQ         0.0932
     41 H8         13.6976   28.3563    8.6804 H         1 LQQ         0.0655
     42 H9         14.6035   29.5127    6.0720 H         1 LQQ         0.0295
     43 H10        14.6382   30.2084    7.7277 H         1 LQQ         0.0295
     44 H11        12.8165   31.0552    5.9356 H         1 LQQ         0.0266
     45 H12        12.3576   30.8218    7.6566 H         1 LQQ         0.0266
     46 H13        11.9289   28.9771    5.2913 H         1 LQQ         0.0266
     47 H14        10.7501   29.5300    6.5288 H         1 LQQ         0.0266
     48 H15        11.5416   28.0391    8.1372 H         1 LQQ         0.0295
     49 H16        12.0351   27.1093    6.6817 H         1 LQQ         0.0295
     50 H17        17.2914   27.0114   12.0042 H         1 LQQ         0.2211
     51 H18        13.5055   27.6149   14.6200 H         1 LQQ         0.0681
     52 H19        14.3049   31.2310   12.5093 H         1 LQQ         0.0612
     53 H20        15.9771   30.0116   11.1459 H         1 LQQ         0.0605
     54 H21        12.7435   32.1575   13.8752 H         1 LQQ         0.0565
     55 H22        13.9348   31.6830   15.1332 H         1 LQQ         0.0565
     56 H23        12.0195   32.9800   16.0560 H         1 LQQ         0.0833
     57 H24        12.1391   31.3268   16.7483 H         1 LQQ         0.0833
     58 H25        10.3321   32.1809   14.5762 H         1 LQQ         0.2015
     59 H26         9.8958   31.8433   16.1271 H         1 LQQ         0.2015
     60 H27         9.3615   30.0091   14.6518 H         1 LQQ         0.0833
     61 H28        10.5501   29.5625   15.9224 H         1 LQQ         0.0833
     62 H29        11.3048   28.7140   13.7700 H         1 LQQ         0.0565
     63 H30        11.1488   30.3461   13.0360 H         1 LQQ         0.0565
@<TRIPOS>BOND
     1    1    2 2  
     2    2    3 1  
     3    2    4 1  
     4    4    5 2  
     5    4   19 1  
     6    5    6 1  
     7    5    7 1  
     8    7    8 ar 
     9    7   12 ar 
    10    8    9 ar 
    11    9   10 ar 
    12   10   11 ar 
    13   10   21 1  
    14   11   12 ar 
    15   12   13 1  
    16   13   14 1  
    17   13   19 am 
    18   14   15 1  
    19   14   18 1  
    20   15   16 1  
    21   16   17 1  
    22   17   18 1  
    23   19   20 2  
    24   21   22 1  
    25   22   23 ar 
    26   22   27 ar 
    27   23   24 ar 
    28   24   25 ar 
    29   25   26 ar 
    30   25   28 1  
    31   26   27 ar 
    32   28   29 1  
    33   28   33 1  
    34   29   30 1  
    35   30   31 1  
    36   31   32 1  
    37   32   33 1  
    38    3   34 1  
    39    3   35 1  
    40    3   36 1  
    41    6   37 1  
    42    6   38 1  
    43    6   39 1  
    44    8   40 1  
    45   14   41 1  
    46   15   42 1  
    47   15   43 1  
    48   16   44 1  
    49   16   45 1  
    50   17   46 1  
    51   17   47 1  
    52   18   48 1  
    53   18   49 1  
    54   21   50 1  
    55   24   51 1  
    56   26   52 1  
    57   27   53 1  
    58   29   54 1  
    59   29   55 1  
    60   30   56 1  
    61   30   57 1  
    62   31   58 1  
    63   31   59 1  
    64   32   60 1  
    65   32   61 1  
    66   33   62 1  
    67   33   63 1  
@<TRIPOS>SUBSTRUCTURE
     1 LQQ         1

