### 
### Created by X-TOOL on Mon Sep 10 21:13:34 2018
### 

@<TRIPOS>MOLECULE
5l2m_ligand
   52    55     1     0     0
SMALL
GAST_HUCK


@<TRIPOS>ATOM
      1 C11        33.5360  -16.0740   15.4040 C.2       1 6ZY         0.2577
      2 C2         31.6990  -16.4000   13.8920 C.ar      1 6ZY         0.1229
      3 C3         32.4630  -17.3990   13.0640 C.ar      1 6ZY         0.0047
      4 C5         30.5520  -17.5980   11.6590 C.ar      1 6ZY        -0.0215
      5 C9         29.5590  -17.9640   10.6110 C.2       1 6ZY        -0.0409
      6 C8         28.3330  -17.1770   10.9180 C.2       1 6ZY         0.0913
      7 C6         29.8050  -16.6230   12.4830 C.ar      1 6ZY         0.1117
      8 C1         30.3930  -16.0350   13.5810 C.ar      1 6ZY         0.0014
      9 O21        38.6770  -17.4190   13.7850 O.2       1 6ZY        -0.3967
     10 C20        38.1760  -16.8240   14.7230 C.2       1 6ZY         0.1800
     11 N22        38.8280  -16.5930   15.8620 N.am      1 6ZY        -0.2731
     12 C27        40.1690  -17.0980   16.0880 C.3       1 6ZY         0.0339
     13 C26        40.9830  -15.8510   15.7930 C.3       1 6ZY        -0.0325
     14 C25        40.6690  -14.7420   16.8140 C.3       1 6ZY        -0.0494
     15 C24        39.1740  -14.4690   16.8980 C.3       1 6ZY        -0.0325
     16 C23        38.3480  -15.7540   16.9790 C.3       1 6ZY         0.0339
     17 C19        36.7660  -16.3130   14.5460 C.3       1 6ZY         0.0441
     18 C18        35.8060  -17.3170   15.1820 C.3       1 6ZY        -0.0037
     19 C12        34.4030  -17.0460   14.6730 C.2       1 6ZY         0.0345
     20 O17        33.9620  -15.4870   16.4140 O.2       1 6ZY        -0.3797
     21 O10        32.2610  -15.8060   14.9790 O.3       1 6ZY        -0.2210
     22 C13        33.8620  -17.7350   13.4750 C.2       1 6ZY        -0.0332
     23 C16        34.7250  -18.7420   12.7250 C.3       1 6ZY        -0.0326
     24 C4         31.8510  -17.9710   11.9530 C.ar      1 6ZY        -0.0688
     25 C15        29.9200  -18.9630    9.5440 C.3       1 6ZY        -0.0526
     26 C14        26.9960  -17.0920   10.2310 C.3       1 6ZY        -0.0039
     27 O7         28.5840  -16.3960   12.0290 O.3       1 6ZY        -0.2643
     28 H1         29.8557  -15.3114   14.1832 H         1 6ZY         0.0477
     29 H2         40.4166  -17.9180   15.3979 H         1 6ZY         0.0522
     30 H3         40.3064  -17.4375   17.1252 H         1 6ZY         0.0522
     31 H4         40.7390  -15.4911   14.7826 H         1 6ZY         0.0285
     32 H5         42.0537  -16.0978   15.8458 H         1 6ZY         0.0285
     33 H6         41.1844  -13.8192   16.5094 H         1 6ZY         0.0267
     34 H7         41.0315  -15.0547   17.8044 H         1 6ZY         0.0267
     35 H8         38.8669  -13.9080   16.0030 H         1 6ZY         0.0285
     36 H9         38.9755  -13.8648   17.7955 H         1 6ZY         0.0285
     37 H10        38.5151  -16.2601   17.9413 H         1 6ZY         0.0522
     38 H11        37.2769  -15.5322   16.8625 H         1 6ZY         0.0522
     39 H12        36.5398  -16.2102   13.4744 H         1 6ZY         0.0521
     40 H13        36.6607  -15.3351   15.0384 H         1 6ZY         0.0521
     41 H14        35.8292  -17.2078   16.2763 H         1 6ZY         0.0411
     42 H15        36.1067  -18.3393   14.9090 H         1 6ZY         0.0411
     43 H16        34.1597  -19.1461   11.8723 H         1 6ZY         0.0392
     44 H17        35.0033  -19.5628   13.4024 H         1 6ZY         0.0392
     45 H18        35.6350  -18.2442   12.3588 H         1 6ZY         0.0392
     46 H19        32.3777  -18.6891   11.3350 H         1 6ZY         0.0513
     47 H20        30.9547  -19.3041    9.6961 H         1 6ZY         0.0292
     48 H21        29.8314  -18.4908    8.5545 H         1 6ZY         0.0292
     49 H22        29.2378  -19.8240    9.6019 H         1 6ZY         0.0292
     50 H23        26.3487  -16.3879   10.7744 H         1 6ZY         0.0413
     51 H24        26.5264  -18.0866   10.2182 H         1 6ZY         0.0413
     52 H25        27.1360  -16.7393    9.1986 H         1 6ZY         0.0413
@<TRIPOS>BOND
     1   19    1 1  
     2    1   20 2  
     3    1   21 1  
     4    2    3 ar 
     5    2    8 ar 
     6   21    2 1  
     7    3   22 1  
     8    3   24 ar 
     9    4    5 1  
    10    7    4 ar 
    11   24    4 ar 
    12    6    5 2  
    13    5   25 1  
    14    6   26 1  
    15   27    6 1  
    16    8    7 ar 
    17    7   27 1  
    18   10    9 2  
    19   10   11 am 
    20   17   10 1  
    21   11   12 1  
    22   11   16 1  
    23   12   13 1  
    24   13   14 1  
    25   15   14 1  
    26   16   15 1  
    27   18   17 1  
    28   18   19 1  
    29   19   22 2  
    30   22   23 1  
    31    8   28 1  
    32   12   29 1  
    33   12   30 1  
    34   13   31 1  
    35   13   32 1  
    36   14   33 1  
    37   14   34 1  
    38   15   35 1  
    39   15   36 1  
    40   16   37 1  
    41   16   38 1  
    42   17   39 1  
    43   17   40 1  
    44   18   41 1  
    45   18   42 1  
    46   23   43 1  
    47   23   44 1  
    48   23   45 1  
    49   24   46 1  
    50   25   47 1  
    51   25   48 1  
    52   25   49 1  
    53   26   50 1  
    54   26   51 1  
    55   26   52 1  
@<TRIPOS>SUBSTRUCTURE
     1 6ZY         1

