### 
### Created by X-TOOL on Mon Sep 10 21:13:34 2018
### 

@<TRIPOS>MOLECULE
5l2n_ligand
   40    42     1     0     0
SMALL
GAST_HUCK


@<TRIPOS>ATOM
      1 C2         35.7680  -16.3160   16.3680 C.ar      1 6ZU         0.1294
      2 C4         36.0530  -17.8210   14.4060 C.ar      1 6ZU        -0.0648
      3 C5         34.6590  -17.8050   14.2390 C.ar      1 6ZU        -0.0365
      4 C6         33.8490  -17.0450   15.1100 C.ar      1 6ZU         0.1194
      5 O17        37.9150  -14.8230   18.6910 O.2       1 6ZU        -0.3815
      6 C8         37.5820  -15.5040   17.7040 C.2       1 6ZU         0.2591
      7 O7         36.2660  -15.5960   17.4120 O.3       1 6ZU        -0.2164
      8 C9         38.5850  -16.2400   16.8700 C.2       1 6ZU         0.0415
      9 C18        40.0360  -16.1560   17.2540 C.3       1 6ZU         0.0118
     10 C19        40.8690  -15.1650   16.4940 C.ar      1 6ZU        -0.0356
     11 C24        40.6260  -13.8010   16.6190 C.ar      1 6ZU        -0.0589
     12 C23        41.4350  -12.9170   15.9140 C.ar      1 6ZU        -0.0684
     13 C22        42.4760  -13.3820   15.1030 C.ar      1 6ZU        -0.0687
     14 C21        42.7180  -14.7450   14.9920 C.ar      1 6ZU        -0.0684
     15 C20        41.9140  -15.6330   15.6940 C.ar      1 6ZU        -0.0589
     16 C10        38.1100  -17.0520   15.7170 C.2       1 6ZU        -0.0316
     17 C16        39.0880  -17.8140   14.8470 C.3       1 6ZU        -0.0324
     18 C3         36.6500  -17.0930   15.4470 C.ar      1 6ZU         0.0113
     19 C1         34.3990  -16.3320   16.1650 C.ar      1 6ZU         0.0069
     20 O11        32.4800  -17.0390   14.9930 O.3       1 6ZU        -0.1704
     21 S12        31.6440  -15.9910   14.2490 S.o2      1 6ZU         0.0980
     22 O13        30.2690  -16.4470   14.2230 O.2       1 6ZU        -0.1434
     23 O14        32.1120  -15.9320   12.8620 O.2       1 6ZU        -0.1434
     24 C15        31.9200  -14.6340   15.1530 C.3       1 6ZU         0.0858
     25 H1         36.6710  -18.3982   13.7278 H         1 6ZU         0.0582
     26 H2         34.2037  -18.3777   13.4392 H         1 6ZU         0.0483
     27 H3         40.4802  -17.1512   17.1050 H         1 6ZU         0.0542
     28 H4         40.0857  -15.8880   18.3197 H         1 6ZU         0.0542
     29 H5         39.8247  -13.4359   17.2512 H         1 6ZU         0.0559
     30 H6         41.2564  -11.8508   15.9939 H         1 6ZU         0.0599
     31 H7         43.0950  -12.6768   14.5601 H         1 6ZU         0.0559
     32 H8         43.5237  -15.1107   14.3658 H         1 6ZU         0.0599
     33 H9         42.0989  -16.6986   15.6206 H         1 6ZU         0.0559
     34 H10        40.1113  -17.6504   15.2158 H         1 6ZU         0.0393
     35 H11        39.0108  -17.4572   13.8093 H         1 6ZU         0.0393
     36 H12        38.8522  -18.8878   14.8841 H         1 6ZU         0.0393
     37 H13        33.7503  -15.7819   16.8371 H         1 6ZU         0.0480
     38 H14        31.3673  -13.7868   14.7208 H         1 6ZU         0.0493
     39 H15        32.9963  -14.4070   15.1545 H         1 6ZU         0.0493
     40 H16        31.5799  -14.8054   16.1850 H         1 6ZU         0.0493
@<TRIPOS>BOND
     1    7    1 1  
     2    1   18 ar 
     3    1   19 ar 
     4    2    3 ar 
     5   18    2 ar 
     6    4    3 ar 
     7   19    4 ar 
     8    4   20 1  
     9    6    5 2  
    10    6    7 1  
    11    6    8 1  
    12    8    9 1  
    13    8   16 2  
    14    9   10 1  
    15   10   11 ar 
    16   10   15 ar 
    17   11   12 ar 
    18   12   13 ar 
    19   13   14 ar 
    20   14   15 ar 
    21   16   17 1  
    22   16   18 1  
    23   20   21 1  
    24   21   22 2  
    25   21   23 2  
    26   21   24 1  
    27    2   25 1  
    28    3   26 1  
    29    9   27 1  
    30    9   28 1  
    31   11   29 1  
    32   12   30 1  
    33   13   31 1  
    34   14   32 1  
    35   15   33 1  
    36   17   34 1  
    37   17   35 1  
    38   17   36 1  
    39   19   37 1  
    40   24   38 1  
    41   24   39 1  
    42   24   40 1  
@<TRIPOS>SUBSTRUCTURE
     1 6ZU         1

