### 
### Created by X-TOOL on Mon Sep 10 21:13:31 2018
### 

@<TRIPOS>MOLECULE
5l2o_ligand
   34    35     1     0     0
SMALL
GAST_HUCK


@<TRIPOS>ATOM
      1 O17         7.4650  -11.3190  -32.1130 O.2       1 6ZW        -0.3885
      2 C8          7.3730  -12.5310  -32.3770 C.2       1 6ZW         0.2438
      3 O7          6.6470  -12.8710  -33.4730 O.3       1 6ZW        -0.2175
      4 C2          6.5310  -14.1740  -33.8390 C.ar      1 6ZW         0.1320
      5 C9          7.9950  -13.4790  -31.5740 C.2       1 6ZW         0.0054
      6 C10         7.9210  -14.8410  -31.8520 C.2       1 6ZW        -0.0329
      7 C16         8.6210  -15.8500  -30.9790 C.3       1 6ZW        -0.0257
      8 C3          7.1560  -15.2410  -33.0590 C.ar      1 6ZW         0.0210
      9 C4          7.0020  -16.5490  -33.4830 C.ar      1 6ZW        -0.0616
     10 C5          6.2580  -16.8150  -34.6310 C.ar      1 6ZW        -0.0455
     11 C6          5.6400  -15.7980  -35.3680 C.ar      1 6ZW         0.0401
     12 C1          5.8040  -14.4810  -34.9560 C.ar      1 6ZW        -0.0027
     13 N11         4.8410  -16.0800  -36.5100 N.pl3     1 6ZW        -0.3074
     14 C14         4.5560  -17.4800  -36.8960 C.3       1 6ZW         0.0253
     15 C15         3.7610  -18.2930  -35.8720 C.3       1 6ZW        -0.0451
     16 C12         4.2890  -15.0040  -37.3510 C.3       1 6ZW         0.0253
     17 C13         2.9490  -14.4680  -36.8770 C.3       1 6ZW        -0.0451
     18 H1          8.5566  -13.1470  -30.7020 H         1 6ZW         0.0400
     19 H2          9.1206  -15.3314  -30.1474 H         1 6ZW         0.0431
     20 H3          9.3692  -16.3937  -31.5744 H         1 6ZW         0.0431
     21 H4          7.8843  -16.5615  -30.5777 H         1 6ZW         0.0431
     22 H5          7.4566  -17.3606  -32.9265 H         1 6ZW         0.0613
     23 H6          6.1547  -17.8415  -34.9636 H         1 6ZW         0.0471
     24 H7          5.3476  -13.6828  -35.5302 H         1 6ZW         0.0460
     25 H8          5.5170  -17.9890  -37.0615 H         1 6ZW         0.0515
     26 H9          3.9833  -17.4635  -37.8350 H         1 6ZW         0.0515
     27 H10         3.6048  -19.3124  -36.2547 H         1 6ZW         0.0249
     28 H11         2.7865  -17.8128  -35.6994 H         1 6ZW         0.0249
     29 H12         4.3202  -18.3383  -34.9259 H         1 6ZW         0.0249
     30 H13         4.1628  -15.3943  -38.3716 H         1 6ZW         0.0515
     31 H14         5.0085  -14.1720  -37.3629 H         1 6ZW         0.0515
     32 H15         2.6109  -13.6725  -37.5574 H         1 6ZW         0.0249
     33 H16         3.0557  -14.0605  -35.8609 H         1 6ZW         0.0249
     34 H17         2.2100  -15.2828  -36.8696 H         1 6ZW         0.0249
@<TRIPOS>BOND
     1    1    2 2  
     2    2    3 1  
     3    2    5 1  
     4    3    4 1  
     5    4    8 ar 
     6    4   12 ar 
     7    5    6 2  
     8    6    7 1  
     9    6    8 1  
    10    8    9 ar 
    11    9   10 ar 
    12   10   11 ar 
    13   11   12 ar 
    14   11   13 1  
    15   13   14 1  
    16   13   16 1  
    17   14   15 1  
    18   16   17 1  
    19    5   18 1  
    20    7   19 1  
    21    7   20 1  
    22    7   21 1  
    23    9   22 1  
    24   10   23 1  
    25   12   24 1  
    26   14   25 1  
    27   14   26 1  
    28   15   27 1  
    29   15   28 1  
    30   15   29 1  
    31   16   30 1  
    32   16   31 1  
    33   17   32 1  
    34   17   33 1  
    35   17   34 1  
@<TRIPOS>SUBSTRUCTURE
     1 6ZW         1

