### 
### Created by X-TOOL on Mon Sep 10 21:13:29 2018
### 

@<TRIPOS>MOLECULE
5l2s_ligand
   71    75     1     0     0
SMALL
GAST_HUCK


@<TRIPOS>ATOM
      1 C1         19.2490   42.9260  -12.9900 C.3       1 6ZV        -0.0344
      2 C2         24.4310   34.5480   -9.4690 C.ar      1 6ZV         0.2063
      3 C3         19.8810   44.2140  -12.5500 C.3       1 6ZV        -0.0245
      4 C4         24.8620   34.8760   -7.2260 C.ar      1 6ZV         0.0812
      5 C5         25.5460   33.6100   -7.1950 C.ar      1 6ZV         0.1753
      6 C6         25.6170   32.9180   -8.4120 C.ar      1 6ZV         0.0468
      7 N2         20.0960   42.1380  -13.9190 N.4       1 6ZV         0.2425
      8 C10        20.8510   37.0470  -10.4240 C.ar      1 6ZV        -0.0448
      9 C          21.8890   36.2430   -9.9950 C.ar      1 6ZV        -0.0159
     10 C17        23.7500   36.8090   -6.0860 C.ar      1 6ZV        -0.0327
     11 C21        25.4910   35.6540   -4.9140 C.ar      1 6ZV        -0.0323
     12 C12        21.6060   36.7890  -12.6460 C.ar      1 6ZV         0.0044
     13 C16        24.7080   35.7930   -6.0630 C.ar      1 6ZV        -0.0124
     14 C11        20.6920   37.3470  -11.7680 C.ar      1 6ZV         0.0170
     15 C19        24.3660   37.5040   -3.8120 C.ar      1 6ZV         0.0594
     16 C18        23.6100   37.6380   -4.9780 C.ar      1 6ZV         0.0846
     17 C20        25.3010   36.4720   -3.8280 C.ar      1 6ZV         0.1332
     18 C8         22.7710   35.7330  -10.9620 C.ar      1 6ZV         0.1314
     19 C23        23.0680   39.1690   -3.4650 C.2       1 6ZV         0.1208
     20 C31        18.8700   40.0110  -13.7420 C.3       1 6ZV         0.0108
     21 C35        20.7660   40.3710  -12.3310 C.3       1 6ZV         0.0108
     22 C32        19.3260   41.1260  -14.6600 C.3       1 6ZV         0.0095
     23 C34        21.2320   41.5020  -13.2350 C.3       1 6ZV         0.0095
     24 C25        22.3720   40.3150   -2.8310 C.3       1 6ZV         0.0186
     25 C27        20.8070   38.6950   -6.2720 C.3       1 6ZV        -0.0357
     26 C28        22.8800   40.0140   -6.8670 C.3       1 6ZV        -0.0357
     27 C14        19.5770   38.2530  -12.2450 C.3       1 6ZV         0.0032
     28 C26        21.9830   39.5020   -5.7560 C.3       1 6ZV         0.0624
     29 N          22.6230   35.9960  -12.2740 N.ar      1 6ZV        -0.2873
     30 N1         25.0730   33.3720   -9.5500 N.ar      1 6ZV        -0.2554
     31 N24        24.0090   38.4690   -2.8870 N.2       1 6ZV        -0.3141
     32 N3         24.3030   35.3190   -8.3710 N.ar      1 6ZV        -0.2513
     33 N22        22.7560   38.7370   -4.7420 N.pl3     1 6ZV        -0.2299
     34 N30        20.0190   39.3630  -13.1020 N.4       1 6ZV         0.2541
     35 N7         23.8950   34.9690  -10.6560 N.pl3     1 6ZV        -0.2324
     36 F29        26.0330   36.2590   -2.7130 F         1 6ZV        -0.1893
     37 F15        26.0340   33.0150   -6.0810 F         1 6ZV        -0.1775
     38 H1         18.3005   43.1587  -13.4962 H         1 6ZV         0.0812
     39 H2         19.0482   42.3142  -12.0982 H         1 6ZV         0.0812
     40 H3         19.1997   44.7420  -11.8666 H         1 6ZV         0.0281
     41 H4         20.0794   44.8443  -13.4294 H         1 6ZV         0.0281
     42 H5         20.8271   43.9998  -12.0314 H         1 6ZV         0.0281
     43 H6         26.1381   31.9677   -8.4340 H         1 6ZV         0.0873
     44 H7         20.4729   42.7848  -14.5940 H         1 6ZV         0.2037
     45 H8         20.1514   37.4488   -9.7000 H         1 6ZV         0.0650
     46 H9         22.0190   36.0126   -8.9438 H         1 6ZV         0.0615
     47 H10        23.1221   36.9500   -6.9583 H         1 6ZV         0.0543
     48 H11        26.2590   34.8898   -4.8797 H         1 6ZV         0.0525
     49 H12        21.4928   37.0067  -13.7019 H         1 6ZV         0.0725
     50 H13        18.3153   39.2642  -14.3290 H         1 6ZV         0.0868
     51 H14        18.2126   40.4289  -12.9654 H         1 6ZV         0.0868
     52 H15        20.1138   40.7814  -11.5460 H         1 6ZV         0.0868
     53 H16        21.6425   39.8945  -11.8676 H         1 6ZV         0.0868
     54 H17        19.9590   40.7023  -15.4535 H         1 6ZV         0.0868
     55 H18        18.4439   41.6041  -15.1107 H         1 6ZV         0.0868
     56 H19        21.7527   42.2562  -12.6267 H         1 6ZV         0.0868
     57 H20        21.9237   41.0973  -13.9885 H         1 6ZV         0.0868
     58 H21        22.7798   40.4793   -1.8227 H         1 6ZV         0.0498
     59 H22        21.2961   40.0971   -2.7603 H         1 6ZV         0.0498
     60 H23        22.5239   41.2186   -3.4397 H         1 6ZV         0.0498
     61 H24        20.2561   39.2860   -7.0185 H         1 6ZV         0.0258
     62 H25        20.1379   38.4458   -5.4352 H         1 6ZV         0.0258
     63 H26        21.1741   37.7680   -6.7366 H         1 6ZV         0.0258
     64 H27        23.7107   40.5889   -6.4319 H         1 6ZV         0.0258
     65 H28        22.2981   40.6619   -7.5389 H         1 6ZV         0.0258
     66 H29        23.2817   39.1625   -7.4357 H         1 6ZV         0.0258
     67 H30        19.0780   38.6783  -11.3618 H         1 6ZV         0.0973
     68 H31        18.8591   37.6442  -12.8141 H         1 6ZV         0.0973
     69 H32        21.5671   40.3853   -5.2492 H         1 6ZV         0.0632
     70 H33        20.6231   38.9904  -13.8177 H         1 6ZV         0.2052
     71 H34        24.4256   34.6613  -11.4834 H         1 6ZV         0.2190
@<TRIPOS>BOND
     1    1    3 1  
     2    7    1 1  
     3    2   30 ar 
     4   32    2 ar 
     5    2   35 1  
     6    4    5 ar 
     7   13    4 1  
     8    4   32 ar 
     9    5    6 ar 
    10    5   37 1  
    11    6   30 ar 
    12   22    7 1  
    13   23    7 1  
    14    9    8 ar 
    15    8   14 ar 
    16   18    9 ar 
    17   10   13 ar 
    18   16   10 ar 
    19   13   11 ar 
    20   17   11 ar 
    21   12   14 ar 
    22   29   12 ar 
    23   14   27 1  
    24   16   15 ar 
    25   15   17 ar 
    26   31   15 1  
    27   33   16 1  
    28   17   36 1  
    29   18   29 ar 
    30   35   18 1  
    31   19   24 1  
    32   19   31 2  
    33   33   19 1  
    34   20   22 1  
    35   34   20 1  
    36   21   23 1  
    37   34   21 1  
    38   28   25 1  
    39   28   26 1  
    40   27   34 1  
    41   28   33 1  
    42    1   38 1  
    43    1   39 1  
    44    3   40 1  
    45    3   41 1  
    46    3   42 1  
    47    6   43 1  
    48    7   44 1  
    49    8   45 1  
    50    9   46 1  
    51   10   47 1  
    52   11   48 1  
    53   12   49 1  
    54   20   50 1  
    55   20   51 1  
    56   21   52 1  
    57   21   53 1  
    58   22   54 1  
    59   22   55 1  
    60   23   56 1  
    61   23   57 1  
    62   24   58 1  
    63   24   59 1  
    64   24   60 1  
    65   25   61 1  
    66   25   62 1  
    67   25   63 1  
    68   26   64 1  
    69   26   65 1  
    70   26   66 1  
    71   27   67 1  
    72   27   68 1  
    73   28   69 1  
    74   34   70 1  
    75   35   71 1  
@<TRIPOS>SUBSTRUCTURE
     1 6ZV         1

