### 
### Created by X-TOOL on Mon Sep 10 21:13:29 2018
### 

@<TRIPOS>MOLECULE
5l2t_ligand
   63    67     1     0     0
SMALL
GAST_HUCK


@<TRIPOS>ATOM
      1 C2         24.4000   34.2510   -8.9610 C.ar      1 6ZZ         0.1968
      2 C4         25.7960   32.7650   -7.9590 C.ar      1 6ZZ         0.0111
      3 C5         25.7050   33.3940   -6.7240 C.ar      1 6ZZ         0.0234
      4 C6         24.8810   34.5370   -6.7750 C.ar      1 6ZZ         0.1419
      5 C20        21.8310   37.0400  -11.7570 C.ar      1 6ZZ         0.0153
      6 N          22.7180   36.0630  -11.5160 N.ar      1 6ZZ        -0.2933
      7 C9         26.1470   33.2650   -5.3930 C.2       1 6ZZ        -0.0318
      8 C18        20.8230   36.7970   -9.6210 C.ar      1 6ZZ        -0.0329
      9 C19        20.8630   37.4560  -10.8420 C.ar      1 6ZZ         0.0568
     10 C8         25.6160   34.2890   -4.6630 C.2       1 6ZZ         0.1383
     11 C16        22.6730   35.4560  -10.3210 C.ar      1 6ZZ         0.1255
     12 C10        25.7890   34.5600   -3.1990 C.2       1 6ZZ         0.2286
     13 C24        21.7870   37.2330   -5.4120 C.3       1 6ZZ        -0.0502
     14 C25        22.7760   38.0630   -6.1490 C.3       1 6ZZ        -0.0502
     15 C23        22.4210   35.8770   -5.2510 C.3       1 6ZZ        -0.0232
     16 C26        24.1660   37.5320   -5.7600 C.3       1 6ZZ        -0.0232
     17 C28        20.0070   39.7010  -10.2820 C.3       1 6ZZ         0.0662
     18 C32        19.4940   38.7540  -12.4770 C.3       1 6ZZ         0.0662
     19 C29        18.6350   40.3310  -10.2230 C.3       1 6ZZ        -0.0136
     20 C31        18.1250   39.3940  -12.4470 C.3       1 6ZZ        -0.0136
     21 C22        23.9070   36.1900   -5.0740 C.3       1 6ZZ         0.0658
     22 C13        26.7790   35.9150   -1.4100 C.3       1 6ZZ         0.0216
     23 C14        27.2290   36.4740   -3.7640 C.3       1 6ZZ         0.0216
     24 C          21.7250   35.7880   -9.3450 C.ar      1 6ZZ        -0.0204
     25 N1         25.1890   33.1700   -9.0790 N.ar      1 6ZZ        -0.2616
     26 N3         24.2280   35.0020   -7.8520 N.ar      1 6ZZ        -0.2404
     27 N7         24.8190   35.0970   -5.5080 N.pl3     1 6ZZ        -0.2345
     28 N27        19.9730   38.4970  -11.1150 N.pl3     1 6ZZ        -0.2986
     29 N15        23.6270   34.4910  -10.0630 N.pl3     1 6ZZ        -0.2377
     30 N11        26.5500   35.5920   -2.8200 N.am      1 6ZZ        -0.2775
     31 N30        18.1380   40.6160  -11.5980 N.4       1 6ZZ         0.2298
     32 O12        25.2860   33.7710   -2.3990 O.2       1 6ZZ        -0.3846
     33 H1         26.4091   31.8731   -8.0195 H         1 6ZZ         0.0887
     34 H2         21.8684   37.5360  -12.7201 H         1 6ZZ         0.0680
     35 H3         26.8007   32.4821   -5.0114 H         1 6ZZ         0.0419
     36 H4         20.0811   37.0753   -8.8813 H         1 6ZZ         0.0611
     37 H5         20.8524   37.1521   -5.9864 H         1 6ZZ         0.0266
     38 H6         21.5752   37.6752   -4.4273 H         1 6ZZ         0.0266
     39 H7         22.6776   39.1194   -5.8585 H         1 6ZZ         0.0266
     40 H8         22.6215   37.9651   -7.2337 H         1 6ZZ         0.0266
     41 H9         22.2545   35.2576   -6.1446 H         1 6ZZ         0.0294
     42 H10        22.0212   35.3596   -4.3665 H         1 6ZZ         0.0294
     43 H11        24.6650   38.2278   -5.0695 H         1 6ZZ         0.0294
     44 H12        24.7900   37.3931   -6.6552 H         1 6ZZ         0.0294
     45 H13        20.3272   39.4307   -9.2650 H         1 6ZZ         0.0565
     46 H14        20.7195   40.4205  -10.7117 H         1 6ZZ         0.0565
     47 H15        20.1976   39.4289  -12.9864 H         1 6ZZ         0.0565
     48 H16        19.4363   37.8023  -13.0256 H         1 6ZZ         0.0565
     49 H17        18.6915   41.2715   -9.6553 H         1 6ZZ         0.0833
     50 H18        17.9401   39.6413   -9.7216 H         1 6ZZ         0.0833
     51 H19        17.3991   38.6764  -12.0370 H         1 6ZZ         0.0833
     52 H20        17.8313   39.6681  -13.4710 H         1 6ZZ         0.0833
     53 H21        24.0890   36.3287   -3.9981 H         1 6ZZ         0.0640
     54 H22        27.4316   36.7975   -1.3373 H         1 6ZZ         0.0485
     55 H23        27.2607   35.0608   -0.9117 H         1 6ZZ         0.0485
     56 H24        25.8168   36.1293   -0.9219 H         1 6ZZ         0.0485
     57 H25        27.0000   36.1567   -4.7920 H         1 6ZZ         0.0485
     58 H26        28.3151   36.4226   -3.5978 H         1 6ZZ         0.0485
     59 H27        26.8836   37.5075   -3.6138 H         1 6ZZ         0.0485
     60 H28        21.6997   35.2655   -8.3956 H         1 6ZZ         0.0602
     61 H29        23.7844   33.8341  -10.8406 H         1 6ZZ         0.2176
     62 H30        18.7383   41.3036  -12.0256 H         1 6ZZ         0.2015
     63 H31        17.2001   40.9803  -11.5367 H         1 6ZZ         0.2015
@<TRIPOS>BOND
     1    1   25 ar 
     2   26    1 ar 
     3    1   29 1  
     4    3    2 ar 
     5    2   25 ar 
     6    4    3 ar 
     7    7    3 1  
     8    4   26 ar 
     9   27    4 1  
    10    6    5 ar 
    11    5    9 ar 
    12   11    6 ar 
    13   10    7 2  
    14    8    9 ar 
    15   24    8 ar 
    16    9   28 1  
    17   10   12 1  
    18   27   10 1  
    19   11   24 ar 
    20   29   11 1  
    21   12   30 am 
    22   12   32 2  
    23   14   13 1  
    24   15   13 1  
    25   16   14 1  
    26   21   15 1  
    27   21   16 1  
    28   17   19 1  
    29   28   17 1  
    30   18   20 1  
    31   28   18 1  
    32   19   31 1  
    33   20   31 1  
    34   21   27 1  
    35   30   22 1  
    36   30   23 1  
    37    2   33 1  
    38    5   34 1  
    39    7   35 1  
    40    8   36 1  
    41   13   37 1  
    42   13   38 1  
    43   14   39 1  
    44   14   40 1  
    45   15   41 1  
    46   15   42 1  
    47   16   43 1  
    48   16   44 1  
    49   17   45 1  
    50   17   46 1  
    51   18   47 1  
    52   18   48 1  
    53   19   49 1  
    54   19   50 1  
    55   20   51 1  
    56   20   52 1  
    57   21   53 1  
    58   22   54 1  
    59   22   55 1  
    60   22   56 1  
    61   23   57 1  
    62   23   58 1  
    63   23   59 1  
    64   24   60 1  
    65   29   61 1  
    66   31   62 1  
    67   31   63 1  
@<TRIPOS>SUBSTRUCTURE
     1 6ZZ         1

