### 
### Created by X-TOOL on Mon Sep 10 21:13:29 2018
### 

@<TRIPOS>MOLECULE
5l2w_ligand
   59    62     1     0     0
SMALL
GAST_HUCK


@<TRIPOS>ATOM
      1 C10        34.9980   24.8210   -7.1410 C.2       1 1QK         0.0370
      2 N12        36.6060   26.3240   -8.1780 N.pl3     1 1QK        -0.2609
      3 C13        36.0220   27.5570   -7.7020 C.3       1 1QK         0.0662
      4 C15        37.9530   27.8000   -6.1420 C.2       1 1QK        -0.1053
      5 C17        37.7250   28.8520   -3.9940 C.2       1 1QK         0.0208
      6 C22        32.5020   24.1420   -5.7770 C.3       1 1QK         0.0319
      7 C24        31.6760   22.4650   -4.1000 C.3       1 1QK        -0.0491
      8 C26        33.0940   21.6880   -6.0420 C.3       1 1QK         0.0448
      9 C28        32.3570   21.2330   -8.4610 C.3       1 1QK         0.0463
     10 C01        36.7760   19.8410  -10.2990 C.3       1 1QK        -0.0633
     11 C02        37.1610   20.3950   -8.9710 C.3       1 1QK        -0.0449
     12 C03        37.2030   21.9040   -8.9290 C.2       1 1QK        -0.0335
     13 C04        38.0730   22.7640   -9.6130 C.2       1 1QK        -0.0253
     14 N05        37.8450   24.0430   -9.3520 N.2       1 1QK        -0.2274
     15 N06        36.7830   24.0270   -8.4750 N.pl3     1 1QK        -0.1275
     16 C07        36.3690   22.7450   -8.2020 C.2       1 1QK         0.1313
     17 N08        35.3060   22.4770   -7.4230 N.2       1 1QK        -0.2989
     18 C09        34.6000   23.4770   -6.9160 C.2       1 1QK         0.0873
     19 C11        36.1080   25.0860   -7.9200 C.2       1 1QK         0.2160
     20 C14        36.6790   28.0520   -6.4680 C.2       1 1QK        -0.0286
     21 C16        38.4940   28.2070   -4.8970 C.2       1 1QK        -0.0933
     22 N18        36.4230   29.1230   -4.2090 N.pl3     1 1QK        -0.1885
     23 C19        35.8100   28.8370   -5.5150 C.3       1 1QK         0.0868
     24 O20        35.6140   28.5090   -3.2050 O.3       1 1QK        -0.2715
     25 N21        33.4340   23.1100   -6.2610 N.pl3     1 1QK        -0.2902
     26 C23        32.1350   23.9030   -4.3220 C.3       1 1QK        -0.0324
     27 C25        32.7240   21.4590   -4.5810 C.3       1 1QK        -0.0295
     28 C27        32.0180   21.1460   -6.9890 C.3       1 1QK        -0.0064
     29 O29        33.3620   20.2870   -8.8250 O.3       1 1QK        -0.3949
     30 H1         34.4306   25.6400   -6.7013 H         1 1QK         0.0368
     31 H2         37.4585   26.3877   -8.7525 H         1 1QK         0.1967
     32 H3         34.9563   27.3851   -7.4906 H         1 1QK         0.0706
     33 H4         36.1215   28.3215   -8.4866 H         1 1QK         0.0706
     34 H5         38.5883   27.2699   -6.8501 H         1 1QK         0.0218
     35 H6         38.1755   29.1660   -3.0536 H         1 1QK         0.0855
     36 H7         31.5875   24.1162   -6.3878 H         1 1QK         0.0523
     37 H8         32.9778   25.1293   -5.8707 H         1 1QK         0.0523
     38 H9         30.7408   22.2990   -4.6548 H         1 1QK         0.0267
     39 H10        31.4978   22.3088   -3.0258 H         1 1QK         0.0267
     40 H11        34.0070   21.1084   -6.2430 H         1 1QK         0.0559
     41 H12        32.7228   22.2461   -8.6839 H         1 1QK         0.0558
     42 H13        31.4490   21.0333   -9.0490 H         1 1QK         0.0558
     43 H14        36.7680   18.7421  -10.2495 H         1 1QK         0.0240
     44 H15        37.5022   20.1685  -11.0575 H         1 1QK         0.0240
     45 H16        35.7735   20.2031  -10.5707 H         1 1QK         0.0240
     46 H17        38.1595   20.0130   -8.7121 H         1 1QK         0.0312
     47 H18        36.4308   20.0476   -8.2253 H         1 1QK         0.0312
     48 H19        38.8542   22.4175  -10.2880 H         1 1QK         0.0579
     49 H20        39.5377   27.9980   -4.6670 H         1 1QK         0.0220
     50 H21        34.8883   28.2624   -5.3411 H         1 1QK         0.0726
     51 H22        35.5597   29.7960   -5.9921 H         1 1QK         0.0726
     52 H23        35.9897   28.6795   -2.3492 H         1 1QK         0.2504
     53 H24        31.3214   24.5873   -4.0397 H         1 1QK         0.0285
     54 H25        33.0152   24.1003   -3.6924 H         1 1QK         0.0285
     55 H26        32.3195   20.4421   -4.4706 H         1 1QK         0.0288
     56 H27        33.6283   21.5630   -3.9634 H         1 1QK         0.0288
     57 H28        31.0938   21.7174   -6.8177 H         1 1QK         0.0310
     58 H29        31.8466   20.0882   -6.7406 H         1 1QK         0.0310
     59 H30        34.1513   20.4567   -8.3242 H         1 1QK         0.2094
@<TRIPOS>BOND
     1   18    1 1  
     2    1   19 2  
     3    2    3 1  
     4   19    2 1  
     5    3   20 1  
     6   20    4 2  
     7    4   21 1  
     8   21    5 2  
     9    5   22 1  
    10   25    6 1  
    11    6   26 1  
    12   26    7 1  
    13   27    7 1  
    14   25    8 1  
    15    8   27 1  
    16    8   28 1  
    17   28    9 1  
    18    9   29 1  
    19   11   10 1  
    20   12   11 1  
    21   12   13 1  
    22   16   12 2  
    23   14   13 2  
    24   15   14 1  
    25   16   15 1  
    26   19   15 1  
    27   17   16 1  
    28   18   17 2  
    29   18   25 1  
    30   20   23 1  
    31   22   23 1  
    32   22   24 1  
    33    1   30 1  
    34    2   31 1  
    35    3   32 1  
    36    3   33 1  
    37    4   34 1  
    38    5   35 1  
    39    6   36 1  
    40    6   37 1  
    41    7   38 1  
    42    7   39 1  
    43    8   40 1  
    44    9   41 1  
    45    9   42 1  
    46   10   43 1  
    47   10   44 1  
    48   10   45 1  
    49   11   46 1  
    50   11   47 1  
    51   13   48 1  
    52   21   49 1  
    53   23   50 1  
    54   23   51 1  
    55   24   52 1  
    56   26   53 1  
    57   26   54 1  
    58   27   55 1  
    59   27   56 1  
    60   28   57 1  
    61   28   58 1  
    62   29   59 1  
@<TRIPOS>SUBSTRUCTURE
     1 1QK         1

