### 
### Created by X-TOOL on Mon Sep 10 21:13:27 2018
### 

@<TRIPOS>MOLECULE
5l2y_ligand
   81    86     1     0     0
SMALL
GAST_HUCK


@<TRIPOS>ATOM
      1 C13         7.3630   38.0210   24.3090 C.2       1 70D         0.2165
      2 C18         9.4670   33.2600   27.3060 C.ar      1 70D        -0.0524
      3 C17         9.2840   33.6210   28.6650 C.ar      1 70D         0.0233
      4 C16         8.6300   34.8650   28.9510 C.ar      1 70D         0.0082
      5 C15         8.1840   35.6720   27.8740 C.ar      1 70D        -0.0369
      6 C19         9.0320   34.0660   26.3020 C.ar      1 70D        -0.0361
      7 C20         8.4800   35.2440   30.3000 C.ar      1 70D         0.1382
      8 C21         9.0020   34.4020   31.3140 C.ar      1 70D         0.0130
      9 C23         9.7610   32.8300   29.7820 C.ar      1 70D         0.1106
     10 C11         0.7070   35.6700   26.8300 C.3       1 70D        -0.0520
     11 C27         6.0660   39.6310   21.9610 C.ar      1 70D        -0.0073
     12 C1          1.3530   35.9550   25.4650 C.3       1 70D         0.0122
     13 C2          0.6140   37.1550   24.8010 C.3       1 70D         0.0884
     14 C3          2.8730   36.1570   25.5340 C.ar      1 70D        -0.0424
     15 C4          3.4210   36.9060   26.5750 C.ar      1 70D        -0.0725
     16 C5          4.7730   37.2040   26.6020 C.ar      1 70D        -0.0692
     17 C6          5.6160   36.7730   25.5900 C.ar      1 70D        -0.0129
     18 C7          5.0750   36.0090   24.5610 C.ar      1 70D        -0.0610
     19 C8          3.7210   35.6820   24.5180 C.ar      1 70D        -0.0497
     20 C9          3.2380   34.7660   23.4040 C.3       1 70D        -0.0350
     21 C10         7.0840   37.1770   25.5560 C.3       1 70D         0.1550
     22 N12         7.9670   36.0290   25.4800 N.pl3     1 70D        -0.2910
     23 C14         8.3800   35.2700   26.5670 C.ar      1 70D         0.0442
     24 N22         9.6270   33.2510   31.0620 N.ar      1 70D        -0.3016
     25 O24         7.8630   37.4710   23.3360 O.2       1 70D        -0.3914
     26 N25         6.9940   39.3210   24.2530 N.am      1 70D        -0.2568
     27 C26         7.1380   39.9980   22.9640 C.3       1 70D         0.0782
     28 C28         6.2170   39.8630   20.5810 C.ar      1 70D        -0.0618
     29 C29         5.1410   39.5700   19.7440 C.ar      1 70D        -0.0549
     30 C30         3.9620   39.0280   20.2290 C.ar      1 70D        -0.0097
     31 C31         3.7960   38.8310   21.5900 C.ar      1 70D         0.1048
     32 C32         4.8620   39.1050   22.4440 C.ar      1 70D        -0.0024
     33 N33         2.5620   38.3020   22.0540 N.am      1 70D        -0.1842
     34 O34         1.1330   37.3690   23.4650 O.3       1 70D        -0.2535
     35 C35         2.1120   38.2900   23.3310 C.2       1 70D         0.3687
     36 O36         2.4630   39.0470   24.2050 O.2       1 70D        -0.3580
     37 C37         6.4040   40.0970   25.3450 C.3       1 70D         0.0258
     38 N38        10.3580   31.6360   29.6110 N.pl3     1 70D        -0.3195
     39 C39         7.5370   40.3490   19.9440 C.3       1 70D        -0.0190
     40 F40         7.7970   36.3770   30.6020 F         1 70D        -0.1904
     41 C41         7.9320   41.7170   20.5600 C.2       1 70D        -0.0043
     42 C42         7.7640   40.3440   18.3990 C.3       1 70D        -0.0825
     43 C43         9.1340   39.7010   18.6220 C.3       1 70D        -0.0748
     44 C44         8.6570   39.2640   20.0070 C.3       1 70D        -0.0825
     45 O45         6.9740   42.5870   20.5640 O.co2     1 70D        -0.5694
     46 O46         9.0500   41.9520   20.9890 O.co2     1 70D        -0.5694
     47 H1          9.9617   32.3263   27.0641 H         1 70D         0.0644
     48 H2          7.6850   36.6125   28.0779 H         1 70D         0.0462
     49 H3          9.1953   33.7666   25.2730 H         1 70D         0.0561
     50 H4          8.8873   34.7094   32.3472 H         1 70D         0.0675
     51 H5         -0.3774   35.5372   26.7018 H         1 70D         0.0252
     52 H6          0.8952   36.5152   27.5084 H         1 70D         0.0252
     53 H7          1.1407   34.7536   27.2568 H         1 70D         0.0252
     54 H8          1.1833   35.0716   24.8319 H         1 70D         0.0457
     55 H9          0.7723   38.0611   25.4043 H         1 70D         0.0634
     56 H10        -0.4624   36.9356   24.7443 H         1 70D         0.0634
     57 H11         2.7796   37.2598   27.3741 H         1 70D         0.0522
     58 H12         5.1772   37.7818   27.4253 H         1 70D         0.0487
     59 H13         5.7262   35.6575   23.7689 H         1 70D         0.0482
     60 H14         2.1548   34.6039   23.5063 H         1 70D         0.0375
     61 H15         3.7611   33.8006   23.4704 H         1 70D         0.0375
     62 H16         3.4487   35.2310   22.4296 H         1 70D         0.0375
     63 H17         7.3135   37.7574   26.4618 H         1 70D         0.0940
     64 H18         8.3140   35.7561   24.5494 H         1 70D         0.1826
     65 H19         7.0961   41.0837   23.1355 H         1 70D         0.0754
     66 H20         8.1170   39.7313   22.5392 H         1 70D         0.0754
     67 H21         5.2297   39.7723   18.6827 H         1 70D         0.0777
     68 H22         3.1680   38.7576   19.5423 H         1 70D         0.0601
     69 H23         4.7570   38.9068   23.5045 H         1 70D         0.0541
     70 H24         1.9623   37.8955   21.3647 H         1 70D         0.2499
     71 H25         6.3534   39.4752   26.2510 H         1 70D         0.0489
     72 H26         5.3900   40.4159   25.0621 H         1 70D         0.0489
     73 H27         7.0253   40.9830   25.5426 H         1 70D         0.0489
     74 H28        10.6844   31.1016   30.4288 H         1 70D         0.1802
     75 H29        10.4885   31.2566   28.6623 H         1 70D         0.1802
     76 H30         7.8032   41.3450   17.9447 H         1 70D         0.0122
     77 H31         7.0553   39.7152   17.8401 H         1 70D         0.0122
     78 H32         9.9738   40.4113   18.6331 H         1 70D         0.0242
     79 H33         9.3643   38.8715   17.9373 H         1 70D         0.0242
     80 H34         8.2827   38.2306   20.0504 H         1 70D         0.0122
     81 H35         9.3936   39.4213   20.8087 H         1 70D         0.0122
@<TRIPOS>BOND
     1    1   21 1  
     2    1   25 2  
     3   26    1 am 
     4    2    3 ar 
     5    6    2 ar 
     6    4    3 ar 
     7    3    9 ar 
     8    5    4 ar 
     9    4    7 ar 
    10   23    5 ar 
    11   23    6 ar 
    12    7    8 ar 
    13    7   40 1  
    14    8   24 ar 
    15    9   24 ar 
    16    9   38 1  
    17   12   10 1  
    18   27   11 1  
    19   11   28 ar 
    20   11   32 ar 
    21   12   13 1  
    22   14   12 1  
    23   13   34 1  
    24   15   14 ar 
    25   19   14 ar 
    26   16   15 ar 
    27   17   16 ar 
    28   17   18 ar 
    29   21   17 1  
    30   18   19 ar 
    31   19   20 1  
    32   21   22 1  
    33   22   23 1  
    34   26   27 1  
    35   26   37 1  
    36   28   29 ar 
    37   28   39 1  
    38   29   30 ar 
    39   30   31 ar 
    40   31   32 ar 
    41   31   33 1  
    42   33   35 am 
    43   34   35 1  
    44   35   36 2  
    45   39   41 1  
    46   39   42 1  
    47   39   44 1  
    48   41   45 ar 
    49   41   46 ar 
    50   42   43 1  
    51   43   44 1  
    52    2   47 1  
    53    5   48 1  
    54    6   49 1  
    55    8   50 1  
    56   10   51 1  
    57   10   52 1  
    58   10   53 1  
    59   12   54 1  
    60   13   55 1  
    61   13   56 1  
    62   15   57 1  
    63   16   58 1  
    64   18   59 1  
    65   20   60 1  
    66   20   61 1  
    67   20   62 1  
    68   21   63 1  
    69   22   64 1  
    70   27   65 1  
    71   27   66 1  
    72   29   67 1  
    73   30   68 1  
    74   32   69 1  
    75   33   70 1  
    76   37   71 1  
    77   37   72 1  
    78   37   73 1  
    79   38   74 1  
    80   38   75 1  
    81   42   76 1  
    82   42   77 1  
    83   43   78 1  
    84   43   79 1  
    85   44   80 1  
    86   44   81 1  
@<TRIPOS>SUBSTRUCTURE
     1 70D         1

