### 
### Created by X-TOOL on Mon Sep 10 21:13:27 2018
### 

@<TRIPOS>MOLECULE
5l2z_ligand
   87    92     1     0     0
SMALL
GAST_HUCK


@<TRIPOS>ATOM
      1 C13         7.8880   36.3470   24.3690 C.2       1 70C         0.2165
      2 C18        10.2560   31.5940   27.1760 C.ar      1 70C        -0.0524
      3 C17        10.1730   31.9600   28.5420 C.ar      1 70C         0.0233
      4 C16         9.5780   33.2210   28.8670 C.ar      1 70C         0.0082
      5 C15         9.1070   34.0510   27.8210 C.ar      1 70C        -0.0369
      6 C19         9.8000   32.4250   26.2000 C.ar      1 70C        -0.0361
      7 C20         9.4980   33.5900   30.2380 C.ar      1 70C         0.1382
      8 C21        10.0260   32.7260   31.2070 C.ar      1 70C         0.0130
      9 C23        10.6920   31.1520   29.6270 C.ar      1 70C         0.1106
     10 C11         1.5560   34.0040   27.5080 C.3       1 70C        -0.0520
     11 C27         6.3960   37.9980   22.1870 C.ar      1 70C        -0.0073
     12 C1          2.0520   34.2460   26.0710 C.3       1 70C         0.0122
     13 C2          1.2230   35.4290   25.4380 C.3       1 70C         0.0884
     14 C3          3.5720   34.4410   26.0010 C.ar      1 70C        -0.0424
     15 C4          4.2200   35.1650   27.0020 C.ar      1 70C        -0.0725
     16 C5          5.5730   35.4470   26.9150 C.ar      1 70C        -0.0692
     17 C6          6.3140   35.0380   25.8170 C.ar      1 70C        -0.0129
     18 C7          5.6770   34.2860   24.8370 C.ar      1 70C        -0.0610
     19 C8          4.3220   33.9740   24.9080 C.ar      1 70C        -0.0497
     20 C9          3.7180   33.1620   23.7860 C.3       1 70C        -0.0350
     21 C10         7.7550   35.4900   25.6170 C.3       1 70C         0.1550
     22 N12         8.6820   34.3870   25.4530 N.pl3     1 70C        -0.2910
     23 C14         9.2030   33.6440   26.5050 C.ar      1 70C         0.0442
     24 N22        10.6060   31.5560   30.9200 N.ar      1 70C        -0.3016
     25 O24         8.3280   35.8280   23.3490 O.2       1 70C        -0.3914
     26 N25         7.5100   37.6470   24.3820 N.am      1 70C        -0.2568
     27 C26         7.5310   38.3760   23.1150 C.3       1 70C         0.0782
     28 C28         6.4360   38.2130   20.7950 C.ar      1 70C        -0.0618
     29 C29         5.3310   37.8200   20.0430 C.ar      1 70C        -0.0549
     30 C30         4.2260   37.2220   20.6130 C.ar      1 70C        -0.0097
     31 C31         4.1550   37.0670   21.9850 C.ar      1 70C         0.1048
     32 C32         5.2570   37.4250   22.7570 C.ar      1 70C        -0.0024
     33 N33         2.9520   36.5680   22.5420 N.am      1 70C        -0.1842
     34 O34         1.6160   35.6500   24.0570 O.3       1 70C        -0.2535
     35 C35         2.6040   36.5520   23.8530 C.2       1 70C         0.3687
     36 O36         3.0630   37.2690   24.7130 O.2       1 70C        -0.3580
     37 C37         6.9890   38.3730   25.5400 C.3       1 70C         0.0258
     38 N38        11.3020   29.9650   29.4120 N.pl3     1 70C        -0.3195
     39 C39         7.6620   38.7930   20.0620 C.3       1 70C        -0.0189
     40 F40         8.8390   34.7070   30.6170 F         1 70C        -0.1904
     41 C41         8.0840   40.1090   20.8580 C.2       1 70C        -0.0043
     42 C42         7.3840   39.2580   18.6120 C.3       1 70C        -0.0814
     43 C43         8.6360   39.7520   17.9070 C.3       1 70C        -0.0639
     44 C44         9.6820   38.6500   17.8270 C.3       1 70C        -0.0552
     45 C45        10.0080   38.0960   19.2070 C.3       1 70C        -0.0639
     46 C46         8.7540   37.6920   19.9760 C.3       1 70C        -0.0814
     47 O47         9.3220   40.1730   21.2370 O.co2     1 70C        -0.5694
     48 O48         7.2810   40.9800   21.1530 O.co2     1 70C        -0.5694
     49 H1         10.6891   30.6381   26.9044 H         1 70C         0.0644
     50 H2          8.6675   35.0138   28.0552 H         1 70C         0.0462
     51 H3          9.9042   32.1308   25.1619 H         1 70C         0.0561
     52 H4          9.9605   33.0230   32.2475 H         1 70C         0.0675
     53 H5          0.4641   33.8711   27.5015 H         1 70C         0.0252
     54 H6          1.8163   34.8686   28.1363 H         1 70C         0.0252
     55 H7          2.0330   33.0994   27.9131 H         1 70C         0.0252
     56 H8          1.8262   33.3419   25.4866 H         1 70C         0.0457
     57 H9          1.4044   36.3470   26.0163 H         1 70C         0.0634
     58 H10         0.1524   35.1790   25.4731 H         1 70C         0.0634
     59 H11         3.6562   35.5119   27.8604 H         1 70C         0.0522
     60 H12         6.0585   35.9941   27.7150 H         1 70C         0.0487
     61 H13         6.2535   33.9311   23.9904 H         1 70C         0.0482
     62 H14         2.6485   32.9995   23.9856 H         1 70C         0.0375
     63 H15         4.2302   32.1908   23.7193 H         1 70C         0.0375
     64 H16         3.8354   33.7045   22.8363 H         1 70C         0.0375
     65 H17         8.0525   36.0783   26.4975 H         1 70C         0.0940
     66 H18         8.9724   34.1388   24.4965 H         1 70C         0.1826
     67 H19         7.4619   39.4524   23.3306 H         1 70C         0.0754
     68 H20         8.4830   38.1643   22.6063 H         1 70C         0.0754
     69 H21         5.3397   37.9900   18.9724 H         1 70C         0.0777
     70 H22         3.4137   36.8738   19.9853 H         1 70C         0.0601
     71 H23         5.2303   37.2547   23.8272 H         1 70C         0.0541
     72 H24         2.2876   36.1863   21.8994 H         1 70C         0.2499
     73 H25         7.0247   37.7230   26.4267 H         1 70C         0.0489
     74 H26         5.9485   38.6730   25.3470 H         1 70C         0.0489
     75 H27         7.6020   39.2689   25.7173 H         1 70C         0.0489
     76 H28        11.6588   29.4176   30.2082 H         1 70C         0.1802
     77 H29        11.4100   29.6079   28.4519 H         1 70C         0.1802
     78 H30         6.6490   40.0759   18.6390 H         1 70C         0.0122
     79 H31         6.9703   38.4118   18.0438 H         1 70C         0.0122
     80 H32         9.0518   40.6038   18.4651 H         1 70C         0.0254
     81 H33         8.3730   40.0741   16.8886 H         1 70C         0.0254
     82 H34        10.5997   39.0588   17.3790 H         1 70C         0.0265
     83 H35         9.2970   37.8356   17.1957 H         1 70C         0.0265
     84 H36        10.5427   38.8670   19.7811 H         1 70C         0.0254
     85 H37        10.6525   37.2122   19.0909 H         1 70C         0.0254
     86 H38         8.3162   36.8133   19.4798 H         1 70C         0.0122
     87 H39         9.0519   37.4242   21.0005 H         1 70C         0.0122
@<TRIPOS>BOND
     1    1   21 1  
     2    1   25 2  
     3   26    1 am 
     4    2    3 ar 
     5    6    2 ar 
     6    4    3 ar 
     7    3    9 ar 
     8    5    4 ar 
     9    4    7 ar 
    10   23    5 ar 
    11   23    6 ar 
    12    7    8 ar 
    13    7   40 1  
    14    8   24 ar 
    15    9   24 ar 
    16    9   38 1  
    17   12   10 1  
    18   27   11 1  
    19   11   28 ar 
    20   11   32 ar 
    21   12   13 1  
    22   14   12 1  
    23   13   34 1  
    24   15   14 ar 
    25   19   14 ar 
    26   16   15 ar 
    27   17   16 ar 
    28   17   18 ar 
    29   21   17 1  
    30   18   19 ar 
    31   19   20 1  
    32   21   22 1  
    33   22   23 1  
    34   26   27 1  
    35   26   37 1  
    36   28   29 ar 
    37   28   39 1  
    38   29   30 ar 
    39   30   31 ar 
    40   31   32 ar 
    41   31   33 1  
    42   33   35 am 
    43   34   35 1  
    44   35   36 2  
    45   39   41 1  
    46   39   42 1  
    47   39   46 1  
    48   41   47 ar 
    49   41   48 ar 
    50   42   43 1  
    51   43   44 1  
    52   44   45 1  
    53   45   46 1  
    54    2   49 1  
    55    5   50 1  
    56    6   51 1  
    57    8   52 1  
    58   10   53 1  
    59   10   54 1  
    60   10   55 1  
    61   12   56 1  
    62   13   57 1  
    63   13   58 1  
    64   15   59 1  
    65   16   60 1  
    66   18   61 1  
    67   20   62 1  
    68   20   63 1  
    69   20   64 1  
    70   21   65 1  
    71   22   66 1  
    72   27   67 1  
    73   27   68 1  
    74   29   69 1  
    75   30   70 1  
    76   32   71 1  
    77   33   72 1  
    78   37   73 1  
    79   37   74 1  
    80   37   75 1  
    81   38   76 1  
    82   38   77 1  
    83   42   78 1  
    84   42   79 1  
    85   43   80 1  
    86   43   81 1  
    87   44   82 1  
    88   44   83 1  
    89   45   84 1  
    90   45   85 1  
    91   46   86 1  
    92   46   87 1  
@<TRIPOS>SUBSTRUCTURE
     1 70C         1

