### 
### Created by X-TOOL on Mon Sep 10 21:13:27 2018
### 

@<TRIPOS>MOLECULE
5l30_ligand
   81    87     1     0     0
SMALL
GAST_HUCK


@<TRIPOS>ATOM
      1 C13         7.4800   37.6790   24.4210 C.2       1 70A         0.2165
      2 C18         9.5940   32.9510   27.4660 C.ar      1 70A        -0.0511
      3 C17         9.4180   33.3290   28.8150 C.ar      1 70A         0.0242
      4 C16         8.7550   34.5610   29.0860 C.ar      1 70A        -0.0283
      5 C15         8.3080   35.3610   28.0060 C.ar      1 70A        -0.0391
      6 C19         9.1730   33.7550   26.4540 C.ar      1 70A        -0.0354
      7 C20         8.5920   34.9610   30.4280 C.ar      1 70A        -0.0566
      8 C21         9.1450   34.2130   31.4260 C.ar      1 70A        -0.0195
      9 C23         9.9270   32.5840   29.9470 C.ar      1 70A         0.1155
     10 C11         0.9160   35.2910   27.1410 C.3       1 70A        -0.0520
     11 C27         6.0810   39.2800   22.1330 C.ar      1 70A        -0.0131
     12 C1          1.5150   35.5930   25.7580 C.3       1 70A         0.0122
     13 C2          0.7810   36.8240   25.1320 C.3       1 70A         0.0883
     14 C3          3.0330   35.7960   25.7910 C.ar      1 70A        -0.0424
     15 C4          3.6030   36.5750   26.7960 C.ar      1 70A        -0.0725
     16 C5          4.9530   36.8890   26.7760 C.ar      1 70A        -0.0692
     17 C6          5.7740   36.4290   25.7550 C.ar      1 70A        -0.0129
     18 C7          5.2120   35.6190   24.7720 C.ar      1 70A        -0.0610
     19 C8          3.8570   35.2950   24.7680 C.ar      1 70A        -0.0497
     20 C9          3.3370   34.3910   23.6640 C.3       1 70A        -0.0350
     21 C10         7.2350   36.8460   25.6680 C.3       1 70A         0.1552
     22 N12         8.1390   35.7130   25.6020 N.pl3     1 70A        -0.2905
     23 C14         8.5260   34.9580   26.7050 C.ar      1 70A         0.0447
     24 N22         9.8160   33.0690   31.2300 N.ar      1 70A        -0.2974
     25 O24         7.9620   37.1380   23.4320 O.2       1 70A        -0.3914
     26 N25         7.1080   38.9750   24.3850 N.am      1 70A        -0.2573
     27 C26         7.1740   39.6760   23.1000 C.3       1 70A         0.0764
     28 C28         6.2210   39.4810   20.7540 C.ar      1 70A        -0.0735
     29 C29         5.1500   39.1750   19.9210 C.ar      1 70A        -0.0607
     30 C30         3.9850   38.6180   20.4170 C.ar      1 70A        -0.0139
     31 C31         3.8310   38.4360   21.7820 C.ar      1 70A         0.1007
     32 C32         4.8910   38.7480   22.6300 C.ar      1 70A        -0.0063
     33 N33         2.6290   37.8840   22.2860 N.am      1 70A        -0.1867
     34 O34         1.2450   36.9960   23.7710 O.3       1 70A        -0.2538
     35 C35         2.2230   37.9090   23.5750 C.2       1 70A         0.3671
     36 O36         2.6230   38.6800   24.4210 O.2       1 70A        -0.3588
     37 C37         6.6070   39.7370   25.5300 C.3       1 70A         0.0257
     38 N38        10.4740   31.3640   29.7950 N.pl3     1 70A        -0.3167
     39 C39         7.5550   39.9470   20.1490 C.3       1 70A        -0.0066
     40 C40         7.9280   41.3840   20.4170 C.2       1 70A         0.1244
     41 N41         9.1430   41.9140   20.2760 N.pl3     1 70A        -0.1554
     42 N42         9.0780   43.2350   20.5460 N.2       1 70A        -0.0366
     43 N43         7.8450   43.4780   20.8420 N.2       1 70A        -0.1028
     44 N44         7.1040   42.3400   20.7870 N.2       1 70A        -0.1853
     45 C45         7.9970   39.4100   18.7950 C.3       1 70A        -0.1002
     46 C46         8.6900   38.9410   20.0190 C.3       1 70A        -0.1002
     47 H1         10.0717   32.0060   27.2340 H         1 70A         0.0651
     48 H2          7.7924   36.2940   28.2028 H         1 70A         0.0458
     49 H3          9.3461   33.4504   25.4282 H         1 70A         0.0561
     50 H4          8.0307   35.8574   30.6655 H         1 70A         0.0523
     51 H5          9.0346   34.5670   32.4446 H         1 70A         0.0707
     52 H6         -0.1718   35.1566   27.0480 H         1 70A         0.0252
     53 H7          1.1249   36.1291   27.8221 H         1 70A         0.0252
     54 H8          1.3661   34.3712   27.5426 H         1 70A         0.0252
     55 H9          1.3196   34.7221   25.1151 H         1 70A         0.0457
     56 H10         1.0072   37.7274   25.7175 H         1 70A         0.0634
     57 H11        -0.3048   36.6482   25.1338 H         1 70A         0.0634
     58 H12         2.9816   36.9408   27.6054 H         1 70A         0.0522
     59 H13         5.3726   37.5007   27.5665 H         1 70A         0.0487
     60 H14         5.8480   35.2285   23.9858 H         1 70A         0.0482
     61 H15         2.2572   34.2308   23.7994 H         1 70A         0.0375
     62 H16         3.8592   33.4238   23.7056 H         1 70A         0.0375
     63 H17         3.5179   34.8636   22.6873 H         1 70A         0.0375
     64 H18         7.4758   37.4436   26.5595 H         1 70A         0.0941
     65 H19         8.5181   35.4511   24.6808 H         1 70A         0.1830
     66 H20         7.0947   40.7566   23.2898 H         1 70A         0.0746
     67 H21         8.1459   39.4559   22.6342 H         1 70A         0.0746
     68 H22         5.2301   39.3776   18.8591 H         1 70A         0.0749
     69 H23         3.1928   38.3240   19.7380 H         1 70A         0.0587
     70 H24         4.7895   38.5743   23.6952 H         1 70A         0.0530
     71 H25         2.0248   37.4343   21.6282 H         1 70A         0.2479
     72 H26         6.6092   39.0977   26.4251 H         1 70A         0.0489
     73 H27         5.5810   40.0761   25.3242 H         1 70A         0.0489
     74 H28         7.2543   40.6097   25.7012 H         1 70A         0.0489
     75 H29        10.8294   30.8531   30.6157 H         1 70A         0.1819
     76 H30        10.5373   30.9411   28.8580 H         1 70A         0.1819
     77 H31         9.9931   41.3993   20.0051 H         1 70A         0.2766
     78 H32         8.5207   40.0706   18.0883 H         1 70A         0.0084
     79 H33         7.3430   38.7225   18.2385 H         1 70A         0.0084
     80 H34         8.5479   37.9071   20.3666 H         1 70A         0.0084
     81 H35         9.7255   39.2552   20.2164 H         1 70A         0.0084
@<TRIPOS>BOND
     1    1   21 1  
     2    1   25 2  
     3   26    1 am 
     4    2    3 ar 
     5    6    2 ar 
     6    4    3 ar 
     7    3    9 ar 
     8    5    4 ar 
     9    4    7 ar 
    10   23    5 ar 
    11   23    6 ar 
    12    7    8 ar 
    13    8   24 ar 
    14    9   24 ar 
    15    9   38 1  
    16   12   10 1  
    17   27   11 1  
    18   11   28 ar 
    19   11   32 ar 
    20   12   13 1  
    21   14   12 1  
    22   13   34 1  
    23   15   14 ar 
    24   19   14 ar 
    25   16   15 ar 
    26   17   16 ar 
    27   17   18 ar 
    28   21   17 1  
    29   18   19 ar 
    30   19   20 1  
    31   21   22 1  
    32   22   23 1  
    33   26   27 1  
    34   26   37 1  
    35   28   29 ar 
    36   28   39 1  
    37   29   30 ar 
    38   30   31 ar 
    39   31   32 ar 
    40   31   33 1  
    41   33   35 am 
    42   34   35 1  
    43   35   36 2  
    44   39   40 1  
    45   39   45 1  
    46   39   46 1  
    47   40   41 1  
    48   40   44 2  
    49   41   42 1  
    50   42   43 2  
    51   43   44 1  
    52   45   46 1  
    53    2   47 1  
    54    5   48 1  
    55    6   49 1  
    56    7   50 1  
    57    8   51 1  
    58   10   52 1  
    59   10   53 1  
    60   10   54 1  
    61   12   55 1  
    62   13   56 1  
    63   13   57 1  
    64   15   58 1  
    65   16   59 1  
    66   18   60 1  
    67   20   61 1  
    68   20   62 1  
    69   20   63 1  
    70   21   64 1  
    71   22   65 1  
    72   27   66 1  
    73   27   67 1  
    74   29   68 1  
    75   30   69 1  
    76   32   70 1  
    77   33   71 1  
    78   37   72 1  
    79   37   73 1  
    80   37   74 1  
    81   38   75 1  
    82   38   76 1  
    83   41   77 1  
    84   45   78 1  
    85   45   79 1  
    86   46   80 1  
    87   46   81 1  
@<TRIPOS>SUBSTRUCTURE
     1 70A         1

