### 
### Created by X-TOOL on Mon Sep 10 21:13:30 2018
### 

@<TRIPOS>MOLECULE
5l3a_ligand
   23    24     1     0     0
SMALL
GAST_HUCK


@<TRIPOS>ATOM
      1 C1         12.8500  -18.8300  -20.0810 C.ar      1 6DP         0.0307
      2 C2         13.6120  -19.9850  -19.6930 C.ar      1 6DP         0.0725
      3 C3         11.5260  -19.1770  -20.0240 C.2       1 6DP         0.0134
      4 C4         15.0420  -19.9480  -19.6870 C.ar      1 6DP        -0.0551
      5 C5         15.6440  -18.7650  -20.0630 C.ar      1 6DP        -0.0894
      6 C6         14.8730  -17.6040  -20.4540 C.ar      1 6DP        -0.0566
      7 O1         13.6290  -14.6190  -21.7690 O.2       1 6DP        -0.1496
      8 S          12.7660  -15.0150  -20.7170 S.o2      1 6DP         0.0591
      9 O          11.4490  -14.4870  -20.6420 O.2       1 6DP        -0.1496
     10 C7         13.5740  -14.6990  -19.2600 C.3       1 6DP         0.0794
     11 N          12.6220  -16.6140  -20.9250 N.am      1 6DP        -0.1893
     12 C          13.4930  -17.6480  -20.4660 C.ar      1 6DP         0.0663
     13 N1         12.7410  -21.0040  -19.4100 N.pl3     1 6DP        -0.2222
     14 N2         11.5220  -20.4640  -19.6420 N.2       1 6DP        -0.2173
     15 H1         10.6649  -18.5466  -20.2411 H         1 6DP         0.0699
     16 H2         15.6281  -20.8133  -19.3991 H         1 6DP         0.0389
     17 H3         16.7262  -18.7031  -20.0657 H         1 6DP         0.0531
     18 H4         15.3837  -16.6916  -20.7400 H         1 6DP         0.0365
     19 H5         14.5949  -15.1054  -19.3113 H         1 6DP         0.0488
     20 H6         13.0316  -15.1742  -18.4294 H         1 6DP         0.0488
     21 H7         13.6198  -13.6125  -19.0942 H         1 6DP         0.0488
     22 H8         11.8205  -16.9162  -21.4410 H         1 6DP         0.2204
     23 H9         12.9625  -21.9590  -19.0941 H         1 6DP         0.2424
@<TRIPOS>BOND
     1    1    2 ar 
     2    1    3 1  
     3   12    1 ar 
     4    2    4 ar 
     5    2   13 1  
     6    3   14 2  
     7    5    4 ar 
     8    6    5 ar 
     9   12    6 ar 
    10    8    7 2  
    11    8    9 2  
    12    8   10 1  
    13   11    8 am 
    14   11   12 1  
    15   13   14 1  
    16    3   15 1  
    17    4   16 1  
    18    5   17 1  
    19    6   18 1  
    20   10   19 1  
    21   10   20 1  
    22   10   21 1  
    23   11   22 1  
    24   13   23 1  
@<TRIPOS>SUBSTRUCTURE
     1 6DP         1

