### 
### Created by X-TOOL on Mon Sep 10 21:13:28 2018
### 

@<TRIPOS>MOLECULE
5l3e_ligand
   75    78     1     0     0
SMALL
GAST_HUCK


@<TRIPOS>ATOM
      1 N1         -1.8570   47.3940   82.7040 N.ar      1 E11        -0.2473
      2 C2         -1.3000   47.5440   83.9260 C.ar      1 E11         0.1533
      3 N3         -0.5810   46.5510   84.5010 N.ar      1 E11        -0.3045
      4 C4         -0.4370   45.3880   83.8050 C.ar      1 E11         0.0078
      5 C5         -1.0190   45.2400   82.5310 C.ar      1 E11         0.0267
      6 C6         -1.7420   46.2870   81.9680 C.ar      1 E11         0.1243
      7 CAC         0.3000   44.3380   84.3700 C.ar      1 E11        -0.0244
      8 CAD         0.4660   43.1290   83.6740 C.ar      1 E11         0.1276
      9 CAE        -0.1260   42.9920   82.4080 C.ar      1 E11         0.1272
     10 CAF        -0.8620   44.0510   81.8480 C.ar      1 E11        -0.0226
     11 OAK         0.0340   41.8140   81.7160 O.3       1 E11        -0.3230
     12 OAL         1.1800   42.0810   84.2120 O.3       1 E11        -0.3173
     13 NAM        -2.3480   46.2410   80.7510 N.pl3     1 E11        -0.2935
     14 NAN        -1.4840   48.7240   84.5450 N.pl3     1 E11        -0.2959
     15 CAO        -2.2640   49.7530   83.8710 C.3       1 E11         0.0349
     16 CAP        -1.7320   51.0670   84.3890 C.3       1 E11         0.0079
     17 CAQ        -2.2840   51.3200   85.7940 C.3       1 E11        -0.0305
     18 NAR        -2.1760   52.7490   86.1320 N.4       1 E11         0.2310
     19 CAS        -3.1090   53.5810   85.3020 C.3       1 E11        -0.0433
     20 CAU        -0.7380   53.1720   86.1760 C.3       1 E11        -0.0433
     21 CAV        -3.1230   47.3740   80.2460 C.3       1 E11         0.0528
     22 CAW        -3.2470   47.2050   78.7430 C.3       1 E11         0.0116
     23 CAX        -4.2650   48.1800   78.1340 C.3       1 E11        -0.0283
     24 NAY        -5.5790   48.2910   78.8150 N.4       1 E11         0.2473
     25 CAZ        -5.6760   47.2520   79.8740 C.3       1 E11        -0.0283
     26 CBA        -4.5210   47.3700   80.8860 C.3       1 E11         0.0116
     27 CBB        -6.6810   48.2810   77.7880 C.3       1 E11         0.0020
     28 CBC        -8.0720   48.5220   78.3630 C.ar      1 E11         0.0014
     29 CBD        -9.1640   47.7530   77.9080 C.ar      1 E11        -0.0553
     30 CBE       -10.4500   47.9340   78.4500 C.ar      1 E11        -0.0684
     31 CBF       -10.6530   48.8860   79.4570 C.ar      1 E11        -0.0687
     32 CBG        -9.5700   49.6510   79.9150 C.ar      1 E11        -0.0684
     33 CBH        -8.2840   49.4750   79.3740 C.ar      1 E11        -0.0553
     34 CBI         2.2240   42.2500   85.1780 C.3       1 E11         0.0599
     35 CBJ        -0.6830   41.4520   80.5150 C.3       1 E11         0.0572
     36 H1          0.7450   44.4597   85.3509 H         1 E11         0.0461
     37 H2         -1.3113   43.9323   80.8686 H         1 E11         0.0541
     38 H3         -2.2594   45.3922   80.1742 H         1 E11         0.1902
     39 H4         -1.0813   48.8965   85.4772 H         1 E11         0.1855
     40 H5         -3.3314   49.6476   84.1148 H         1 E11         0.0526
     41 H6         -2.1284   49.6862   82.7814 H         1 E11         0.0526
     42 H7         -2.0471   51.8804   83.7189 H         1 E11         0.0337
     43 H8         -0.6334   51.0286   84.4277 H         1 E11         0.0337
     44 H9         -1.7087   50.7297   86.5224 H         1 E11         0.0815
     45 H10        -3.3408   51.0170   85.8294 H         1 E11         0.0815
     46 H11        -2.5101   52.8441   87.0782 H         1 E11         0.2028
     47 H12        -3.0020   54.6398   85.5803 H         1 E11         0.0777
     48 H13        -4.1453   53.2580   85.4802 H         1 E11         0.0777
     49 H14        -2.8636   53.4552   84.2371 H         1 E11         0.0777
     50 H15        -0.1715   52.4793   86.8158 H         1 E11         0.0777
     51 H16        -0.6677   54.1903   86.5859 H         1 E11         0.0777
     52 H17        -0.3199   53.1565   85.1587 H         1 E11         0.0777
     53 H18        -2.6106   48.3187   80.4802 H         1 E11         0.0571
     54 H19        -3.5690   46.1756   78.5272 H         1 E11         0.0340
     55 H20        -2.2641   47.3858   78.2835 H         1 E11         0.0340
     56 H21        -4.4534   47.8599   77.0986 H         1 E11         0.0815
     57 H22        -3.8068   49.1800   78.1311 H         1 E11         0.0815
     58 H23        -5.6181   49.1857   79.2776 H         1 E11         0.2048
     59 H24        -5.6398   46.2580   79.4043 H         1 E11         0.0815
     60 H25        -6.6313   47.3716   80.4060 H         1 E11         0.0815
     61 H26        -4.6471   48.3083   81.4461 H         1 E11         0.0340
     62 H27        -4.5810   46.5182   81.5793 H         1 E11         0.0340
     63 H28        -6.6789   47.3007   77.2891 H         1 E11         0.0980
     64 H29        -6.4717   49.0688   77.0494 H         1 E11         0.0980
     65 H30        -9.0103   47.0131   77.1308 H         1 E11         0.0558
     66 H31       -11.2808   47.3385   78.0893 H         1 E11         0.0599
     67 H32       -11.6406   49.0308   79.8798 H         1 E11         0.0559
     68 H33        -9.7264   50.3868   80.6955 H         1 E11         0.0599
     69 H34        -7.4565   50.0741   79.7366 H         1 E11         0.0558
     70 H35         2.6359   41.2666   85.4485 H         1 E11         0.0579
     71 H36         1.8169   42.7367   86.0765 H         1 E11         0.0579
     72 H37         3.0209   42.8764   84.7509 H         1 E11         0.0579
     73 H38        -0.3558   40.4572   80.1784 H         1 E11         0.0573
     74 H39        -0.4764   42.1918   79.7276 H         1 E11         0.0573
     75 H40        -1.7626   41.4313   80.7246 H         1 E11         0.0573
@<TRIPOS>BOND
     1    1    2 ar 
     2    1    6 ar 
     3    2    3 ar 
     4    2   14 1  
     5    3    4 ar 
     6    4    5 ar 
     7    4    7 ar 
     8    5    6 ar 
     9    5   10 ar 
    10    6   13 1  
    11    7    8 ar 
    12    8    9 ar 
    13    8   12 1  
    14    9   10 ar 
    15    9   11 1  
    16   11   35 1  
    17   12   34 1  
    18   13   21 1  
    19   14   15 1  
    20   15   16 1  
    21   16   17 1  
    22   17   18 1  
    23   18   19 1  
    24   18   20 1  
    25   21   22 1  
    26   21   26 1  
    27   22   23 1  
    28   23   24 1  
    29   24   25 1  
    30   24   27 1  
    31   25   26 1  
    32   27   28 1  
    33   28   29 ar 
    34   28   33 ar 
    35   29   30 ar 
    36   30   31 ar 
    37   31   32 ar 
    38   32   33 ar 
    39    7   36 1  
    40   10   37 1  
    41   13   38 1  
    42   14   39 1  
    43   15   40 1  
    44   15   41 1  
    45   16   42 1  
    46   16   43 1  
    47   17   44 1  
    48   17   45 1  
    49   18   46 1  
    50   19   47 1  
    51   19   48 1  
    52   19   49 1  
    53   20   50 1  
    54   20   51 1  
    55   20   52 1  
    56   21   53 1  
    57   22   54 1  
    58   22   55 1  
    59   23   56 1  
    60   23   57 1  
    61   24   58 1  
    62   25   59 1  
    63   25   60 1  
    64   26   61 1  
    65   26   62 1  
    66   27   63 1  
    67   27   64 1  
    68   29   65 1  
    69   30   66 1  
    70   31   67 1  
    71   32   68 1  
    72   33   69 1  
    73   34   70 1  
    74   34   71 1  
    75   34   72 1  
    76   35   73 1  
    77   35   74 1  
    78   35   75 1  
@<TRIPOS>SUBSTRUCTURE
     1 E11         1

