### 
### Created by X-TOOL on Mon Sep 10 21:13:30 2018
### 

@<TRIPOS>MOLECULE
5l3j_ligand
   32    34     1     0     0
SMALL
GAST_HUCK


@<TRIPOS>ATOM
      1 C2        -10.3910   23.8520   28.1510 C.2       1 6G9         0.1492
      2 C4        -10.8280   23.0670   26.9650 C.2       1 6G9         0.2692
      3 C7        -10.7950   22.6020   24.4780 C.ar      1 6G9         0.0553
      4 C8        -10.4950   23.1730   23.2130 C.ar      1 6G9        -0.0527
      5 C12       -12.5370   19.4550   21.4280 C.2       1 6G9         0.2051
      6 N13       -13.0690   18.5500   20.5610 N.am      1 6G9        -0.1917
      7 C16       -14.0030   16.4470   19.9550 C.2       1 6G9         0.1381
      8 C17       -13.9050   16.5790   18.5950 C.2       1 6G9        -0.0471
      9 C18       -14.6560   15.5550   18.0540 C.2       1 6G9         0.0113
     10 N22       -14.8080   15.3870   20.2420 N.pl3     1 6G9        -0.2691
     11 C24       -11.8070   20.7680   23.3350 C.ar      1 6G9         0.0350
     12 O1        -11.1150   24.7250   28.5810 O.co2     1 6G9        -0.5455
     13 O3         -9.2310   23.5700   28.7690 O.co2     1 6G9        -0.5455
     14 O5        -11.6180   22.1850   27.2530 O.2       1 6G9        -0.3543
     15 N6        -10.4110   23.2610   25.6620 N.am      1 6G9        -0.2313
     16 C9        -10.8400   22.5530   22.0470 C.ar      1 6G9        -0.0745
     17 C10       -11.5210   21.3190   22.0830 C.ar      1 6G9        -0.0063
     18 N11       -11.9570   20.5460   21.0810 N.2       1 6G9        -0.3196
     19 C14       -13.4110   17.3000   20.9460 C.2       1 6G9         0.2605
     20 O15       -13.2850   16.8440   22.0710 O.2       1 6G9        -0.3726
     21 BR1       -14.8150   15.3080   16.1970 Br        1 6G9        -0.0767
     22 C20       -15.1990   14.8420   19.0790 C.2       1 6G9         0.1082
     23 BR2       -16.3160   13.3350   18.9910 Br        1 6G9        -0.0190
     24 S23       -12.6420   19.2590   23.1620 S.3       1 6G9         0.0230
     25 C25       -11.4530   21.3840   24.5080 C.ar      1 6G9        -0.0330
     26 H1         -9.9789   24.1254   23.1723 H         1 6G9         0.0451
     27 H2        -13.2114   18.8187   19.6084 H         1 6G9         0.2422
     28 H3        -13.3468   17.3390   18.0502 H         1 6G9         0.0406
     29 H4        -15.0702   15.0614   21.1834 H         1 6G9         0.2375
     30 H5         -9.7295   23.9827   25.5406 H         1 6G9         0.2247
     31 H6        -10.5909   23.0084   21.0953 H         1 6G9         0.0504
     32 H7        -11.6881   20.9178   25.4580 H         1 6G9         0.0433
@<TRIPOS>BOND
     1    2    1 1  
     2    1   12 ar 
     3    1   13 ar 
     4    2   14 2  
     5   15    2 am 
     6    3    4 ar 
     7    3   15 1  
     8   25    3 ar 
     9    4   16 ar 
    10    5    6 1  
    11    5   18 2  
    12   24    5 1  
    13    6   19 am 
    14    7    8 2  
    15    7   10 1  
    16   19    7 1  
    17    8    9 1  
    18    9   21 1  
    19   22    9 2  
    20   10   22 1  
    21   11   17 ar 
    22   11   24 1  
    23   11   25 ar 
    24   16   17 ar 
    25   17   18 1  
    26   19   20 2  
    27   22   23 1  
    28    4   26 1  
    29    6   27 1  
    30    8   28 1  
    31   10   29 1  
    32   15   30 1  
    33   16   31 1  
    34   25   32 1  
@<TRIPOS>SUBSTRUCTURE
     1 6G9         1

