### 
### Created by X-TOOL on Mon Sep 10 21:13:29 2018
### 

@<TRIPOS>MOLECULE
5l4e_ligand
   34    34     1     0     0
SMALL
GAST_HUCK


@<TRIPOS>ATOM
      1 C1         64.5520  -26.4530   57.4600 C.3       1 EDP         0.1458
      2 C2         63.6240  -25.3300   57.0280 C.2       1 EDP         0.2435
      3 N3         62.8650  -25.5350   55.9060 N.am      1 EDP        -0.1922
      4 C4         62.8510  -26.6430   55.1180 C.2       1 EDP         0.1947
      5 N5         63.6740  -27.6600   55.4860 N.am      1 EDP        -0.1922
      6 C6         64.5090  -27.6930   56.5710 C.2       1 EDP         0.2435
      7 O7         65.1400  -28.7100   56.8270 O.2       1 EDP        -0.3330
      8 O8         63.5810  -24.2600   57.6170 O.2       1 EDP        -0.3330
      9 S9         61.8600  -26.7550   53.7730 S.2       1 EDP        -0.2773
     10 C12        65.9250  -25.7370   57.3520 C.3       1 EDP        -0.0353
     11 C13        67.1370  -26.6100   57.5010 C.3       1 EDP        -0.0665
     12 C14        64.2090  -26.9780   58.9050 C.3       1 EDP        -0.0235
     13 C15        62.7080  -26.9680   59.1830 C.3       1 EDP        -0.0636
     14 C16        64.9200  -26.2850   60.0910 C.3       1 EDP        -0.0519
     15 C17        65.4410  -27.2480   61.1450 C.3       1 EDP        -0.0559
     16 C18        66.3080  -26.5830   62.1840 C.3       1 EDP        -0.0653
     17 H1         62.2554  -24.7891   55.6376 H         1 EDP         0.2374
     18 H2         63.6694  -28.4715   54.9017 H         1 EDP         0.2374
     19 H3         65.9660  -24.9678   58.1373 H         1 EDP         0.0242
     20 H4         65.9766  -25.2557   56.3642 H         1 EDP         0.0242
     21 H5         68.0449  -25.9961   57.4068 H         1 EDP         0.0227
     22 H6         67.1325  -27.3807   56.7162 H         1 EDP         0.0227
     23 H7         67.1219  -27.0929   58.4892 H         1 EDP         0.0227
     24 H8         64.5361  -28.0281   58.9208 H         1 EDP         0.0278
     25 H9         62.5211  -27.3419   60.2005 H         1 EDP         0.0230
     26 H10        62.1959  -27.6144   58.4550 H         1 EDP         0.0230
     27 H11        62.3254  -25.9405   59.0939 H         1 EDP         0.0230
     28 H12        64.2054  -25.6001   60.5708 H         1 EDP         0.0265
     29 H13        65.7708  -25.7100   59.6966 H         1 EDP         0.0265
     30 H14        66.0330  -28.0277   60.6434 H         1 EDP         0.0263
     31 H15        64.5808  -27.7098   61.6518 H         1 EDP         0.0263
     32 H16        66.6491  -27.3338   62.9120 H         1 EDP         0.0230
     33 H17        65.7276  -25.8061   62.7032 H         1 EDP         0.0230
     34 H18        67.1798  -26.1240   61.6949 H         1 EDP         0.0230
@<TRIPOS>BOND
     1    1    2 1  
     2    1    6 1  
     3    1   10 1  
     4    1   12 1  
     5    2    3 am 
     6    2    8 2  
     7    3    4 am 
     8    4    5 am 
     9    4    9 2  
    10    5    6 am 
    11    6    7 2  
    12   10   11 1  
    13   12   13 1  
    14   12   14 1  
    15   14   15 1  
    16   15   16 1  
    17    3   17 1  
    18    5   18 1  
    19   10   19 1  
    20   10   20 1  
    21   11   21 1  
    22   11   22 1  
    23   11   23 1  
    24   12   24 1  
    25   13   25 1  
    26   13   26 1  
    27   13   27 1  
    28   14   28 1  
    29   14   29 1  
    30   15   30 1  
    31   15   31 1  
    32   16   32 1  
    33   16   33 1  
    34   16   34 1  
@<TRIPOS>SUBSTRUCTURE
     1 EDP         1

