### 
### Created by X-TOOL on Mon Sep 10 21:13:27 2018
### 

@<TRIPOS>MOLECULE
5l4f_ligand
   20    20     1     0     0
SMALL
GAST_HUCK


@<TRIPOS>ATOM
      1 O10        84.0340   -1.6190   66.7060 O.2       1 6J1        -0.0275
      2 C01        87.1380   -1.3560   71.8550 C.3       1 6J1         0.0270
      3 C02        86.7460   -0.9070   70.4810 C.ar      1 6J1         0.0811
      4 C03        87.4660    0.0940   69.8460 C.ar      1 6J1         0.0902
      5 C04        87.1100    0.5110   68.5670 C.ar      1 6J1         0.3090
      6 C05        86.0300   -0.0550   67.8880 C.ar      1 6J1         0.3147
      7 C06        85.3130   -1.0620   68.5360 C.ar      1 6J1         0.3090
      8 C07        85.6630   -1.4870   69.8160 C.ar      1 6J1         0.0902
      9 N08        84.1570   -1.7150   67.9000 N.2       1 6J1         0.1757
     10 O09        83.3810   -2.3150   68.6140 O.2       1 6J1        -0.0275
     11 O11        85.6520    0.3200   66.6460 O.3       1 6J1        -0.2208
     12 N12        87.9310    1.5950   67.9420 N.2       1 6J1         0.1757
     13 O13        88.9820    1.8980   68.4590 O.2       1 6J1        -0.0275
     14 O14        87.5020    2.1220   66.9430 O.2       1 6J1        -0.0275
     15 H1         88.0089   -0.7767   72.1955 H         1 6J1         0.0712
     16 H2         87.3952   -2.4252   71.8319 H         1 6J1         0.0712
     17 H3         86.2979   -1.1958   72.5467 H         1 6J1         0.0712
     18 H4         88.3097    0.5535   70.3482 H         1 6J1         0.1098
     19 H5         85.0918   -2.2719   70.2984 H         1 6J1         0.1098
     20 H6         86.2279    1.0088   66.3354 H         1 6J1         0.3248
@<TRIPOS>BOND
     1    9    1 2  
     2    3    2 1  
     3    3    4 ar 
     4    8    3 ar 
     5    5    4 ar 
     6    6    5 ar 
     7    5   12 1  
     8    7    6 ar 
     9    6   11 1  
    10    7    8 ar 
    11    7    9 1  
    12    9   10 2  
    13   12   13 2  
    14   12   14 2  
    15    2   15 1  
    16    2   16 1  
    17    2   17 1  
    18    4   18 1  
    19    8   19 1  
    20   11   20 1  
@<TRIPOS>SUBSTRUCTURE
     1 6J1         1

