### 
### Created by X-TOOL on Mon Sep 10 21:13:29 2018
### 

@<TRIPOS>MOLECULE
5l4h_ligand
   25    25     1     0     0
SMALL
GAST_HUCK


@<TRIPOS>ATOM
      1 C          63.0330  -27.2680   53.9470 C.3       1 6JW        -0.0664
      2 O          61.9370  -24.7900   53.5650 O.2       1 6JW        -0.3361
      3 N          62.3750  -24.0470   55.6290 N.am      1 6JW        -0.1803
      4 BR         59.0730  -25.9560   51.6650 Br        1 6JW        -0.0921
      5 C1         62.0260  -27.4370   55.0680 C.3       1 6JW        -0.0356
      6 C2         61.1600  -26.1860   55.3440 C.3       1 6JW         0.1406
      7 C3         59.7950  -26.2630   54.6230 C.3       1 6JW        -0.0232
      8 C4         59.9660  -26.8090   53.2260 C.3       1 6JW         0.0022
      9 C5         61.8850  -24.9870   54.7680 C.2       1 6JW         0.2369
     10 C6         62.2130  -24.0250   56.9870 C.2       1 6JW         0.3187
     11 C7         60.9430  -26.1070   56.8460 C.2       1 6JW         0.2369
     12 O2         60.3240  -26.9690   57.4540 O.2       1 6JW        -0.3361
     13 N1         61.4920  -25.0560   57.5270 N.am      1 6JW        -0.1803
     14 O1         62.6500  -23.1100   57.6730 O.2       1 6JW        -0.3814
     15 H1         63.6015  -28.2013   53.8210 H         1 6JW         0.0227
     16 H2         63.7237  -26.4486   54.1950 H         1 6JW         0.0227
     17 H3         62.5044  -27.0316   53.0118 H         1 6JW         0.0227
     18 H4         62.9050  -23.3005   55.2266 H         1 6JW         0.2265
     19 H5         62.5746  -27.6853   55.9885 H         1 6JW         0.0243
     20 H6         61.3553  -28.2683   54.8053 H         1 6JW         0.0243
     21 H7         59.3577  -25.2552   54.5669 H         1 6JW         0.0253
     22 H8         59.1226  -26.9235   55.1901 H         1 6JW         0.0253
     23 H9         61.0454  -26.7912   53.0150 H         1 6JW         0.0379
     24 H10        59.6150  -27.8511   53.2541 H         1 6JW         0.0379
     25 H11        61.3532  -25.0387   58.5172 H         1 6JW         0.2265
@<TRIPOS>BOND
     1    5    1 1  
     2    9    2 2  
     3    9    3 am 
     4    3   10 am 
     5    8    4 1  
     6    6    5 1  
     7    7    6 1  
     8    6    9 1  
     9    6   11 1  
    10    7    8 1  
    11   10   13 am 
    12   10   14 2  
    13   11   12 2  
    14   11   13 am 
    15    1   15 1  
    16    1   16 1  
    17    1   17 1  
    18    3   18 1  
    19    5   19 1  
    20    5   20 1  
    21    7   21 1  
    22    7   22 1  
    23    8   23 1  
    24    8   24 1  
    25   13   25 1  
@<TRIPOS>SUBSTRUCTURE
     1 6JW         1

