### 
### Created by X-TOOL on Mon Sep 10 21:13:26 2018
### 

@<TRIPOS>MOLECULE
5l4i_ligand
   28    29     1     0     0
SMALL
GAST_HUCK


@<TRIPOS>ATOM
      1 O01         0.0610    0.0230    2.0880 O.co2     1 6J3        -0.5627
      2 C02         0.0300   -0.0150    3.3820 C.2       1 6J3         0.0642
      3 O03         0.8250    0.6350    4.1210 O.co2     1 6J3        -0.5627
      4 C04        -1.0020   -0.8590    4.0120 C.ar      1 6J3         0.0593
      5 C05        -1.9080   -1.5270    3.1930 C.ar      1 6J3        -0.0390
      6 C06        -2.9060   -2.3330    3.7590 C.ar      1 6J3        -0.0437
      7 C07        -2.9440   -2.4260    5.1620 C.ar      1 6J3        -0.0005
      8 N08        -2.0750   -1.7860    5.9900 N.ar      1 6J3        -0.2778
      9 C09        -1.1160   -1.0130    5.4310 C.ar      1 6J3         0.1450
     10 N10        -0.2490   -0.3800    6.2620 N.pl3     1 6J3        -0.2608
     11 C11        -0.1670   -0.4650    7.6500 C.ar      1 6J3         0.0651
     12 C12         0.0520    0.7340    8.3860 C.ar      1 6J3        -0.0079
     13 C13         0.1980    2.0750    7.7490 C.3       1 6J3        -0.0329
     14 C14         0.1290    0.6170    9.7710 C.ar      1 6J3         0.0317
     15 CL          0.4030    2.0390   10.6770 Cl        1 6J3        -0.0806
     16 C16         0.0090   -0.5780   10.4630 C.ar      1 6J3        -0.0664
     17 C17        -0.2070   -1.7450    9.7250 C.ar      1 6J3        -0.0781
     18 C18        -0.2870   -1.6910    8.3350 C.ar      1 6J3        -0.0448
     19 H1         -1.8418   -1.4239    2.1159 H         1 6J3         0.0734
     20 H2         -3.6202   -2.8636    3.1397 H         1 6J3         0.0609
     21 H3         -3.7124   -3.0452    5.6106 H         1 6J3         0.0804
     22 H4          0.4352    0.2422    5.8085 H         1 6J3         0.2119
     23 H5          0.1100    1.9738    6.6572 H         1 6J3         0.0370
     24 H6          1.1832    2.4949    8.0001 H         1 6J3         0.0370
     25 H7         -0.5916    2.7451    8.1199 H         1 6J3         0.0370
     26 H8          0.0806   -0.6065   11.5443 H         1 6J3         0.0506
     27 H9         -0.3126   -2.6953   10.2357 H         1 6J3         0.0530
     28 H10        -0.4437   -2.6044    7.7727 H         1 6J3         0.0515
@<TRIPOS>BOND
     1    1    2 ar 
     2    2    3 ar 
     3    2    4 1  
     4    4    5 ar 
     5    4    9 ar 
     6    5    6 ar 
     7    6    7 ar 
     8    7    8 ar 
     9    8    9 ar 
    10    9   10 1  
    11   10   11 1  
    12   11   12 ar 
    13   11   18 ar 
    14   12   13 1  
    15   12   14 ar 
    16   14   15 1  
    17   14   16 ar 
    18   16   17 ar 
    19   17   18 ar 
    20    5   19 1  
    21    6   20 1  
    22    7   21 1  
    23   10   22 1  
    24   13   23 1  
    25   13   24 1  
    26   13   25 1  
    27   16   26 1  
    28   17   27 1  
    29   18   28 1  
@<TRIPOS>SUBSTRUCTURE
     1 6J3         1

