### 
### Created by X-TOOL on Mon Sep 10 21:13:27 2018
### 

@<TRIPOS>MOLECULE
5l4j_ligand
   27    28     1     0     0
SMALL
GAST_HUCK


@<TRIPOS>ATOM
      1 O01       -41.4930   -1.3160   68.4570 O.2       1 6JD        -0.1671
      2 S02       -42.3750   -0.2180   68.6590 S.o2      1 6JD         0.0155
      3 O03       -41.9950    1.0670   68.1830 O.2       1 6JD        -0.1671
      4 C04       -43.9080   -0.6500   67.9140 C.ar      1 6JD         0.0809
      5 C05       -44.5200   -1.8930   68.1850 C.ar      1 6JD        -0.0456
      6 C06       -45.7370   -2.2060   67.5700 C.ar      1 6JD        -0.0316
      7 C07       -46.3320   -1.3120   66.6890 C.ar      1 6JD         0.0877
      8 O08       -47.5260   -1.6200   66.0780 O.3       1 6JD        -0.3331
      9 C09       -45.7260   -0.0910   66.4130 C.ar      1 6JD        -0.0316
     10 C10       -44.5140    0.2460   67.0180 C.ar      1 6JD        -0.0456
     11 C11       -42.6470   -0.0940   70.3920 C.ar      1 6JD         0.0809
     12 C12       -42.2910    1.0820   71.0780 C.ar      1 6JD        -0.0456
     13 C13       -42.5060    1.1670   72.4610 C.ar      1 6JD        -0.0316
     14 C14       -43.0630    0.0980   73.1550 C.ar      1 6JD         0.0877
     15 O15       -43.2770    0.1710   74.5120 O.3       1 6JD        -0.3331
     16 C16       -43.4100   -1.0650   72.4780 C.ar      1 6JD        -0.0316
     17 C17       -43.1990   -1.1590   71.1040 C.ar      1 6JD        -0.0456
     18 H1        -44.0518   -2.5977   68.8627 H         1 6JD         0.0608
     19 H2        -46.2192   -3.1533   67.7826 H         1 6JD         0.0542
     20 H3        -47.7858   -0.9019   65.5129 H         1 6JD         0.2481
     21 H4        -46.1969    0.6019   65.7251 H         1 6JD         0.0542
     22 H5        -44.0419    1.1964   66.7970 H         1 6JD         0.0608
     23 H6        -41.8537    1.9161   70.5412 H         1 6JD         0.0608
     24 H7        -42.2362    2.0721   72.9930 H         1 6JD         0.0542
     25 H8        -43.6609   -0.6434   74.8152 H         1 6JD         0.2481
     26 H9        -43.8444   -1.8982   73.0184 H         1 6JD         0.0542
     27 H10       -43.4670   -2.0705   70.5821 H         1 6JD         0.0608
@<TRIPOS>BOND
     1    1    2 2  
     2    2    3 2  
     3    2    4 1  
     4    2   11 1  
     5    4    5 ar 
     6    4   10 ar 
     7    5    6 ar 
     8    6    7 ar 
     9    7    8 1  
    10    7    9 ar 
    11    9   10 ar 
    12   11   12 ar 
    13   11   17 ar 
    14   12   13 ar 
    15   13   14 ar 
    16   14   15 1  
    17   14   16 ar 
    18   16   17 ar 
    19    5   18 1  
    20    6   19 1  
    21    8   20 1  
    22    9   21 1  
    23   10   22 1  
    24   12   23 1  
    25   13   24 1  
    26   15   25 1  
    27   16   26 1  
    28   17   27 1  
@<TRIPOS>SUBSTRUCTURE
     1 6JD         1

