### 
### Created by X-TOOL on Mon Sep 10 21:13:26 2018
### 

@<TRIPOS>MOLECULE
5l4m_ligand
   17    17     1     0     0
SMALL
GAST_HUCK


@<TRIPOS>ATOM
      1 C01       -22.1570   -0.0760  -23.6180 C.ar      1 SBK        -0.0253
      2 C02       -21.9950    0.8930  -24.6570 C.ar      1 SBK         0.0938
      3 C03       -21.0420    0.6400  -25.6690 C.ar      1 SBK         0.1785
      4 N04       -20.3060   -0.4520  -25.6780 N.ar      1 SBK        -0.2569
      5 C05       -20.4530   -1.3570  -24.7090 C.ar      1 SBK         0.1203
      6 C06       -21.3610   -1.2370  -23.6350 C.ar      1 SBK         0.0720
      7 CL6       -21.5190   -2.4780  -22.3850 Cl        1 SBK        -0.0731
      8 CL5       -19.4160   -2.7390  -24.8300 Cl        1 SBK        -0.0423
      9 O09       -20.9070    1.5550  -26.6530 O.3       1 SBK        -0.2845
     10 C10       -20.3560    1.0950  -27.9190 C.3       1 SBK         0.1264
     11 C11       -21.2800    0.1060  -28.5650 C.2       1 SBK         0.0659
     12 O12       -22.0540   -0.6400  -27.8250 O.co2     1 SBK        -0.5662
     13 O13       -21.2840    0.0100  -29.7800 O.co2     1 SBK        -0.5662
     14 CL2       -22.9690    2.3590  -24.6650 Cl        1 SBK        -0.0715
     15 H1        -22.8827    0.0812  -22.8282 H         1 SBK         0.0708
     16 H2        -19.3825    0.6160  -27.7375 H         1 SBK         0.0791
     17 H3        -20.2215    1.9564  -28.5897 H         1 SBK         0.0791
@<TRIPOS>BOND
     1    1    2 ar 
     2    1    6 ar 
     3    2    3 ar 
     4    2   14 1  
     5    3    4 ar 
     6    3    9 1  
     7    4    5 ar 
     8    5    6 ar 
     9    5    8 1  
    10    6    7 1  
    11    9   10 1  
    12   10   11 1  
    13   11   12 ar 
    14   11   13 ar 
    15    1   15 1  
    16   10   16 1  
    17   10   17 1  
@<TRIPOS>SUBSTRUCTURE
     1 SBK         1

