### 
### Created by X-TOOL on Mon Sep 10 21:13:31 2018
### 

@<TRIPOS>MOLECULE
5l6h_ligand
   49    52     1     0     0
SMALL
GAST_HUCK


@<TRIPOS>ATOM
      1 C8         -4.4280   28.0770  -10.0740 C.ar      1 6O2         0.0152
      2 C5         -8.1700   25.5100  -11.8910 C.ar      1 6O2         0.1520
      3 C6         -6.5050   27.0130  -10.8820 C.ar      1 6O2         0.0658
      4 N1        -10.5270   24.7650  -13.1050 N.ar      1 6O2        -0.2704
      5 C2        -11.4140   26.6410  -15.2970 C.3       1 6O2         0.2010
      6 N3         -7.0650   25.7920  -11.1600 N.pl3     1 6O2        -0.2539
      7 C4         -9.9760   24.0670  -12.1290 C.ar      1 6O2         0.0545
      8 C13        -2.1600   27.5710   -8.9950 C.1       1 6O2        -0.1140
      9 C12        -3.2820   27.8260   -9.5430 C.1       1 6O2        -0.0726
     10 C7         -5.2150   26.9660  -10.3540 C.ar      1 6O2        -0.0230
     11 C9         -4.9350   29.3160  -10.3070 C.ar      1 6O2        -0.0577
     12 C10        -6.2200   29.3920  -10.8310 C.ar      1 6O2        -0.0699
     13 C11        -7.0070   28.2810  -11.1040 C.ar      1 6O2        -0.0377
     14 N2         -8.8210   24.4100  -11.5450 N.ar      1 6O2        -0.2661
     15 C3         -9.8860   25.8470  -13.5400 C.ar      1 6O2         0.1624
     16 C14        -8.6990   26.2510  -12.9550 C.ar      1 6O2         0.1087
     17 N4         -8.3290   27.3790  -13.5870 N.2       1 6O2        -0.2951
     18 C15        -9.2910   27.6770  -14.4740 C.2       1 6O2         0.1125
     19 N         -10.2260   26.7370  -14.4470 N.pl3     1 6O2        -0.1916
     20 O1        -10.9840   26.3270  -16.6350 O.3       1 6O2        -0.3367
     21 C16       -12.2290   27.9050  -15.4060 C.3       1 6O2         0.1385
     22 O2        -13.1710   27.9420  -14.3500 O.3       1 6O2        -0.3836
     23 C17       -12.8850   27.7590  -16.7920 C.3       1 6O2         0.1146
     24 O3        -14.1840   27.1690  -16.7950 O.3       1 6O2        -0.3864
     25 C1        -11.9720   26.7820  -17.5410 C.3       1 6O2         0.1161
     26 C         -11.3520   27.4320  -18.8030 C.3       1 6O2         0.1069
     27 O         -12.3690   27.5280  -19.8340 O.3       1 6O2        -0.2201
     28 S         -12.5150   28.8310  -20.6420 S.o2      1 6O2         0.1598
     29 O4        -13.6790   28.7410  -21.4810 O.2       1 6O2        -0.1270
     30 O5        -12.4440   30.0440  -19.9140 O.2       1 6O2        -0.1270
     31 N5        -11.1970   28.8460  -21.5430 N.am      1 6O2        -0.2415
     32 H1        -12.0564   25.8383  -14.9059 H         1 6O2         0.0996
     33 H2         -6.5786   24.9780  -10.7578 H         1 6O2         0.2172
     34 H3        -10.4831   23.1732  -11.7839 H         1 6O2         0.0998
     35 H4         -1.2303   27.3597   -8.5409 H         1 6O2         0.1233
     36 H5         -4.7942   25.9889  -10.1462 H         1 6O2         0.0546
     37 H6         -4.3600   30.2096  -10.0927 H         1 6O2         0.0534
     38 H7         -6.6309   30.3735  -11.0382 H         1 6O2         0.0589
     39 H8         -8.0119   28.4081  -11.4900 H         1 6O2         0.0539
     40 H9         -9.3021   28.5557  -15.1171 H         1 6O2         0.1351
     41 H10       -11.5944   28.8026  -15.3654 H         1 6O2         0.0676
     42 H11       -13.7432   27.1861  -14.4110 H         1 6O2         0.2101
     43 H12       -12.9271   28.7393  -17.2892 H         1 6O2         0.0648
     44 H13       -14.1343   26.2946  -16.4270 H         1 6O2         0.2100
     45 H14       -12.5719   25.9195  -17.8669 H         1 6O2         0.0648
     46 H15       -10.5178   26.8129  -19.1646 H         1 6O2         0.0611
     47 H16       -10.9818   28.4378  -18.5556 H         1 6O2         0.0611
     48 H17       -11.0342   29.6009  -22.1783 H         1 6O2         0.1654
     49 H18       -10.5343   28.1005  -21.4720 H         1 6O2         0.1654
@<TRIPOS>BOND
     1    1    9 1  
     2   10    1 ar 
     3    1   11 ar 
     4    2    6 1  
     5    2   14 ar 
     6   16    2 ar 
     7    6    3 1  
     8    3   10 ar 
     9    3   13 ar 
    10    4    7 ar 
    11   15    4 ar 
    12   19    5 1  
    13    5   20 1  
    14    5   21 1  
    15    7   14 ar 
    16    9    8 3  
    17   12   11 ar 
    18   13   12 ar 
    19   15   16 ar 
    20   15   19 1  
    21   16   17 1  
    22   17   18 2  
    23   18   19 1  
    24   20   25 1  
    25   21   22 1  
    26   21   23 1  
    27   23   24 1  
    28   23   25 1  
    29   25   26 1  
    30   26   27 1  
    31   27   28 1  
    32   28   29 2  
    33   28   30 2  
    34   28   31 am 
    35    5   32 1  
    36    6   33 1  
    37    7   34 1  
    38    8   35 1  
    39   10   36 1  
    40   11   37 1  
    41   12   38 1  
    42   13   39 1  
    43   18   40 1  
    44   21   41 1  
    45   22   42 1  
    46   23   43 1  
    47   24   44 1  
    48   25   45 1  
    49   26   46 1  
    50   26   47 1  
    51   31   48 1  
    52   31   49 1  
@<TRIPOS>SUBSTRUCTURE
     1 6O2         1

