### 
### Created by X-TOOL on Mon Sep 10 21:13:31 2018
### 

@<TRIPOS>MOLECULE
5l6i_ligand
   56    60     1     0     0
SMALL
GAST_HUCK


@<TRIPOS>ATOM
      1 C4        -11.8060   26.5070  -14.7120 C.3       1 B39         0.0684
      2 C5        -11.4010   26.3500  -16.1620 C.3       1 B39        -0.0155
      3 C6        -11.8680   27.6170  -16.8360 C.3       1 B39         0.0136
      4 C8        -12.0430   27.4560  -18.3380 C.3       1 B39         0.0834
      5 C10        -8.8680   27.8580  -12.9600 C.2       1 B39        -0.0543
      6 C13       -10.2910   26.0500  -12.7830 C.ar      1 B39         0.1381
      7 C15       -10.2570   24.3600  -11.1850 C.ar      1 B39         0.0500
      8 C17        -8.5330   26.0260  -10.9580 C.ar      1 B39         0.1206
      9 C20        -7.2020   28.9630   -9.9320 C.3       1 B39        -0.0118
     10 C21        -5.2710   27.6190   -9.8350 C.ar      1 B39        -0.0153
     11 C22        -4.9000   28.9650   -9.3690 C.ar      1 B39        -0.0385
     12 C24        -2.7850   28.1390   -8.6060 C.ar      1 B39        -0.0755
     13 C26        -4.3610   26.5760   -9.6700 C.ar      1 B39        -0.0646
     14 C19        -6.0310   29.9280   -9.6270 C.3       1 B39        -0.0177
     15 C23        -3.6710   29.2090   -8.7540 C.ar      1 B39        -0.0668
     16 C25        -3.1300   26.8540   -9.0580 C.ar      1 B39        -0.0754
     17 C1         -6.6320   27.6230  -10.4570 C.3       1 B39         0.0741
     18 N18        -7.4550   26.4310  -10.2110 N.pl3     1 B39        -0.2885
     19 N16        -9.1720   24.8900  -10.5660 N.ar      1 B39        -0.2730
     20 N14       -10.8100   24.9090  -12.2680 N.ar      1 B39        -0.2771
     21 C12        -9.1110   26.7010  -12.1690 C.ar      1 B39         0.0436
     22 C11        -9.8180   27.8800  -13.9670 C.2       1 B39         0.0280
     23 N7        -10.6430   26.8160  -13.8350 N.pl3     1 B39        -0.2493
     24 C3        -12.8480   27.6350  -14.6630 C.3       1 B39         0.0035
     25 C2        -13.1240   28.0520  -16.0870 C.3       1 B39         0.0631
     26 O9        -14.3000   27.4050  -16.5770 O.3       1 B39        -0.3913
     27 O27       -12.4150   28.7730  -18.7000 O.3       1 B39        -0.2225
     28 S28       -12.6570   29.2950  -20.1110 S.o2      1 B39         0.1597
     29 O29       -13.8710   28.7750  -20.6800 O.2       1 B39        -0.1270
     30 O30       -12.7070   30.7290  -19.9920 O.2       1 B39        -0.1270
     31 N31       -11.4390   28.8450  -21.0390 N.am      1 B39        -0.2415
     32 H1        -12.2645   25.5706  -14.3615 H         1 B39         0.0646
     33 H2        -11.8909   25.4717  -16.6076 H         1 B39         0.0299
     34 H3        -10.3096   26.2450  -16.2496 H         1 B39         0.0299
     35 H4        -11.1004   28.3911  -16.6894 H         1 B39         0.0350
     36 H5        -12.8340   26.7305  -18.5787 H         1 B39         0.0588
     37 H6        -11.1051   27.1511  -18.8252 H         1 B39         0.0588
     38 H7         -8.0792   28.5921  -12.8024 H         1 B39         0.0311
     39 H8        -10.6927   23.4526  -10.7827 H         1 B39         0.0975
     40 H9         -7.8570   29.4086  -10.6951 H         1 B39         0.0329
     41 H10        -7.7793   28.7827   -9.0132 H         1 B39         0.0329
     42 H11        -1.8211   28.3018   -8.1375 H         1 B39         0.0541
     43 H12        -4.5992   25.5736  -10.0068 H         1 B39         0.0538
     44 H13        -6.2410   30.5461   -8.7417 H         1 B39         0.0413
     45 H14        -5.8144   30.5798  -10.4862 H         1 B39         0.0413
     46 H15        -3.4114   30.2006   -8.4012 H         1 B39         0.0537
     47 H16        -2.4178   26.0471   -8.9288 H         1 B39         0.0541
     48 H17        -6.5204   27.6915  -11.5492 H         1 B39         0.0712
     49 H18        -7.1994   25.8451   -9.4033 H         1 B39         0.1890
     50 H19        -9.8900   28.6377  -14.7459 H         1 B39         0.0924
     51 H20       -12.4535   28.4875  -14.0907 H         1 B39         0.0320
     52 H21       -13.7731   27.2729  -14.1907 H         1 B39         0.0320
     53 H22       -13.2562   29.1417  -16.1577 H         1 B39         0.0598
     54 H23       -14.1774   26.4634  -16.5482 H         1 B39         0.2098
     55 H24       -11.4263   29.0999  -22.0059 H         1 B39         0.1654
     56 H25       -10.6885   28.3082  -20.6536 H         1 B39         0.1654
@<TRIPOS>BOND
     1    1    2 1  
     2   23    1 1  
     3    1   24 1  
     4    2    3 1  
     5    3    4 1  
     6    3   25 1  
     7    4   27 1  
     8   21    5 1  
     9    5   22 2  
    10    6   20 ar 
    11   21    6 ar 
    12    6   23 1  
    13   19    7 ar 
    14    7   20 ar 
    15   18    8 1  
    16    8   19 ar 
    17    8   21 ar 
    18    9   14 1  
    19   17    9 1  
    20   10   11 ar 
    21   10   13 ar 
    22   17   10 1  
    23   11   14 1  
    24   11   15 ar 
    25   15   12 ar 
    26   16   12 ar 
    27   13   16 ar 
    28   17   18 1  
    29   22   23 1  
    30   24   25 1  
    31   25   26 1  
    32   27   28 1  
    33   28   29 2  
    34   28   30 2  
    35   28   31 am 
    36    1   32 1  
    37    2   33 1  
    38    2   34 1  
    39    3   35 1  
    40    4   36 1  
    41    4   37 1  
    42    5   38 1  
    43    7   39 1  
    44    9   40 1  
    45    9   41 1  
    46   12   42 1  
    47   13   43 1  
    48   14   44 1  
    49   14   45 1  
    50   15   46 1  
    51   16   47 1  
    52   17   48 1  
    53   18   49 1  
    54   22   50 1  
    55   24   51 1  
    56   24   52 1  
    57   25   53 1  
    58   26   54 1  
    59   31   55 1  
    60   31   56 1  
@<TRIPOS>SUBSTRUCTURE
     1 B39         1

