### 
### Created by X-TOOL on Mon Sep 10 21:13:31 2018
### 

@<TRIPOS>MOLECULE
5l6j_ligand
   54    57     1     0     0
SMALL
GAST_HUCK


@<TRIPOS>ATOM
      1 O3        -13.4540   28.0480  -14.3040 O.3       1 61T        -0.3868
      2 O1        -12.5440   30.4410  -19.9920 O.2       1 61T        -0.1270
      3 O2        -12.5310   28.0060  -19.6590 O.3       1 61T        -0.2225
      4 O4        -14.3370   27.2910  -16.9140 O.3       1 61T        -0.3888
      5 C5        -10.6170   25.0020  -13.4390 C.2       1 61T         0.0197
      6 C6        -10.1130   23.9600  -12.4770 C.2       1 61T        -0.0098
      7 C7         -8.6010   25.4430  -11.6840 C.2       1 61T         0.1492
      8 C8         -7.6010   26.0070  -10.9790 C.2       1 61T        -0.0367
      9 C9         -7.4500   27.3960  -11.4330 C.2       1 61T         0.0183
     10 C10        -6.5200   28.4310  -10.9740 C.ar      1 61T        -0.0231
     11 C13        -4.6820   30.3940  -10.0380 C.ar      1 61T        -0.0496
     12 C14        -4.7050   29.1170   -9.4880 C.ar      1 61T         0.0238
     13 C15        -5.6030   28.1500   -9.9550 C.ar      1 61T        -0.0425
     14 C16        -2.3340   27.6490   -8.8660 C.3       1 61T         0.4570
     15 C17       -12.5070   28.1810  -15.3760 C.3       1 61T         0.1053
     16 C18       -13.0750   27.9540  -16.7830 C.3       1 61T         0.0884
     17 O         -13.6360   29.0770  -21.5500 O.2       1 61T        -0.1270
     18 S         -12.5050   29.1790  -20.6810 S.o2      1 61T         0.1597
     19 N         -11.1170   29.1890  -21.4950 N.am      1 61T        -0.2415
     20 C         -11.4820   27.8170  -18.7080 C.3       1 61T         0.0835
     21 C1        -12.0520   27.0840  -17.5120 C.3       1 61T         0.0155
     22 C2        -10.9370   26.6850  -16.5630 C.3       1 61T        -0.0187
     23 C3        -11.4230   27.1750  -15.2580 C.3       1 61T         0.0761
     24 N1        -10.3870   27.3440  -14.2750 N.pl3     1 61T        -0.2637
     25 C4        -10.0250   26.2140  -13.4190 C.2       1 61T         0.2239
     26 N2         -9.1170   24.2130  -11.6170 N.2       1 61T        -0.2949
     27 N4         -9.0330   26.3750  -12.5410 N.pl3     1 61T        -0.1123
     28 N3         -8.3620   27.5840  -12.4360 N.2       1 61T        -0.2081
     29 C11        -6.4970   29.7190  -11.5250 C.ar      1 61T        -0.0612
     30 C12        -5.5920   30.6780  -11.0600 C.ar      1 61T        -0.0672
     31 S1         -3.6700   28.6320   -8.2520 S.3       1 61T         0.0083
     32 F2         -1.4130   27.4640   -7.9350 F         1 61T        -0.1582
     33 F          -1.7480   28.3400   -9.8170 F         1 61T        -0.1582
     34 F1         -2.7880   26.4800   -9.3110 F         1 61T        -0.1582
     35 H1        -13.8172   27.1702  -14.3108 H         1 61T         0.2100
     36 H2        -14.2782   26.4225  -16.5335 H         1 61T         0.2099
     37 H3        -11.4320   24.7849  -14.1279 H         1 61T         0.0428
     38 H4        -10.5710   22.9720  -12.4799 H         1 61T         0.0906
     39 H5         -7.0080   25.5185  -10.2072 H         1 61T         0.0205
     40 H6         -3.9823   31.1434   -9.6861 H         1 61T         0.0565
     41 H7         -5.5877   27.1588   -9.5163 H         1 61T         0.0566
     42 H8        -12.0827   29.1944  -15.3213 H         1 61T         0.0643
     43 H9        -13.1601   28.9349  -17.2735 H         1 61T         0.0623
     44 H10       -10.9506   29.8874  -22.1911 H         1 61T         0.1654
     45 H11       -10.4208   28.4968  -21.3048 H         1 61T         0.1654
     46 H12       -11.0860   28.7933  -18.3919 H         1 61T         0.0588
     47 H13       -10.6740   27.2220  -19.1586 H         1 61T         0.0588
     48 H14       -12.5559   26.1729  -17.8669 H         1 61T         0.0350
     49 H15        -9.9893   27.1701  -16.8397 H         1 61T         0.0294
     50 H16       -10.8002   25.5936  -16.5498 H         1 61T         0.0294
     51 H17       -11.9672   26.3070  -14.8575 H         1 61T         0.0598
     52 H18        -9.9059   28.2492  -14.1748 H         1 61T         0.1954
     53 H19        -7.1880   29.9747  -12.3201 H         1 61T         0.0565
     54 H20        -5.5963   31.6671  -11.5035 H         1 61T         0.0600
@<TRIPOS>BOND
     1   15    1 1  
     2   18    2 2  
     3    3   18 1  
     4   20    3 1  
     5   16    4 1  
     6    5    6 1  
     7   25    5 2  
     8    6   26 2  
     9    7    8 2  
    10   26    7 1  
    11    7   27 1  
    12    8    9 1  
    13    9   10 1  
    14    9   28 2  
    15   10   13 ar 
    16   10   29 ar 
    17   12   11 ar 
    18   11   30 ar 
    19   13   12 ar 
    20   12   31 1  
    21   31   14 1  
    22   14   32 1  
    23   14   33 1  
    24   14   34 1  
    25   15   16 1  
    26   23   15 1  
    27   21   16 1  
    28   18   17 2  
    29   18   19 1  
    30   21   20 1  
    31   22   21 1  
    32   23   22 1  
    33   24   23 1  
    34   24   25 1  
    35   25   27 1  
    36   27   28 1  
    37   29   30 ar 
    38    1   35 1  
    39    4   36 1  
    40    5   37 1  
    41    6   38 1  
    42    8   39 1  
    43   11   40 1  
    44   13   41 1  
    45   15   42 1  
    46   16   43 1  
    47   19   44 1  
    48   19   45 1  
    49   20   46 1  
    50   20   47 1  
    51   21   48 1  
    52   22   49 1  
    53   22   50 1  
    54   23   51 1  
    55   24   52 1  
    56   29   53 1  
    57   30   54 1  
@<TRIPOS>SUBSTRUCTURE
     1 61T         1

