### 
### Created by X-TOOL on Mon Sep 10 21:13:28 2018
### 

@<TRIPOS>MOLECULE
5l6o_ligand
   33    35     1     0     0
SMALL
GAST_HUCK


@<TRIPOS>ATOM
      1 C1         10.5720   -0.1760   -5.1300 C.ar      1 6P6        -0.0706
      2 C2         11.5660    0.5610   -5.7540 C.ar      1 6P6        -0.0367
      3 C3         12.2930    1.4990   -5.0290 C.ar      1 6P6         0.0690
      4 C7         15.4730    3.2010   -6.1670 C.ar      1 6P6         0.0611
      5 C8         15.0140    4.3340   -6.8840 C.ar      1 6P6        -0.0365
      6 C9         15.8870    5.2350   -7.4150 C.ar      1 6P6        -0.0378
      7 C10        17.2680    5.0840   -7.2480 C.ar      1 6P6         0.0384
      8 C11        17.7500    3.9910   -6.5580 C.ar      1 6P6        -0.0205
      9 C12        16.8700    3.0360   -6.0000 C.ar      1 6P6         0.0512
     10 C13        16.5190    1.1230   -4.8080 C.ar      1 6P6         0.0628
     11 C14        18.1170    6.1450   -7.8720 C.2       1 6P6         0.1343
     12 C15        19.6170    5.9520   -7.8900 C.3       1 6P6         0.0119
     13 C16        10.2880    0.0240   -3.7930 C.ar      1 6P6        -0.0726
     14 O1         17.6200    7.1410   -8.3680 O.2       1 6P6        -0.3755
     15 N1         17.4080    1.9800   -5.3120 N.ar      1 6P6        -0.2908
     16 N2         15.1810    1.1580   -4.8850 N.ar      1 6P6        -0.2494
     17 C6         14.6440    2.1840   -5.5590 C.ar      1 6P6         0.1648
     18 N3         13.2900    2.2600   -5.6680 N.pl3     1 6P6        -0.2448
     19 C4         12.0040    1.7010   -3.6830 C.ar      1 6P6        -0.0367
     20 C5         11.0070    0.9590   -3.0710 C.ar      1 6P6        -0.0706
     21 H1         10.0139   -0.9141   -5.6946 H         1 6P6         0.0589
     22 H2         11.7766    0.4065   -6.8061 H         1 6P6         0.0543
     23 H3         13.9485    4.4865   -7.0123 H         1 6P6         0.0688
     24 H4         15.5062    6.0813   -7.9751 H         1 6P6         0.0664
     25 H5         18.8201    3.8626   -6.4420 H         1 6P6         0.0696
     26 H6         16.9348    0.2841   -4.2618 H         1 6P6         0.1066
     27 H7         20.0918    6.8147   -8.3802 H         1 6P6         0.0451
     28 H8         19.8620    5.0344   -8.4449 H         1 6P6         0.0451
     29 H9         19.9882    5.8667   -6.8580 H         1 6P6         0.0451
     30 H10         9.5044   -0.5498   -3.3115 H         1 6P6         0.0525
     31 H11        12.9425    2.9824   -6.3148 H         1 6P6         0.2230
     32 H12        12.5585    2.4383   -3.1138 H         1 6P6         0.0543
     33 H13        10.7892    1.1122   -2.0202 H         1 6P6         0.0589
@<TRIPOS>BOND
     1    2    1 ar 
     2    1   13 ar 
     3    3    2 ar 
     4   18    3 1  
     5    3   19 ar 
     6    4    5 ar 
     7    4    9 ar 
     8   17    4 ar 
     9    5    6 ar 
    10    6    7 ar 
    11    8    7 ar 
    12    7   11 1  
    13    9    8 ar 
    14    9   15 ar 
    15   10   15 ar 
    16   16   10 ar 
    17   11   12 1  
    18   11   14 2  
    19   13   20 ar 
    20   17   16 ar 
    21   17   18 1  
    22   19   20 ar 
    23    1   21 1  
    24    2   22 1  
    25    5   23 1  
    26    6   24 1  
    27    8   25 1  
    28   10   26 1  
    29   12   27 1  
    30   12   28 1  
    31   12   29 1  
    32   13   30 1  
    33   18   31 1  
    34   19   32 1  
    35   20   33 1  
@<TRIPOS>SUBSTRUCTURE
     1 6P6         1

