### 
### Created by X-TOOL on Mon Sep 10 21:13:29 2018
### 

@<TRIPOS>MOLECULE
5l6p_ligand
   35    37     1     0     0
SMALL
GAST_HUCK


@<TRIPOS>ATOM
      1 C1         11.3810   -2.4350   -5.9620 C.ar      1 6P8        -0.0707
      2 C2         12.2430   -1.6300   -6.6900 C.ar      1 6P8        -0.0368
      3 C3         12.5340   -1.9420   -8.0130 C.ar      1 6P8         0.0685
      4 C7         15.4440    0.1170   -9.2410 C.ar      1 6P8         0.0464
      5 C8         14.8530    1.1740   -9.9880 C.ar      1 6P8        -0.0461
      6 C9         15.6220    2.1640  -10.5280 C.ar      1 6P8        -0.0279
      7 C10        17.0010    2.2080  -10.3070 C.ar      1 6P8         0.0738
      8 C11        17.6110    1.1790   -9.6220 C.ar      1 6P8        -0.0246
      9 C12        16.8490    0.1340   -9.0540 C.ar      1 6P8         0.0277
     10 C13        16.7360   -1.7920   -7.8480 C.ar      1 6P8         0.0546
     11 C14        17.5920    4.3100  -11.5590 C.2       1 6P8         0.2036
     12 C15        18.8010    4.9960  -12.1590 C.3       1 6P8         0.0323
     13 C16        10.7920   -3.5370   -6.5490 C.ar      1 6P8        -0.0727
     14 O1         16.4720    4.7980  -11.6720 O.2       1 6P8        -0.3835
     15 N3         17.8730    3.1620  -10.8910 N.am      1 6P8        -0.2291
     16 N1         17.5080   -0.8350   -8.3450 N.ar      1 6P8        -0.3031
     17 N2         15.4070   -1.9270   -7.9290 N.ar      1 6P8        -0.2581
     18 C6         14.7470   -0.9880   -8.6200 C.ar      1 6P8         0.1543
     19 N4         13.3950   -1.1070   -8.7510 N.pl3     1 6P8        -0.2471
     20 C4         11.9400   -3.0530   -8.6020 C.ar      1 6P8        -0.0368
     21 C5         11.0860   -3.8550   -7.8600 C.ar      1 6P8        -0.0707
     22 H1         11.1681   -2.1980   -4.9259 H         1 6P8         0.0589
     23 H2         12.6901   -0.7573   -6.2278 H         1 6P8         0.0543
     24 H3         13.7785    1.1933  -10.1300 H         1 6P8         0.0667
     25 H4         15.1552    2.9287  -11.1383 H         1 6P8         0.0572
     26 H5         18.6900    1.1717   -9.5178 H         1 6P8         0.0449
     27 H6         17.2526   -2.5723   -7.3008 H         1 6P8         0.1046
     28 H7         19.7022    4.4016  -11.9480 H         1 6P8         0.0473
     29 H8         18.9109    5.9976  -11.7178 H         1 6P8         0.0473
     30 H9         18.6685    5.0872  -13.2472 H         1 6P8         0.0473
     31 H10        10.1009   -4.1506   -5.9825 H         1 6P8         0.0525
     32 H11        18.8471    2.9570  -10.7958 H         1 6P8         0.2297
     33 H12        12.9530   -0.5191   -9.4720 H         1 6P8         0.2223
     34 H13        12.1442   -3.2917   -9.6395 H         1 6P8         0.0543
     35 H14        10.6466   -4.7369   -8.3120 H         1 6P8         0.0589
@<TRIPOS>BOND
     1    2    1 ar 
     2    1   13 ar 
     3    3    2 ar 
     4   19    3 1  
     5    3   20 ar 
     6    4    5 ar 
     7    4    9 ar 
     8   18    4 ar 
     9    5    6 ar 
    10    6    7 ar 
    11    8    7 ar 
    12    7   15 1  
    13    9    8 ar 
    14    9   16 ar 
    15   10   16 ar 
    16   17   10 ar 
    17   11   12 1  
    18   11   14 2  
    19   15   11 am 
    20   13   21 ar 
    21   18   17 ar 
    22   18   19 1  
    23   20   21 ar 
    24    1   22 1  
    25    2   23 1  
    26    5   24 1  
    27    6   25 1  
    28    8   26 1  
    29   10   27 1  
    30   12   28 1  
    31   12   29 1  
    32   12   30 1  
    33   13   31 1  
    34   15   32 1  
    35   19   33 1  
    36   20   34 1  
    37   21   35 1  
@<TRIPOS>SUBSTRUCTURE
     1 6P8         1

