### 
### Created by X-TOOL on Mon Sep 10 21:13:27 2018
### 

@<TRIPOS>MOLECULE
5l72_ligand
   57    60     1     0     0
SMALL
GAST_HUCK


@<TRIPOS>ATOM
      1 N1        -11.6330  -30.9160   20.2790 N.am      1 6PF        -0.1866
      2 N3         -4.2310  -34.8940   22.3030 N.4       1 6PF         0.2556
      3 C4        -10.2260  -30.4750   22.1830 C.ar      1 6PF        -0.0277
      4 C5        -11.4830  -30.4330   21.6010 C.ar      1 6PF         0.1215
      5 C6        -11.7700  -33.4890   21.1490 C.3       1 6PF         0.0787
      6 C7         -8.7080  -30.0620   24.1240 C.ar      1 6PF        -0.0359
      7 C8         -8.3600  -29.0950   25.0680 C.ar      1 6PF        -0.0666
      8 C10        -6.5630  -28.2170   26.7480 C.2       1 6PF         0.0797
      9 C13        -6.5250  -31.0690   24.4510 C.ar      1 6PF         0.0698
     10 C15        -4.1270  -33.6850   23.1150 C.3       1 6PF         0.0640
     11 C17        -4.1500  -37.3120   22.1840 C.3       1 6PF         0.0878
     12 C20        -7.7650  -31.0470   23.8080 C.ar      1 6PF        -0.0352
     13 O4         -6.4550  -33.3460   22.6080 O.2       1 6PF        -0.3790
     14 C14        -5.4670  -32.9760   23.2410 C.2       1 6PF         0.2490
     15 C19        -3.4240  -34.8190   21.0810 C.3       1 6PF        -0.0060
     16 C18        -3.6970  -36.0340   20.2220 C.3       1 6PF         0.0878
     17 O5         -3.4320  -37.2580   20.9310 O.3       1 6PF        -0.3693
     18 C16        -3.8750  -36.1000   23.0470 C.3       1 6PF        -0.0060
     19 N2         -5.4740  -31.9600   24.1230 N.am      1 6PF        -0.2297
     20 C12        -6.2080  -30.1310   25.4460 C.ar      1 6PF         0.0105
     21 C11        -5.0820  -30.0140   26.4280 C.2       1 6PF         0.0776
     22 O3         -5.2870  -28.7600   27.0720 O.3       1 6PF        -0.2888
     23 C9         -7.1320  -29.1290   25.7180 C.ar      1 6PF        -0.0226
     24 C3        -10.0600  -30.0650   23.5050 C.ar      1 6PF        -0.0232
     25 C2        -11.1940  -29.6450   24.2030 C.ar      1 6PF        -0.0113
     26 N         -12.4260  -29.5670   23.6790 N.ar      1 6PF        -0.2909
     27 S         -11.5150  -32.4520   19.7600 S.o2      1 6PF         0.0570
     28 O1        -12.5840  -32.6670   18.8340 O.2       1 6PF        -0.1502
     29 O2        -10.1670  -32.6160   19.3150 O.2       1 6PF        -0.1502
     30 C1        -12.5660  -29.9170   22.4080 C.ar      1 6PF         0.1850
     31 O         -13.7100  -29.6690   21.7260 O.3       1 6PF        -0.3092
     32 C         -14.5640  -28.6340   22.2120 C.3       1 6PF         0.0600
     33 H1        -11.8359  -30.2299   19.5803 H         1 6PF         0.2151
     34 H2         -5.1963  -34.9808   22.0260 H         1 6PF         0.2054
     35 H3         -9.3741  -30.8257   21.6118 H         1 6PF         0.0551
     36 H4        -11.6979  -34.5418   20.8387 H         1 6PF         0.0487
     37 H5        -12.7680  -33.2986   21.5705 H         1 6PF         0.0487
     38 H6        -11.0042  -33.2777   21.9099 H         1 6PF         0.0487
     39 H7         -9.0615  -28.3015   25.2989 H         1 6PF         0.0492
     40 H8         -7.0249  -27.3235   27.1654 H         1 6PF         0.0644
     41 H9         -3.4045  -33.0012   22.6456 H         1 6PF         0.1068
     42 H10        -3.7729  -33.9594   24.1196 H         1 6PF         0.1068
     43 H11        -3.8419  -38.2150   22.7313 H         1 6PF         0.0613
     44 H12        -5.2286  -37.3608   21.9736 H         1 6PF         0.0613
     45 H13        -7.9981  -31.7966   23.0605 H         1 6PF         0.0497
     46 H14        -2.3571  -34.7902   21.3472 H         1 6PF         0.0837
     47 H15        -3.6874  -33.9085   20.5228 H         1 6PF         0.0837
     48 H16        -3.0539  -35.9921   19.3306 H         1 6PF         0.0613
     49 H17        -4.7527  -36.0224   19.9133 H         1 6PF         0.0613
     50 H18        -4.4772  -36.1575   23.9657 H         1 6PF         0.0837
     51 H19        -2.8073  -36.0693   23.3097 H         1 6PF         0.0837
     52 H20        -4.6166  -31.8133   24.6163 H         1 6PF         0.2257
     53 H21        -4.2823  -30.7306   26.6095 H         1 6PF         0.0620
     54 H22       -11.0698  -29.3619   25.2420 H         1 6PF         0.0642
     55 H23       -15.4461  -28.5503   21.5602 H         1 6PF         0.0578
     56 H24       -14.0180  -27.6791   22.2145 H         1 6PF         0.0578
     57 H25       -14.8861  -28.8749   23.2358 H         1 6PF         0.0578
@<TRIPOS>BOND
     1    4    1 1  
     2    1   27 am 
     3   10    2 1  
     4    2   15 1  
     5    2   18 1  
     6    3    4 ar 
     7   24    3 ar 
     8    4   30 ar 
     9   27    5 1  
    10    6    7 ar 
    11   12    6 ar 
    12    6   24 1  
    13    7   23 ar 
    14    8   22 1  
    15   23    8 2  
    16    9   12 ar 
    17   19    9 1  
    18    9   20 ar 
    19   14   10 1  
    20   11   17 1  
    21   18   11 1  
    22   14   13 2  
    23   14   19 am 
    24   15   16 1  
    25   16   17 1  
    26   20   21 2  
    27   20   23 ar 
    28   21   22 1  
    29   24   25 ar 
    30   25   26 ar 
    31   26   30 ar 
    32   27   28 2  
    33   27   29 2  
    34   30   31 1  
    35   31   32 1  
    36    1   33 1  
    37    2   34 1  
    38    3   35 1  
    39    5   36 1  
    40    5   37 1  
    41    5   38 1  
    42    7   39 1  
    43    8   40 1  
    44   10   41 1  
    45   10   42 1  
    46   11   43 1  
    47   11   44 1  
    48   12   45 1  
    49   15   46 1  
    50   15   47 1  
    51   16   48 1  
    52   16   49 1  
    53   18   50 1  
    54   18   51 1  
    55   19   52 1  
    56   21   53 1  
    57   25   54 1  
    58   32   55 1  
    59   32   56 1  
    60   32   57 1  
@<TRIPOS>SUBSTRUCTURE
     1 6PF         1

