### 
### Created by X-TOOL on Mon Sep 10 21:13:29 2018
### 

@<TRIPOS>MOLECULE
5l7g_ligand
   53    56     1     0     0
SMALL
GAST_HUCK


@<TRIPOS>ATOM
      1 C1         -7.5130   19.3170  -12.9110 C.3       1 6QE        -0.0272
      2 C2         -7.6140   17.8770  -13.1780 C.2       1 6QE         0.0222
      3 O4         -7.8970   15.7760  -12.7810 O.3       1 6QE        -0.1719
      4 C8         -9.5290   14.6280  -16.3280 C.ar      1 6QE         0.1265
      5 C9        -10.2520   15.7660  -16.6280 C.ar      1 6QE        -0.0383
      6 C10       -11.6040   15.7130  -16.8960 C.ar      1 6QE        -0.0763
      7 C11       -12.2520   14.4970  -16.8580 C.ar      1 6QE        -0.0410
      8 C12       -11.5360   13.3550  -16.5590 C.ar      1 6QE         0.1569
      9 C14       -10.1790   13.3980  -16.3120 C.ar      1 6QE         0.1920
     10 C16        -7.4740   17.2250  -14.4280 C.2       1 6QE         0.0194
     11 C19        -7.5650   19.5480  -17.3150 C.ar      1 6QE        -0.0652
     12 C20        -6.5280   19.0780  -18.1010 C.ar      1 6QE        -0.0306
     13 C21        -6.2360   19.7440  -19.4020 C.3       1 6QE         0.0571
     14 C27        -9.3330   16.3220  -21.2140 C.3       1 6QE        -0.0382
     15 C30        -5.7940   17.9800  -17.6860 C.ar      1 6QE        -0.0652
     16 C31        -6.0870   17.3620  -16.4840 C.ar      1 6QE        -0.0711
     17 N3         -7.8670   17.0310  -12.1750 N.2       1 6QE        -0.1680
     18 C5         -7.6660   15.8950  -14.1180 C.2       1 6QE         0.1774
     19 C6         -7.6970   14.6070  -14.8280 C.3       1 6QE         0.1454
     20 O7         -8.1530   14.8000  -16.1650 O.3       1 6QE        -0.2997
     21 F13       -12.1600   12.1710  -16.5290 F         1 6QE        -0.1874
     22 F15        -9.5650   12.2240  -16.0450 F         1 6QE        -0.1913
     23 C17        -7.1480   17.8220  -15.7110 C.ar      1 6QE        -0.0456
     24 C18        -7.8820   18.9170  -16.1310 C.ar      1 6QE        -0.0711
     25 N22        -7.4800   19.9770  -20.1860 N.am      1 6QE        -0.2409
     26 S23        -8.0580   18.7790  -21.2760 S.o2      1 6QE         0.0460
     27 O24        -6.9280   17.9120  -21.5400 O.2       1 6QE        -0.1548
     28 O25        -8.8210   19.4120  -22.3320 O.2       1 6QE        -0.1548
     29 C26        -9.2140   17.6160  -20.5080 C.3       1 6QE         0.1038
     30 C28        -9.0900   17.4520  -19.0450 C.3       1 6QE        -0.0243
     31 C29       -10.1830   18.3140  -19.6050 C.3       1 6QE        -0.0243
     32 H1         -7.6707   19.5029  -11.8384 H         1 6QE         0.0378
     33 H2         -8.2782   19.8523  -13.4923 H         1 6QE         0.0378
     34 H3         -6.5144   19.6748  -13.2022 H         1 6QE         0.0378
     35 H4         -9.7448   16.7237  -16.6534 H         1 6QE         0.0498
     36 H5        -12.1511   16.6180  -17.1340 H         1 6QE         0.0546
     37 H6        -13.3151   14.4378  -17.0612 H         1 6QE         0.0501
     38 H7         -8.1310   20.4166  -17.6317 H         1 6QE         0.0542
     39 H8         -5.5591   19.1043  -19.9872 H         1 6QE         0.0628
     40 H9         -5.7496   20.7112  -19.2074 H         1 6QE         0.0628
     41 H10       -10.0511   15.6795  -20.6834 H         1 6QE         0.0251
     42 H11        -8.3506   15.8281  -21.2424 H         1 6QE         0.0251
     43 H12        -9.6859   16.4958  -22.2412 H         1 6QE         0.0251
     44 H13        -4.9875   17.6037  -18.3048 H         1 6QE         0.0542
     45 H14        -5.4917   16.5218  -16.1453 H         1 6QE         0.0541
     46 H15        -8.3786   13.9192  -14.3061 H         1 6QE         0.0854
     47 H16        -6.6850   14.1764  -14.8466 H         1 6QE         0.0854
     48 H17        -8.7072   19.2791  -15.5285 H         1 6QE         0.0541
     49 H18        -7.9823   20.8350  -20.0782 H         1 6QE         0.1694
     50 H19        -8.2466   17.9133  -18.5104 H         1 6QE         0.0287
     51 H20        -9.3367   16.4872  -18.5779 H         1 6QE         0.0287
     52 H21       -11.2301   17.9807  -19.5548 H         1 6QE         0.0287
     53 H22       -10.1400   19.4068  -19.4873 H         1 6QE         0.0287
@<TRIPOS>BOND
     1    2    1 1  
     2   10    2 1  
     3    2   17 2  
     4    3   17 1  
     5   18    3 1  
     6    4    5 ar 
     7    4    9 ar 
     8   20    4 1  
     9    5    6 ar 
    10    6    7 ar 
    11    8    7 ar 
    12    9    8 ar 
    13    8   21 1  
    14    9   22 1  
    15   10   18 2  
    16   23   10 1  
    17   12   11 ar 
    18   11   24 ar 
    19   13   12 1  
    20   12   15 ar 
    21   25   13 1  
    22   29   14 1  
    23   15   16 ar 
    24   16   23 ar 
    25   18   19 1  
    26   19   20 1  
    27   24   23 ar 
    28   26   25 am 
    29   26   27 2  
    30   26   28 2  
    31   26   29 1  
    32   29   30 1  
    33   29   31 1  
    34   30   31 1  
    35    1   32 1  
    36    1   33 1  
    37    1   34 1  
    38    5   35 1  
    39    6   36 1  
    40    7   37 1  
    41   11   38 1  
    42   13   39 1  
    43   13   40 1  
    44   14   41 1  
    45   14   42 1  
    46   14   43 1  
    47   15   44 1  
    48   16   45 1  
    49   19   46 1  
    50   19   47 1  
    51   24   48 1  
    52   25   49 1  
    53   30   50 1  
    54   30   51 1  
    55   31   52 1  
    56   31   53 1  
@<TRIPOS>SUBSTRUCTURE
     1 6QE         1

