### 
### Created by X-TOOL on Mon Sep 10 21:13:28 2018
### 

@<TRIPOS>MOLECULE
5l7h_ligand
   50    53     1     0     0
SMALL
GAST_HUCK


@<TRIPOS>ATOM
      1 C1         11.1810   13.5430   16.5990 C.ar      1 6QG        -0.0772
      2 C2          6.1430   17.4720   16.5350 C.ar      1 6QG        -0.0711
      3 C3          7.9690   18.9810   16.1990 C.ar      1 6QG        -0.0711
      4 C7          9.8810   13.4050   16.1310 C.ar      1 6QG        -0.0398
      5 C8          9.3950   15.5870   16.9670 C.ar      1 6QG        -0.0320
      6 C9          7.1920   17.9260   15.7500 C.ar      1 6QG        -0.0456
      7 C10         7.4710   17.3650   14.4410 C.2       1 6QG         0.0194
      8 C11         6.6850   19.1040   18.2230 C.ar      1 6QG        -0.0306
      9 C12        10.6680   15.7310   17.4340 C.ar      1 6QG        -0.0518
     10 C13         8.9960   14.4590   16.3140 C.ar      1 6QG         0.0880
     11 C14         7.6070   16.0460   14.0500 C.2       1 6QG         0.1776
     12 C15         7.6020   18.0550   13.2040 C.2       1 6QG         0.0222
     13 C16        10.9150   17.0250   18.1220 C.3       1 6QG        -0.0201
     14 C19         9.9470   17.1570   19.2940 C.3       1 6QG        -0.0223
     15 C20         9.8860   18.5780   19.7890 C.3       1 6QG         0.0863
     16 C21         7.5730   19.4960   12.9330 C.3       1 6QG        -0.0272
     17 N23         7.6050   20.0580   20.3640 N.am      1 6QG        -0.2414
     18 C4         11.5790   14.7030   17.2540 C.ar      1 6QG        -0.0714
     19 C5          5.8950   18.0650   17.7620 C.ar      1 6QG        -0.0652
     20 C6          7.7170   19.5610   17.4260 C.ar      1 6QG        -0.0652
     21 C17         6.4010   19.7160   19.5630 C.3       1 6QG         0.0571
     22 C18         7.6140   14.6800   14.5550 C.3       1 6QG         0.1462
     23 N22         7.7850   17.2450   12.1570 N.2       1 6QG        -0.1680
     24 O24         7.8900   17.6360   21.2570 O.2       1 6QG        -0.1554
     25 O25         9.3780   19.4520   22.1310 O.2       1 6QG        -0.1554
     26 O26         7.8160   15.9800   12.7150 O.3       1 6QG        -0.1719
     27 O27         7.6550   14.5140   15.9510 O.3       1 6QG        -0.3006
     28 S28         8.6480   18.8520   21.0350 S.o2      1 6QG         0.0408
     29 H1         11.8925   12.7385   16.4522 H         1 6QG         0.0572
     30 H2          5.5190   16.6557   16.1896 H         1 6QG         0.0541
     31 H3          8.7797   19.3534   15.5833 H         1 6QG         0.0541
     32 H4          9.5643   12.4951   15.6341 H         1 6QG         0.0486
     33 H5          8.6825   16.3897   17.1189 H         1 6QG         0.0478
     34 H6         10.7555   17.8540   17.4168 H         1 6QG         0.0425
     35 H7         11.9500   17.0536   18.4935 H         1 6QG         0.0425
     36 H8         10.2840   16.5052   20.1135 H         1 6QG         0.0303
     37 H9          8.9433   16.8468   18.9678 H         1 6QG         0.0303
     38 H10         9.6679   19.2341   18.9335 H         1 6QG         0.0520
     39 H11        10.8671   18.8404   20.2116 H         1 6QG         0.0520
     40 H12         7.7063   19.6691   11.8549 H         1 6QG         0.0378
     41 H13         8.3851   19.9897   13.4868 H         1 6QG         0.0378
     42 H14         6.6058   19.9101   13.2539 H         1 6QG         0.0378
     43 H15         7.8205   21.0218   20.5211 H         1 6QG         0.1694
     44 H16        12.5942   14.8022   17.6209 H         1 6QG         0.0464
     45 H17         5.0705   17.7104   18.3699 H         1 6QG         0.0542
     46 H18         8.3350   20.3834   17.7678 H         1 6QG         0.0542
     47 H19         5.7965   19.0030   20.1428 H         1 6QG         0.0628
     48 H20         5.8248   20.6390   19.4016 H         1 6QG         0.0628
     49 H21         8.4969   14.1758   14.1352 H         1 6QG         0.0855
     50 H22         6.7015   14.1866   14.1892 H         1 6QG         0.0855
@<TRIPOS>BOND
     1    1    4 ar 
     2   18    1 ar 
     3    2    6 ar 
     4   19    2 ar 
     5    3    6 ar 
     6   20    3 ar 
     7   10    4 ar 
     8    9    5 ar 
     9    5   10 ar 
    10    6    7 1  
    11    7   11 2  
    12    7   12 1  
    13    8   19 ar 
    14    8   20 ar 
    15   21    8 1  
    16   13    9 1  
    17    9   18 ar 
    18   10   27 1  
    19   11   22 1  
    20   11   26 1  
    21   12   16 1  
    22   12   23 2  
    23   14   13 1  
    24   15   14 1  
    25   28   15 1  
    26   17   21 1  
    27   17   28 am 
    28   22   27 1  
    29   23   26 1  
    30   28   24 2  
    31   28   25 2  
    32    1   29 1  
    33    2   30 1  
    34    3   31 1  
    35    4   32 1  
    36    5   33 1  
    37   13   34 1  
    38   13   35 1  
    39   14   36 1  
    40   14   37 1  
    41   15   38 1  
    42   15   39 1  
    43   16   40 1  
    44   16   41 1  
    45   16   42 1  
    46   17   43 1  
    47   18   44 1  
    48   19   45 1  
    49   20   46 1  
    50   21   47 1  
    51   21   48 1  
    52   22   49 1  
    53   22   50 1  
@<TRIPOS>SUBSTRUCTURE
     1 6QG         1

