### 
### Created by X-TOOL on Mon Sep 10 21:13:30 2018
### 

@<TRIPOS>MOLECULE
5l87_ligand
   62    67     1     0     0
SMALL
GAST_HUCK


@<TRIPOS>ATOM
      1 CAH        11.8190    4.4160   11.4090 C.ar      1 6RD        -0.0588
      2 CAG        10.5600    4.0120   10.9170 C.ar      1 6RD        -0.0706
      3 CAJ         9.5670    4.9080   10.7200 C.ar      1 6RD        -0.0631
      4 CBC         9.7790    6.3030   10.9930 C.ar      1 6RD        -0.0242
      5 CAI         8.7570    7.2540   10.7510 C.ar      1 6RD        -0.0569
      6 CAC         8.9800    8.5600   11.0240 C.ar      1 6RD        -0.0629
      7 CAE        10.2070    8.9940   11.5620 C.ar      1 6RD        -0.0625
      8 CAL        11.2320    8.1150   11.8110 C.ar      1 6RD        -0.0547
      9 CBE        11.0310    6.7290   11.5250 C.ar      1 6RD        -0.0102
     10 CAX        12.0530    5.7550   11.6970 C.ar      1 6RD        -0.0104
     11 CAQ        13.4260    6.1930   12.1830 C.3       1 6RD         0.0662
     12 NAU        14.4510    5.1670   12.0540 N.am      1 6RD        -0.2747
     13 CAW        14.7700    4.3000   13.0420 C.2       1 6RD         0.2070
     14 OAB        14.1700    4.1230   14.1140 O.2       1 6RD        -0.3874
     15 CBA        15.7640    3.3040   12.7050 C.2       1 6RD         0.1031
     16 CAZ        16.3720    2.3380   13.5480 C.2       1 6RD         0.0299
     17 CAS        16.1740    1.9790   14.9810 C.3       1 6RD        -0.0126
     18 NAT        16.2890    3.2380   11.4720 N.2       1 6RD        -0.2095
     19 NBH        17.2150    2.2590   11.5160 N.pl3     1 6RD        -0.2092
     20 CAA        18.0200    1.9180   10.3410 C.3       1 6RD         0.0585
     21 CBB        17.2860    1.6960   12.7500 C.2       1 6RD         0.0801
     22 CAO        18.1880    0.6010   13.2010 C.3       1 6RD         0.0456
     23 CAP        17.6750    0.0540   14.5130 C.3       1 6RD        -0.0188
     24 NBG        17.2250    1.1020   15.4090 N.4       1 6RD         0.2493
     25 CAR        17.1700    0.6720   16.8060 C.3       1 6RD        -0.0137
     26 CAY        16.0640   -0.3420   17.0230 C.2       1 6RD        -0.0021
     27 CBF        16.1070   -1.7800   16.8890 C.ar      1 6RD        -0.0166
     28 CAM        17.1160   -2.6860   16.5410 C.ar      1 6RD        -0.0745
     29 CAF        16.7930   -4.0570   16.5530 C.ar      1 6RD        -0.0792
     30 CAD        15.5390   -4.5390   16.8420 C.ar      1 6RD        -0.0768
     31 CAK        14.5530   -3.6420   17.2000 C.ar      1 6RD        -0.0443
     32 CBD        14.8540   -2.2690   17.2290 C.ar      1 6RD         0.0605
     33 NAV        14.0660   -1.1840   17.5520 N.pl3     1 6RD        -0.2889
     34 CAN        14.8270   -0.0240   17.4420 C.2       1 6RD         0.0214
     35 H1         12.6027    3.6829   11.5621 H         1 6RD         0.0530
     36 H2         10.3860    2.9657   10.6932 H         1 6RD         0.0595
     37 H3          8.6038    4.5718   10.3534 H         1 6RD         0.0542
     38 H4          7.8015    6.9367   10.3492 H         1 6RD         0.0609
     39 H5          8.1999    9.2859   10.8250 H         1 6RD         0.0616
     40 H6         10.3454   10.0458   11.7846 H         1 6RD         0.0601
     41 H7         12.1745    8.4650   12.2162 H         1 6RD         0.0628
     42 H8         13.3456    6.4711   13.2442 H         1 6RD         0.0696
     43 H9         13.7377    7.0700   11.5967 H         1 6RD         0.0696
     44 H10        14.9461    5.0996   11.1878 H         1 6RD         0.1873
     45 H11        15.2044    1.4735   15.1008 H         1 6RD         0.0886
     46 H12        16.1889    2.8932   15.5925 H         1 6RD         0.0886
     47 H13        18.7083    1.0979   10.5935 H         1 6RD         0.0598
     48 H14        18.5989    2.7983   10.0251 H         1 6RD         0.0598
     49 H15        17.3575    1.6015    9.5219 H         1 6RD         0.0598
     50 H16        19.2063    0.9939   13.3376 H         1 6RD         0.0501
     51 H17        18.2021   -0.2000   12.4472 H         1 6RD         0.0501
     52 H18        18.4846   -0.5066   15.0031 H         1 6RD         0.0839
     53 H19        16.8320   -0.6225   14.3086 H         1 6RD         0.0839
     54 H20        18.0152    1.7278   15.4067 H         1 6RD         0.2050
     55 H21        16.9840    1.5483   17.4444 H         1 6RD         0.0899
     56 H22        18.1332    0.2167   17.0798 H         1 6RD         0.0899
     57 H23        18.1092   -2.3450   16.2722 H         1 6RD         0.0540
     58 H24        17.5758   -4.7703   16.3218 H         1 6RD         0.0510
     59 H25        15.3287   -5.6011   16.7899 H         1 6RD         0.0530
     60 H26        13.5593   -3.9917   17.4555 H         1 6RD         0.0541
     61 H27        13.0750   -1.2256   17.8296 H         1 6RD         0.2216
     62 H28        14.4755    0.9832   17.6610 H         1 6RD         0.0797
@<TRIPOS>BOND
     1    1    2 ar 
     2    1   10 ar 
     3    2    3 ar 
     4    3    4 ar 
     5    4    5 ar 
     6    4    9 ar 
     7    5    6 ar 
     8    6    7 ar 
     9    7    8 ar 
    10    8    9 ar 
    11    9   10 ar 
    12   10   11 1  
    13   11   12 1  
    14   12   13 am 
    15   13   14 2  
    16   13   15 1  
    17   15   16 1  
    18   15   18 2  
    19   16   17 1  
    20   16   21 2  
    21   17   24 1  
    22   18   19 1  
    23   19   20 1  
    24   19   21 1  
    25   21   22 1  
    26   22   23 1  
    27   23   24 1  
    28   24   25 1  
    29   25   26 1  
    30   26   27 1  
    31   26   34 2  
    32   27   28 ar 
    33   27   32 ar 
    34   28   29 ar 
    35   29   30 ar 
    36   30   31 ar 
    37   31   32 ar 
    38   32   33 1  
    39   33   34 1  
    40    1   35 1  
    41    2   36 1  
    42    3   37 1  
    43    5   38 1  
    44    6   39 1  
    45    7   40 1  
    46    8   41 1  
    47   11   42 1  
    48   11   43 1  
    49   12   44 1  
    50   17   45 1  
    51   17   46 1  
    52   20   47 1  
    53   20   48 1  
    54   20   49 1  
    55   22   50 1  
    56   22   51 1  
    57   23   52 1  
    58   23   53 1  
    59   24   54 1  
    60   25   55 1  
    61   25   56 1  
    62   28   57 1  
    63   29   58 1  
    64   30   59 1  
    65   31   60 1  
    66   33   61 1  
    67   34   62 1  
@<TRIPOS>SUBSTRUCTURE
     1 6RD         1

