### 
### Created by X-TOOL on Mon Sep 10 21:13:32 2018
### 

@<TRIPOS>MOLECULE
5l8a_ligand
   66    70     1     0     0
SMALL
GAST_HUCK


@<TRIPOS>ATOM
      1 CAA         9.6510   17.0860    6.4580 C.3       1 6RB         0.0592
      2 OAX        10.9380   17.0250    6.9980 O.3       1 6RB        -0.3225
      3 CBB        12.0890   17.1040    6.2660 C.ar      1 6RB         0.0947
      4 CAL        12.0920   17.2220    4.8560 C.ar      1 6RB        -0.0428
      5 CAK        13.3450   17.2240    4.1930 C.ar      1 6RB        -0.0683
      6 CBG        13.3090   16.9560    6.9340 C.ar      1 6RB         0.0119
      7 CAN        13.3070   16.8080    8.3470 C.ar      1 6RB        -0.0558
      8 CAH        14.4490   16.6660    9.0990 C.ar      1 6RB        -0.0649
      9 CAG        15.6560   16.7440    8.4300 C.ar      1 6RB        -0.0652
     10 CAM        15.7040   16.8470    7.0080 C.ar      1 6RB        -0.0590
     11 CBF        14.5500   16.9800    6.2420 C.ar      1 6RB        -0.0148
     12 CBA        14.5820   17.1280    4.8220 C.ar      1 6RB        -0.0020
     13 CAT        15.7690   17.0940    3.9930 C.3       1 6RB        -0.0018
     14 NBH        16.1420   15.6330    3.5840 N.4       1 6RB         0.2533
     15 CAU        15.4530   15.0480    2.4570 C.3       1 6RB        -0.0121
     16 CBD        15.7740   13.7230    2.1400 C.2       1 6RB         0.0299
     17 CAQ        16.1900   14.5820    4.6450 C.3       1 6RB        -0.0182
     18 CAP        16.9770   13.2830    4.2020 C.3       1 6RB         0.0456
     19 CBE        16.5060   12.8980    2.9590 C.2       1 6RB         0.0805
     20 NBI        16.6130   11.6960    2.3960 N.pl3     1 6RB        -0.2039
     21 CAR        17.2830   10.4390    2.8370 C.3       1 6RB         0.0924
     22 CAO        18.6210   10.1770    2.1260 C.3       1 6RB         0.0734
     23 OAC        19.3190   11.4100    2.0130 O.3       1 6RB        -0.3921
     24 NAV        15.9620   11.7530    1.1800 N.2       1 6RB        -0.2092
     25 CBC        15.4620   12.9940    1.0190 C.2       1 6RB         0.1031
     26 CAY        14.7090   13.3760   -0.0550 C.2       1 6RB         0.2069
     27 OAB        14.1790   14.4900   -0.1530 O.2       1 6RB        -0.3874
     28 NAW        14.6080   12.4690   -1.0370 N.am      1 6RB        -0.2755
     29 CAS        13.7820   12.7080   -2.1710 C.3       1 6RB         0.0639
     30 CAZ        12.4760   12.0770   -2.0370 C.ar      1 6RB        -0.0211
     31 CAI        11.7230   11.8150   -3.1740 C.ar      1 6RB        -0.0584
     32 CAE        10.4370   11.2390   -3.1020 C.ar      1 6RB        -0.0685
     33 CAD         9.9290   10.9230   -1.8510 C.ar      1 6RB        -0.0687
     34 CAF        10.6540   11.2030   -0.7060 C.ar      1 6RB        -0.0685
     35 CAJ        11.9160   11.7780   -0.7910 C.ar      1 6RB        -0.0584
     36 H1          8.9098   16.9981    7.2660 H         1 6RB         0.0578
     37 H2          9.5137   16.2612    5.7433 H         1 6RB         0.0578
     38 H3          9.5160   18.0467    5.9396 H         1 6RB         0.0578
     39 H4         11.1653   17.3082    4.3002 H         1 6RB         0.0478
     40 H5         13.3387   17.3067    3.1122 H         1 6RB         0.0499
     41 H6         12.3523   16.8070    8.8605 H         1 6RB         0.0617
     42 H7         14.4049   16.5002   10.1693 H         1 6RB         0.0589
     43 H8         16.5810   16.7266    8.9950 H         1 6RB         0.0598
     44 H9         16.6666   16.8209    6.5102 H         1 6RB         0.0605
     45 H10        16.6080   17.5335    4.5524 H         1 6RB         0.0962
     46 H11        15.5860   17.6840    3.0828 H         1 6RB         0.0962
     47 H12        17.0977   15.7299    3.2786 H         1 6RB         0.2055
     48 H13        15.6758   15.6648    1.5739 H         1 6RB         0.0886
     49 H14        14.3744   15.0875    2.6692 H         1 6RB         0.0886
     50 H15        15.1590   14.2958    4.9002 H         1 6RB         0.0839
     51 H16        16.6839   15.0039    5.5327 H         1 6RB         0.0839
     52 H17        16.8069   12.4771    4.9311 H         1 6RB         0.0501
     53 H18        18.0534   13.5016    4.1415 H         1 6RB         0.0501
     54 H19        16.6086    9.5944    2.6326 H         1 6RB         0.0658
     55 H20        17.4704   10.5051    3.9189 H         1 6RB         0.0658
     56 H21        18.4343    9.7629    1.1242 H         1 6RB         0.0586
     57 H22        19.2195    9.4639    2.7119 H         1 6RB         0.0586
     58 H23        18.7972   12.0229    1.5085 H         1 6RB         0.2095
     59 H24        15.1202   11.6126   -0.9718 H         1 6RB         0.1871
     60 H25        14.2808   12.3056   -3.0650 H         1 6RB         0.0683
     61 H26        13.6421   13.7930   -2.2862 H         1 6RB         0.0683
     62 H27        12.1356   12.0604   -4.1459 H         1 6RB         0.0557
     63 H28         9.8615   11.0486   -4.0006 H         1 6RB         0.0599
     64 H29         8.9558   10.4527   -1.7693 H         1 6RB         0.0559
     65 H30        10.2335   10.9716    0.2660 H         1 6RB         0.0599
     66 H31        12.4702   11.9963    0.1147 H         1 6RB         0.0557
@<TRIPOS>BOND
     1    1    2 1  
     2    2    3 1  
     3    3    4 ar 
     4    3    6 ar 
     5    4    5 ar 
     6    5   12 ar 
     7    6    7 ar 
     8    6   11 ar 
     9    7    8 ar 
    10    8    9 ar 
    11    9   10 ar 
    12   10   11 ar 
    13   11   12 ar 
    14   12   13 1  
    15   13   14 1  
    16   14   15 1  
    17   14   17 1  
    18   15   16 1  
    19   16   19 2  
    20   16   25 1  
    21   17   18 1  
    22   18   19 1  
    23   19   20 1  
    24   20   21 1  
    25   20   24 1  
    26   21   22 1  
    27   22   23 1  
    28   24   25 2  
    29   25   26 1  
    30   26   27 2  
    31   26   28 am 
    32   28   29 1  
    33   29   30 1  
    34   30   31 ar 
    35   30   35 ar 
    36   31   32 ar 
    37   32   33 ar 
    38   33   34 ar 
    39   34   35 ar 
    40    1   36 1  
    41    1   37 1  
    42    1   38 1  
    43    4   39 1  
    44    5   40 1  
    45    7   41 1  
    46    8   42 1  
    47    9   43 1  
    48   10   44 1  
    49   13   45 1  
    50   13   46 1  
    51   14   47 1  
    52   15   48 1  
    53   15   49 1  
    54   17   50 1  
    55   17   51 1  
    56   18   52 1  
    57   18   53 1  
    58   21   54 1  
    59   21   55 1  
    60   22   56 1  
    61   22   57 1  
    62   23   58 1  
    63   28   59 1  
    64   29   60 1  
    65   29   61 1  
    66   31   62 1  
    67   32   63 1  
    68   33   64 1  
    69   34   65 1  
    70   35   66 1  
@<TRIPOS>SUBSTRUCTURE
     1 6RB         1

