### 
### Created by X-TOOL on Wed Jan  1 15:39:37 2020
### 

@<TRIPOS>MOLECULE
5l8c_ligand
   65    68     1     0     0
SMALL
GAST_HUCK


@<TRIPOS>ATOM
      1 O3         25.2240    8.0280   -7.1020 O.2       1 908        -0.3833
      2 C20        25.8330    8.6870   -6.2890 C.2       1 908         0.2243
      3 N3         25.4570    9.9950   -6.0600 N.am      1 908        -0.1664
      4 C17        24.5960   10.9200   -6.8400 C.3       1 908         0.0738
      5 C19        23.2200   11.0340   -6.1870 C.3       1 908        -0.0353
      6 C18        24.5260   10.4840   -8.3040 C.3       1 908        -0.0353
      7 N2         25.8250   10.6410   -4.9000 N.2       1 908        -0.2033
      8 C21        26.8630    8.0160   -5.3900 C.3       1 908         0.0759
      9 C26        26.5960    8.4900   -3.9520 C.3       1 908         0.0297
     10 C25        25.3190    7.8390   -3.3840 C.3       1 908        -0.0215
     11 C24        25.2050    6.3780   -3.7140 C.2       1 908        -0.0963
     12 C23        25.7950    5.8260   -4.7530 C.2       1 908        -0.0958
     13 C22        26.9720    6.4840   -5.4210 C.3       1 908        -0.0140
     14 C16        26.4520    9.9950   -3.9760 C.2       1 908         0.0453
     15 C4         27.0780   10.8670   -2.9710 C.ar      1 908        -0.0173
     16 C3         27.1260   10.5100   -1.6240 C.ar      1 908        -0.0614
     17 C2         27.6240   11.3940   -0.6790 C.ar      1 908        -0.0301
     18 C5         27.5460   12.1150   -3.3600 C.ar      1 908        -0.0529
     19 C6         28.0290   13.0280   -2.4320 C.ar      1 908         0.0155
     20 C1         28.0930   12.6520   -1.0840 C.ar      1 908         0.1028
     21 O          28.6840   13.5590   -0.2440 O.3       1 908        -0.3177
     22 C          29.2150   13.0790    0.9910 C.3       1 908         0.0608
     23 C7         28.3540   14.3860   -2.9440 C.ar      1 908        -0.0175
     24 C12        27.4560   15.4380   -2.7890 C.ar      1 908        -0.0516
     25 C11        27.6960   16.6690   -3.3680 C.ar      1 908        -0.0437
     26 C10        28.8510   16.8810   -4.1150 C.ar      1 908         0.0477
     27 C9         29.7460   15.8300   -4.2850 C.ar      1 908        -0.0437
     28 C8         29.5030   14.6070   -3.7000 C.ar      1 908        -0.0516
     29 C13        29.1980   18.2110   -4.6770 C.2       1 908         0.2052
     30 O1         28.3240   18.9900   -5.0420 O.2       1 908        -0.3857
     31 N          30.4980   18.4960   -4.7320 N.am      1 908        -0.2680
     32 C14        31.0390   19.3680   -5.7420 C.3       1 908         0.1193
     33 C15        32.1750   20.1400   -5.1380 C.2       1 908         0.1960
     34 O2         33.2860   20.0950   -5.6670 O.2       1 908        -0.3951
     35 N1         31.9290   20.7880   -4.0070 N.am      1 908        -0.2992
     36 H1         25.0586   11.9177   -6.8148 H         1 908         0.0635
     37 H2         22.5919   11.7210   -6.7730 H         1 908         0.0258
     38 H3         23.3308   11.4214   -5.1635 H         1 908         0.0258
     39 H4         22.7463   10.0418   -6.1543 H         1 908         0.0258
     40 H5         23.8847   11.1807   -8.8638 H         1 908         0.0258
     41 H6         24.1056    9.4693   -8.3647 H         1 908         0.0258
     42 H7         25.5373   10.4884   -8.7367 H         1 908         0.0258
     43 H8         27.8464    8.3976   -5.7018 H         1 908         0.0588
     44 H9         27.4488    8.2143   -3.3143 H         1 908         0.0505
     45 H10        24.4450    8.3611   -3.8005 H         1 908         0.0413
     46 H11        25.3260    7.9511   -2.2898 H         1 908         0.0413
     47 H12        24.6051    5.7448   -3.0620 H         1 908         0.0452
     48 H13        25.4248    4.8762   -5.1361 H         1 908         0.0452
     49 H14        27.8921    6.1819   -4.8993 H         1 908         0.0417
     50 H15        27.0184    6.1515   -6.4685 H         1 908         0.0417
     51 H16        26.7713    9.5339   -1.3132 H         1 908         0.0595
     52 H17        27.6507   11.1140    0.3679 H         1 908         0.0548
     53 H18        27.5341   12.3823   -4.4105 H         1 908         0.0595
     54 H19        29.6532   13.9175    1.5522 H         1 908         0.0581
     55 H20        29.9922   12.3274    0.7885 H         1 908         0.0581
     56 H21        28.4089   12.6224    1.5840 H         1 908         0.0581
     57 H22        26.5548   15.2891   -2.2052 H         1 908         0.0617
     58 H23        26.9812   17.4738   -3.2399 H         1 908         0.0663
     59 H24        30.6397   15.9742   -4.8812 H         1 908         0.0663
     60 H25        30.2180   13.8027   -3.8301 H         1 908         0.0617
     61 H26        31.1140   18.0941   -4.0545 H         1 908         0.1873
     62 H27        30.2603   20.0628   -6.0896 H         1 908         0.0763
     63 H28        31.4043   18.7720   -6.5913 H         1 908         0.0763
     64 H29        32.6541   21.3167   -3.5658 H         1 908         0.1815
     65 H30        31.0184   20.7478   -3.5956 H         1 908         0.1815
@<TRIPOS>BOND
     1    1    2 2  
     2    2    3 am 
     3    2    8 1  
     4    3    4 1  
     5    3    7 1  
     6    4    5 1  
     7    4    6 1  
     8    7   14 2  
     9    8    9 1  
    10    8   13 1  
    11    9   10 1  
    12    9   14 1  
    13   10   11 1  
    14   11   12 2  
    15   12   13 1  
    16   14   15 1  
    17   15   16 ar 
    18   15   18 ar 
    19   16   17 ar 
    20   17   20 ar 
    21   18   19 ar 
    22   19   20 ar 
    23   19   23 1  
    24   20   21 1  
    25   21   22 1  
    26   23   24 ar 
    27   23   28 ar 
    28   24   25 ar 
    29   25   26 ar 
    30   26   27 ar 
    31   26   29 1  
    32   27   28 ar 
    33   29   30 2  
    34   29   31 am 
    35   31   32 1  
    36   32   33 1  
    37   33   34 2  
    38   33   35 am 
    39    4   36 1  
    40    5   37 1  
    41    5   38 1  
    42    5   39 1  
    43    6   40 1  
    44    6   41 1  
    45    6   42 1  
    46    8   43 1  
    47    9   44 1  
    48   10   45 1  
    49   10   46 1  
    50   11   47 1  
    51   12   48 1  
    52   13   49 1  
    53   13   50 1  
    54   16   51 1  
    55   17   52 1  
    56   18   53 1  
    57   22   54 1  
    58   22   55 1  
    59   22   56 1  
    60   24   57 1  
    61   25   58 1  
    62   27   59 1  
    63   28   60 1  
    64   31   61 1  
    65   32   62 1  
    66   32   63 1  
    67   35   64 1  
    68   35   65 1  
@<TRIPOS>SUBSTRUCTURE
     1 908         1

