### 
### Created by X-TOOL on Mon Sep 10 21:13:30 2018
### 

@<TRIPOS>MOLECULE
5l8n_ligand
   23    24     1     0     0
SMALL
GAST_HUCK


@<TRIPOS>ATOM
      1 C4         59.8180   -5.8950   57.1170 C.ar      1 6RQ         0.0623
      2 C5         58.9330   -6.4670   58.0280 C.ar      1 6RQ        -0.0019
      3 C6         57.9440   -7.3540   57.6320 C.ar      1 6RQ        -0.0737
      4 C7         57.8500   -7.6710   56.2830 C.ar      1 6RQ        -0.0618
      5 C8         56.7840   -8.6320   55.8250 C.3       1 6RQ        -0.0397
      6 C11        60.3570   -5.1150   59.0660 C.2       1 6RQ         0.2065
      7 C2         58.7500   -7.0950   55.3430 C.ar      1 6RQ        -0.0594
      8 C1         58.6470   -7.4370   53.8750 C.3       1 6RQ        -0.0393
      9 C3         59.7260   -6.2050   55.7640 C.ar      1 6RQ        -0.0490
     10 N9         59.3040   -5.9470   59.2550 N.2       1 6RQ        -0.3211
     11 N10        60.6920   -5.0540   57.7910 N.pl3     1 6RQ        -0.2361
     12 N12        60.9960   -4.4170   60.1280 N.pl3     1 6RQ        -0.2901
     13 H1         57.2630   -7.7881   58.3550 H         1 6RQ         0.0433
     14 H2         56.1940   -8.9652   56.6915 H         1 6RQ         0.0358
     15 H3         57.2562   -9.5026   55.3463 H         1 6RQ         0.0358
     16 H4         56.1234   -8.1299   55.1028 H         1 6RQ         0.0358
     17 H5         59.4245   -6.8949   53.3168 H         1 6RQ         0.0360
     18 H6         57.6552   -7.1453   53.4992 H         1 6RQ         0.0360
     19 H7         58.7864   -8.5197   53.7401 H         1 6RQ         0.0360
     20 H8         60.4073   -5.7573   55.0495 H         1 6RQ         0.0451
     21 H9         61.4513   -4.4936   57.3783 H         1 6RQ         0.2289
     22 H10        60.6595   -4.5305   61.0949 H         1 6RQ         0.1853
     23 H11        61.7952   -3.7981   59.9301 H         1 6RQ         0.1853
@<TRIPOS>BOND
     1    1    2 ar 
     2    1    9 ar 
     3    1   11 1  
     4    2    3 ar 
     5    2   10 1  
     6    3    4 ar 
     7    4    5 1  
     8    4    7 ar 
     9   10    6 2  
    10    6   11 1  
    11    6   12 1  
    12    7    8 1  
    13    7    9 ar 
    14    3   13 1  
    15    5   14 1  
    16    5   15 1  
    17    5   16 1  
    18    8   17 1  
    19    8   18 1  
    20    8   19 1  
    21    9   20 1  
    22   11   21 1  
    23   12   22 1  
    24   12   23 1  
@<TRIPOS>SUBSTRUCTURE
     1 6RQ         1

