### 
### Created by X-TOOL on Mon Sep 10 21:13:29 2018
### 

@<TRIPOS>MOLECULE
5l8o_ligand
   68    71     1     0     0
SMALL
GAST_HUCK


@<TRIPOS>ATOM
      1 C1         65.7060    6.5630   73.8330 C.3       1 CHD        -0.0448
      2 C2         67.1620    6.3520   73.4630 C.3       1 CHD        -0.0263
      3 C3         67.2750    5.9330   72.0080 C.3       1 CHD         0.0555
      4 O3         68.6460    5.6390   71.7530 O.3       1 CHD        -0.3918
      5 C4         66.4180    4.7010   71.7080 C.3       1 CHD        -0.0234
      6 C5         64.9670    4.8250   72.2040 C.3       1 CHD        -0.0307
      7 C6         64.2130    3.5100   71.9280 C.3       1 CHD        -0.0232
      8 C7         64.3340    2.4060   72.9910 C.3       1 CHD         0.0589
      9 O7         65.5430    1.6780   72.7470 O.3       1 CHD        -0.3915
     10 C8         64.2870    2.9200   74.4350 C.3       1 CHD        -0.0081
     11 C9         65.2410    4.1210   74.5950 C.3       1 CHD        -0.0276
     12 C10        64.8510    5.3010   73.6640 C.3       1 CHD        -0.0257
     13 C11        65.4870    4.5310   76.0580 C.3       1 CHD        -0.0226
     14 C12        65.6870    3.3880   77.0590 C.3       1 CHD         0.0614
     15 O12        67.0200    2.8630   76.9150 O.3       1 CHD        -0.3912
     16 C13        64.6220    2.2980   76.9150 C.3       1 CHD         0.0001
     17 C14        64.6300    1.8360   75.4590 C.3       1 CHD        -0.0276
     18 C15        63.7640    0.5870   75.4490 C.3       1 CHD        -0.0490
     19 C16        64.0540   -0.0470   76.8090 C.3       1 CHD        -0.0491
     20 C17        64.8920    0.9590   77.6180 C.3       1 CHD        -0.0303
     21 C18        63.2600    2.8650   77.3680 C.3       1 CHD        -0.0567
     22 C19        63.4220    5.8080   73.9110 C.3       1 CHD        -0.0590
     23 C20        64.6520    0.8240   79.1390 C.3       1 CHD        -0.0390
     24 C21        65.4320    1.8520   79.9730 C.3       1 CHD        -0.0620
     25 C22        64.9320   -0.6390   79.5320 C.3       1 CHD        -0.0386
     26 C23        65.4210   -0.9130   80.9500 C.3       1 CHD         0.0004
     27 O25        64.4980   -3.0540   81.3960 O.co2     1 CHD        -0.5690
     28 C24        65.5280   -2.4080   81.0960 C.2       1 CHD         0.0348
     29 O26        66.6420   -2.9330   80.8900 O.co2     1 CHD        -0.5690
     30 H1         65.2928    7.3539   73.1898 H         1 CHD         0.0271
     31 H2         65.6551    6.8816   74.8846 H         1 CHD         0.0271
     32 H3         67.5896    5.5656   74.1023 H         1 CHD         0.0290
     33 H4         67.7158    7.2901   73.6155 H         1 CHD         0.0290
     34 H5         66.9464    6.7615   71.3633 H         1 CHD         0.0593
     35 H6         68.9295    4.9354   72.3249 H         1 CHD         0.2098
     36 H7         66.8790    3.8294   72.1957 H         1 CHD         0.0293
     37 H8         66.4013    4.5457   70.6192 H         1 CHD         0.0293
     38 H9         64.4870    5.6025   71.5915 H         1 CHD         0.0308
     39 H10        64.5920    3.1017   70.9795 H         1 CHD         0.0293
     40 H11        63.1457    3.7542   71.8217 H         1 CHD         0.0293
     41 H12        63.4837    1.7204   72.8610 H         1 CHD         0.0596
     42 H13        65.6338    0.9904   73.3962 H         1 CHD         0.2098
     43 H14        63.2615    3.2622   74.6381 H         1 CHD         0.0331
     44 H15        66.2172    3.7703   74.2290 H         1 CHD         0.0310
     45 H16        64.6201    5.1204   76.3912 H         1 CHD         0.0293
     46 H17        66.3892    5.1598   76.0827 H         1 CHD         0.0293
     47 H18        65.5942    3.8054   78.0725 H         1 CHD         0.0599
     48 H19        67.6508    3.5524   77.0862 H         1 CHD         0.2098
     49 H20        65.6559    1.5227   75.2156 H         1 CHD         0.0310
     50 H21        64.0530   -0.0873   74.6294 H         1 CHD         0.0268
     51 H22        62.6992    0.8456   75.3530 H         1 CHD         0.0268
     52 H23        64.6166   -0.9827   76.6751 H         1 CHD         0.0268
     53 H24        63.1107   -0.2582   77.3340 H         1 CHD         0.0268
     54 H25        65.9571    0.7278   77.4695 H         1 CHD         0.0310
     55 H26        63.0746    3.8231   76.8603 H         1 CHD         0.0236
     56 H27        63.2724    3.0232   78.4565 H         1 CHD         0.0236
     57 H28        62.4623    2.1529   77.1100 H         1 CHD         0.0236
     58 H29        63.2045    6.6400   73.2251 H         1 CHD         0.0235
     59 H30        63.3310    6.1564   74.9504 H         1 CHD         0.0235
     60 H31        62.7073    4.9907   73.7343 H         1 CHD         0.0235
     61 H32        63.5854    1.0178   79.3255 H         1 CHD         0.0302
     62 H33        65.2151    1.6986   81.0404 H         1 CHD         0.0233
     63 H34        65.1291    2.8679   79.6796 H         1 CHD         0.0233
     64 H35        66.5103    1.7254   79.7962 H         1 CHD         0.0233
     65 H36        65.6967   -1.0237   78.8412 H         1 CHD         0.0286
     66 H37        63.9965   -1.2008   79.3933 H         1 CHD         0.0286
     67 H38        64.7037   -0.5122   81.6813 H         1 CHD         0.0430
     68 H39        66.4046   -0.4465   81.1075 H         1 CHD         0.0430
@<TRIPOS>BOND
     1    1    2 1  
     2    1   12 1  
     3    2    3 1  
     4    3    4 1  
     5    3    5 1  
     6    5    6 1  
     7    6    7 1  
     8    6   12 1  
     9    7    8 1  
    10    8    9 1  
    11    8   10 1  
    12   10   11 1  
    13   10   17 1  
    14   11   12 1  
    15   11   13 1  
    16   12   22 1  
    17   13   14 1  
    18   14   15 1  
    19   14   16 1  
    20   16   17 1  
    21   16   20 1  
    22   16   21 1  
    23   17   18 1  
    24   18   19 1  
    25   19   20 1  
    26   20   23 1  
    27   23   24 1  
    28   23   25 1  
    29   25   26 1  
    30   26   28 1  
    31   28   27 ar 
    32   28   29 ar 
    33    1   30 1  
    34    1   31 1  
    35    2   32 1  
    36    2   33 1  
    37    3   34 1  
    38    4   35 1  
    39    5   36 1  
    40    5   37 1  
    41    6   38 1  
    42    7   39 1  
    43    7   40 1  
    44    8   41 1  
    45    9   42 1  
    46   10   43 1  
    47   11   44 1  
    48   13   45 1  
    49   13   46 1  
    50   14   47 1  
    51   15   48 1  
    52   17   49 1  
    53   18   50 1  
    54   18   51 1  
    55   19   52 1  
    56   19   53 1  
    57   20   54 1  
    58   21   55 1  
    59   21   56 1  
    60   21   57 1  
    61   22   58 1  
    62   22   59 1  
    63   22   60 1  
    64   23   61 1  
    65   24   62 1  
    66   24   63 1  
    67   24   64 1  
    68   25   65 1  
    69   25   66 1  
    70   26   67 1  
    71   26   68 1  
@<TRIPOS>SUBSTRUCTURE
     1 CHD         1

