### 
### Created by X-TOOL on Mon Sep 10 21:13:28 2018
### 

@<TRIPOS>MOLECULE
5l8t_ligand
   32    33     1     0     0
SMALL
GAST_HUCK


@<TRIPOS>ATOM
      1 O10       -30.7000   -7.8520   -1.0390 O.2       1 6RR        -0.1743
      2 C15       -24.5990   -7.2510    0.6920 C.ar      1 6RR        -0.0118
      3 C14       -25.9660   -6.8350    0.6710 C.ar      1 6RR        -0.0539
      4 C12       -28.9550   -9.7100   -1.2730 C.3       1 6RR         0.0879
      5 C01       -24.7590  -11.0090    0.7480 C.3       1 6RR        -0.0188
      6 C02       -25.1950   -9.4960    0.7150 C.ar      1 6RR         0.0431
      7 C03       -26.5980   -9.1890    0.6940 C.ar      1 6RR         0.0686
      8 N04       -27.6080  -10.2680    0.6860 N.pl3     1 6RR        -0.3151
      9 C05       -28.9530   -9.9190    0.2300 C.3       1 6RR         0.0546
     10 C06       -30.0470  -11.0250    0.7090 C.3       1 6RR        -0.0276
     11 C07       -31.3750  -11.2120   -0.2210 C.3       1 6RR        -0.0315
     12 C08       -31.7060  -10.1490   -1.2780 C.3       1 6RR         0.0659
     13 S09       -30.4670   -9.0990   -1.7220 S.o2      1 6RR        -0.0289
     14 O11       -30.4710   -8.8990   -3.1370 O.2       1 6RR        -0.1743
     15 C13       -26.9780   -7.8110    0.6700 C.ar      1 6RR        -0.0315
     16 N16       -24.2820   -8.5600    0.7120 N.ar      1 6RR        -0.3119
     17 H1        -23.8107   -6.5070    0.6918 H         1 6RR         0.0682
     18 H2        -26.2193   -5.7811    0.6560 H         1 6RR         0.0615
     19 H3        -28.7750  -10.6683   -1.7821 H         1 6RR         0.0522
     20 H4        -28.1673   -8.9940   -1.5501 H         1 6RR         0.0522
     21 H5        -23.6610  -11.0739    0.7612 H         1 6RR         0.0394
     22 H6        -25.1459  -11.5217   -0.1450 H         1 6RR         0.0394
     23 H7        -25.1655  -11.4881    1.6509 H         1 6RR         0.0394
     24 H8        -27.3746  -11.2245    0.9885 H         1 6RR         0.1761
     25 H9        -29.2288   -8.9626    0.6981 H         1 6RR         0.0564
     26 H10       -30.3858  -10.7407    1.7162 H         1 6RR         0.0288
     27 H11       -29.5357  -11.9978    0.7551 H         1 6RR         0.0288
     28 H12       -32.2379  -11.2685    0.4589 H         1 6RR         0.0281
     29 H13       -31.2632  -12.1689   -0.7519 H         1 6RR         0.0281
     30 H14       -32.5335   -9.5388   -0.8869 H         1 6RR         0.0500
     31 H15       -32.0357  -10.6754   -2.1858 H         1 6RR         0.0500
     32 H16       -28.0234   -7.5249    0.6514 H         1 6RR         0.0607
@<TRIPOS>BOND
     1   13    1 2  
     2    3    2 ar 
     3   16    2 ar 
     4   15    3 ar 
     5    9    4 1  
     6    4   13 1  
     7    6    5 1  
     8    7    6 ar 
     9    6   16 ar 
    10    8    7 1  
    11    7   15 ar 
    12    8    9 1  
    13    9   10 1  
    14   10   11 1  
    15   11   12 1  
    16   12   13 1  
    17   13   14 2  
    18    2   17 1  
    19    3   18 1  
    20    4   19 1  
    21    4   20 1  
    22    5   21 1  
    23    5   22 1  
    24    5   23 1  
    25    8   24 1  
    26    9   25 1  
    27   10   26 1  
    28   10   27 1  
    29   11   28 1  
    30   11   29 1  
    31   12   30 1  
    32   12   31 1  
    33   15   32 1  
@<TRIPOS>SUBSTRUCTURE
     1 6RR         1

