### 
### Created by X-TOOL on Wed Jan  1 15:39:36 2020
### 

@<TRIPOS>MOLECULE
5l8y_ligand
   82    86     1     0     0
SMALL
GAST_HUCK


@<TRIPOS>ATOM
      1 O4         36.7560   33.1750   26.3610 O.2       1 CVA        -0.3833
      2 C26        36.4180   32.1500   26.9300 C.2       1 CVA         0.2243
      3 N3         37.3170   31.2560   27.4560 N.am      1 CVA        -0.1659
      4 C19        38.7900   31.3820   27.3790 C.3       1 CVA         0.0794
      5 C25        39.4210   31.4500   28.8220 C.3       1 CVA        -0.0230
      6 C24        40.9060   31.3190   29.1130 C.3       1 CVA        -0.0504
      7 C23        41.7840   31.0390   27.9400 C.3       1 CVA        -0.0530
      8 C22        41.6280   29.6410   27.3820 C.3       1 CVA        -0.0530
      9 C21        40.2190   29.2180   27.0330 C.3       1 CVA        -0.0504
     10 C20        39.3480   30.3020   26.4130 C.3       1 CVA        -0.0230
     11 N2         36.9840   30.1190   28.1790 N.2       1 CVA        -0.2033
     12 C27        34.9560   31.7850   27.1300 C.3       1 CVA         0.0759
     13 C32        34.7500   31.1150   28.5170 C.3       1 CVA         0.0297
     14 C31        34.7980   32.1210   29.6840 C.3       1 CVA        -0.0215
     15 C30        34.4090   33.5260   29.2970 C.2       1 CVA        -0.0963
     16 C29        34.0920   33.9330   28.0750 C.2       1 CVA        -0.0958
     17 C28        34.0060   32.9790   26.9370 C.3       1 CVA        -0.0140
     18 C18        35.8010   30.0290   28.6860 C.2       1 CVA         0.0453
     19 C4         35.5290   28.7770   29.4350 C.ar      1 CVA        -0.0173
     20 C3         34.5570   28.7310   30.4350 C.ar      1 CVA        -0.0614
     21 C2         34.3350   27.5700   31.1540 C.ar      1 CVA        -0.0301
     22 C5         36.2590   27.6250   29.1490 C.ar      1 CVA        -0.0529
     23 C6         36.0210   26.4270   29.8240 C.ar      1 CVA         0.0155
     24 C1         35.0660   26.4170   30.8490 C.ar      1 CVA         0.1028
     25 O          34.8980   25.2220   31.4900 O.3       1 CVA        -0.3177
     26 C          33.6230   24.9530   32.0860 C.3       1 CVA         0.0608
     27 C7         36.6700   25.2000   29.2810 C.ar      1 CVA        -0.0175
     28 C12        36.4350   24.8020   27.9650 C.ar      1 CVA        -0.0516
     29 C11        37.1800   23.7980   27.3730 C.ar      1 CVA        -0.0437
     30 C10        38.1930   23.1510   28.0820 C.ar      1 CVA         0.0477
     31 C9         38.3900   23.5070   29.4180 C.ar      1 CVA        -0.0437
     32 C8         37.6400   24.5110   30.0020 C.ar      1 CVA        -0.0516
     33 C13        39.1690   22.2050   27.4400 C.2       1 CVA         0.2052
     34 O1         40.3060   22.0920   27.8890 O.2       1 CVA        -0.3857
     35 N          38.7660   21.5230   26.3600 N.am      1 CVA        -0.2680
     36 C14        39.2240   20.1710   26.1060 C.3       1 CVA         0.1195
     37 C15        38.4770   19.1100   26.8980 C.2       1 CVA         0.1985
     38 O2         38.5030   19.1010   28.1290 O.2       1 CVA        -0.3949
     39 N1         37.8030   18.2140   26.1740 N.am      1 CVA        -0.2831
     40 C16        37.7750   16.7880   26.4760 C.3       1 CVA         0.0541
     41 C17        36.5210   16.1190   25.9760 C.3       1 CVA         0.0643
     42 O3         35.5120   16.0280   26.9640 O.3       1 CVA        -0.3930
     43 H1         39.0113   32.3522   26.9102 H         1 CVA         0.0640
     44 H2         38.9340   30.6487   29.3970 H         1 CVA         0.0293
     45 H3         39.1236   32.4271   29.2303 H         1 CVA         0.0293
     46 H4         41.0359   30.4977   29.8332 H         1 CVA         0.0266
     47 H5         41.2436   32.2621   29.5675 H         1 CVA         0.0266
     48 H6         42.8308   31.1742   28.2498 H         1 CVA         0.0265
     49 H7         41.5410   31.7592   27.1448 H         1 CVA         0.0265
     50 H8         42.0151   28.9348   28.1313 H         1 CVA         0.0265
     51 H9         42.2352   29.5744   26.4672 H         1 CVA         0.0265
     52 H10        39.7288   28.8751   27.9561 H         1 CVA         0.0266
     53 H11        40.2819   28.3833   26.3193 H         1 CVA         0.0266
     54 H12        39.9488   30.8163   25.6485 H         1 CVA         0.0293
     55 H13        38.4902   29.8075   25.9338 H         1 CVA         0.0293
     56 H14        34.6983   31.0415   26.3614 H         1 CVA         0.0588
     57 H15        33.7563   30.6433   28.5252 H         1 CVA         0.0505
     58 H16        35.8238   32.1426   30.0805 H         1 CVA         0.0413
     59 H17        34.1089   31.7746   30.4683 H         1 CVA         0.0413
     60 H18        34.3864   34.2716   30.0904 H         1 CVA         0.0452
     61 H19        33.8902   34.9889   27.9010 H         1 CVA         0.0452
     62 H20        32.9740   32.6061   26.8604 H         1 CVA         0.0417
     63 H21        34.2759   33.5043   26.0090 H         1 CVA         0.0417
     64 H22        33.9688   29.6155   30.6511 H         1 CVA         0.0595
     65 H23        33.5986   27.5539   31.9493 H         1 CVA         0.0548
     66 H24        37.0281   27.6602   28.3859 H         1 CVA         0.0595
     67 H25        33.6421   23.9607   32.5604 H         1 CVA         0.0581
     68 H26        32.8438   24.9734   31.3099 H         1 CVA         0.0581
     69 H27        33.4044   25.7182   32.8453 H         1 CVA         0.0581
     70 H28        35.6526   25.2894   27.3945 H         1 CVA         0.0617
     71 H29        36.9749   23.5109   26.3480 H         1 CVA         0.0663
     72 H30        39.1405   22.9896   30.0046 H         1 CVA         0.0663
     73 H31        37.8111   24.7662   31.0416 H         1 CVA         0.0617
     74 H32        38.1358   21.9555   25.7151 H         1 CVA         0.1873
     75 H33        40.2908   20.1116   26.3674 H         1 CVA         0.0763
     76 H34        39.0966   19.9574   25.0345 H         1 CVA         0.0763
     77 H35        37.2886   18.5388   25.3803 H         1 CVA         0.1852
     78 H36        37.8345   16.6567   27.5665 H         1 CVA         0.0542
     79 H37        38.6440   16.3093   26.0010 H         1 CVA         0.0542
     80 H38        36.7756   15.1029   25.6403 H         1 CVA         0.0577
     81 H39        36.1291   16.6983   25.1270 H         1 CVA         0.0577
     82 H40        34.7478   15.6000   26.5961 H         1 CVA         0.2095
@<TRIPOS>BOND
     1    1    2 2  
     2    2    3 am 
     3    2   12 1  
     4    3    4 1  
     5    3   11 1  
     6    4    5 1  
     7    4   10 1  
     8    5    6 1  
     9    6    7 1  
    10    7    8 1  
    11    8    9 1  
    12    9   10 1  
    13   11   18 2  
    14   12   13 1  
    15   12   17 1  
    16   13   14 1  
    17   13   18 1  
    18   14   15 1  
    19   15   16 2  
    20   16   17 1  
    21   18   19 1  
    22   19   20 ar 
    23   19   22 ar 
    24   20   21 ar 
    25   21   24 ar 
    26   22   23 ar 
    27   23   24 ar 
    28   23   27 1  
    29   24   25 1  
    30   25   26 1  
    31   27   28 ar 
    32   27   32 ar 
    33   28   29 ar 
    34   29   30 ar 
    35   30   31 ar 
    36   30   33 1  
    37   31   32 ar 
    38   33   34 2  
    39   33   35 am 
    40   35   36 1  
    41   36   37 1  
    42   37   38 2  
    43   37   39 am 
    44   39   40 1  
    45   40   41 1  
    46   41   42 1  
    47    4   43 1  
    48    5   44 1  
    49    5   45 1  
    50    6   46 1  
    51    6   47 1  
    52    7   48 1  
    53    7   49 1  
    54    8   50 1  
    55    8   51 1  
    56    9   52 1  
    57    9   53 1  
    58   10   54 1  
    59   10   55 1  
    60   12   56 1  
    61   13   57 1  
    62   14   58 1  
    63   14   59 1  
    64   15   60 1  
    65   16   61 1  
    66   17   62 1  
    67   17   63 1  
    68   20   64 1  
    69   21   65 1  
    70   22   66 1  
    71   26   67 1  
    72   26   68 1  
    73   26   69 1  
    74   28   70 1  
    75   29   71 1  
    76   31   72 1  
    77   32   73 1  
    78   35   74 1  
    79   36   75 1  
    80   36   76 1  
    81   39   77 1  
    82   40   78 1  
    83   40   79 1  
    84   41   80 1  
    85   41   81 1  
    86   42   82 1  
@<TRIPOS>SUBSTRUCTURE
     1 CVA         1

