### 
### Created by X-TOOL on Mon Sep 10 21:13:28 2018
### 

@<TRIPOS>MOLECULE
5l96_ligand
   31    31     1     0     0
SMALL
GAST_HUCK


@<TRIPOS>ATOM
      1 C13       -25.1800   -7.3310    0.7380 C.ar      1 6RZ        -0.0118
      2 C15       -27.5280   -7.9530    0.5160 C.ar      1 6RZ        -0.0315
      3 C01       -30.2450  -11.2980    0.5760 C.3       1 6RZ        -0.0412
      4 C05       -31.1200   -7.7860   -0.6880 C.3       1 6RZ         0.0545
      5 N08       -28.0540  -10.3940    0.4810 N.pl3     1 6RZ        -0.3154
      6 C09       -27.1160   -9.3030    0.5610 C.ar      1 6RZ         0.0686
      7 C02       -29.3720  -10.1700    0.1000 C.3       1 6RZ         0.0518
      8 C03       -29.4600  -10.0680   -1.4390 C.3       1 6RZ         0.0873
      9 S04       -30.8850   -9.0450   -1.8710 S.o2      1 6RZ        -0.0317
     10 O06       -30.7240   -8.4790   -3.2270 O.2       1 6RZ        -0.1745
     11 O07       -32.1110   -9.8900   -2.0240 O.2       1 6RZ        -0.1745
     12 C10       -25.7290   -9.5640    0.6980 C.ar      1 6RZ         0.0431
     13 C11       -25.2540  -11.0070    0.7630 C.3       1 6RZ        -0.0188
     14 N12       -24.8340   -8.6030    0.7860 N.ar      1 6RZ        -0.3119
     15 C14       -26.5320   -6.9490    0.6050 C.ar      1 6RZ        -0.0539
     16 H1        -24.4136   -6.5670    0.8017 H         1 6RZ         0.0682
     17 H2        -28.5755   -7.6924    0.4163 H         1 6RZ         0.0607
     18 H3        -31.2848  -11.1112    0.2697 H         1 6RZ         0.0252
     19 H4        -30.1922  -11.3649    1.6727 H         1 6RZ         0.0252
     20 H5        -29.8966  -12.2430    0.1338 H         1 6RZ         0.0252
     21 H6        -31.9910   -7.1761   -0.9698 H         1 6RZ         0.0464
     22 H7        -30.2241   -7.1491   -0.6475 H         1 6RZ         0.0464
     23 H8        -31.2933   -8.2385    0.2995 H         1 6RZ         0.0464
     24 H9        -27.7447  -11.3498    0.7085 H         1 6RZ         0.1761
     25 H10       -29.7218   -9.2278    0.5471 H         1 6RZ         0.0561
     26 H11       -29.5813  -11.0726   -1.8703 H         1 6RZ         0.0522
     27 H12       -28.5415   -9.6084   -1.8327 H         1 6RZ         0.0522
     28 H13       -24.1593  -11.0282    0.8687 H         1 6RZ         0.0394
     29 H14       -25.5434  -11.5303   -0.1603 H         1 6RZ         0.0394
     30 H15       -25.7155  -11.5064    1.6276 H         1 6RZ         0.0394
     31 H16       -26.8052   -5.9005    0.5713 H         1 6RZ         0.0615
@<TRIPOS>BOND
     1    1   14 ar 
     2   15    1 ar 
     3    6    2 ar 
     4    2   15 ar 
     5    7    3 1  
     6    9    4 1  
     7    5    6 1  
     8    7    5 1  
     9    6   12 ar 
    10    8    7 1  
    11    8    9 1  
    12    9   10 2  
    13    9   11 2  
    14   12   13 1  
    15   12   14 ar 
    16    1   16 1  
    17    2   17 1  
    18    3   18 1  
    19    3   19 1  
    20    3   20 1  
    21    4   21 1  
    22    4   22 1  
    23    4   23 1  
    24    5   24 1  
    25    7   25 1  
    26    8   26 1  
    27    8   27 1  
    28   13   28 1  
    29   13   29 1  
    30   13   30 1  
    31   15   31 1  
@<TRIPOS>SUBSTRUCTURE
     1 6RZ         1

