### 
### Created by X-TOOL on Mon Sep 10 21:13:28 2018
### 

@<TRIPOS>MOLECULE
5l97_ligand
   33    34     1     0     0
SMALL
GAST_HUCK


@<TRIPOS>ATOM
      1 C10       -30.4300  -10.2350    1.6030 C.2       1 6RW        -0.0725
      2 C11       -31.5040  -11.0690    1.5990 C.2       1 6RW        -0.0945
      3 C12       -31.3260  -11.9590    0.2860 C.3       1 6RW        -0.0103
      4 C13       -30.7270  -10.8460   -0.7450 C.3       1 6RW         0.1114
      5 C01       -25.6490  -11.0840    0.8730 C.3       1 6RW        -0.0188
      6 C02       -26.1990   -9.6850    0.7050 C.ar      1 6RW         0.0432
      7 C03       -27.5190   -9.4530    0.3050 C.ar      1 6RW         0.0702
      8 C04       -27.9630   -8.1370    0.1720 C.ar      1 6RW        -0.0313
      9 C05       -27.0810   -7.1010    0.4400 C.ar      1 6RW        -0.0538
     10 C06       -25.7830   -7.3810    0.8240 C.ar      1 6RW        -0.0118
     11 N07       -25.3700   -8.6560    0.9510 N.ar      1 6RW        -0.3119
     12 N08       -28.4580  -10.5050    0.0300 N.pl3     1 6RW        -0.3067
     13 C09       -29.8130  -10.1370    0.0180 C.3       1 6RW         0.0759
     14 S14       -30.2890  -11.5650   -2.4040 S.o2      1 6RW        -0.0258
     15 O15       -30.7310  -10.7110   -3.4730 O.2       1 6RW        -0.1740
     16 O16       -31.0910  -12.7330   -2.6490 O.2       1 6RW        -0.1740
     17 C17       -28.5740  -11.9400   -2.6000 C.3       1 6RW         0.0552
     18 H1        -30.0311   -9.7165    2.4736 H         1 6RW         0.0473
     19 H2        -32.3088  -11.1188    2.3309 H         1 6RW         0.0451
     20 H3        -32.2872  -12.3626   -0.0650 H         1 6RW         0.0409
     21 H4        -30.6185  -12.7855    0.4479 H         1 6RW         0.0409
     22 H5        -31.5359  -10.1354   -0.9701 H         1 6RW         0.0599
     23 H6        -24.5975  -11.0288    1.1914 H         1 6RW         0.0394
     24 H7        -25.7144  -11.6212   -0.0847 H         1 6RW         0.0394
     25 H8        -26.2350  -11.6194    1.6345 H         1 6RW         0.0394
     26 H9        -28.9811   -7.9277   -0.1359 H         1 6RW         0.0607
     27 H10       -27.4093   -6.0720    0.3484 H         1 6RW         0.0615
     28 H11       -25.0934   -6.5689    1.0241 H         1 6RW         0.0682
     29 H12       -28.1548  -11.4731   -0.1480 H         1 6RW         0.1785
     30 H13       -29.8450   -9.0924   -0.3250 H         1 6RW         0.0692
     31 H14       -28.4024  -12.3583   -3.6028 H         1 6RW         0.0464
     32 H15       -28.2699  -12.6743   -1.8395 H         1 6RW         0.0464
     33 H16       -27.9816  -11.0210   -2.4799 H         1 6RW         0.0464
@<TRIPOS>BOND
     1    1    2 2  
     2   13    1 1  
     3    3    2 1  
     4    4    3 1  
     5   13    4 1  
     6    4   14 1  
     7    6    5 1  
     8    7    6 ar 
     9    6   11 ar 
    10    7    8 ar 
    11   12    7 1  
    12    8    9 ar 
    13    9   10 ar 
    14   11   10 ar 
    15   12   13 1  
    16   14   15 2  
    17   14   16 2  
    18   14   17 1  
    19    1   18 1  
    20    2   19 1  
    21    3   20 1  
    22    3   21 1  
    23    4   22 1  
    24    5   23 1  
    25    5   24 1  
    26    5   25 1  
    27    8   26 1  
    28    9   27 1  
    29   10   28 1  
    30   12   29 1  
    31   13   30 1  
    32   17   31 1  
    33   17   32 1  
    34   17   33 1  
@<TRIPOS>SUBSTRUCTURE
     1 6RW         1

