### 
### Created by X-TOOL on Mon Sep 10 21:13:29 2018
### 

@<TRIPOS>MOLECULE
5l98_ligand
   38    40     1     0     0
SMALL
GAST_HUCK


@<TRIPOS>ATOM
      1 C01       -29.0760  -11.4590   -1.6090 C.3       1 6RY        -0.0343
      2 C02       -28.6980  -10.2020   -0.8830 C.3       1 6RY         0.0589
      3 N03       -27.5000  -10.4040   -0.0910 N.pl3     1 6RY        -0.3076
      4 C04       -26.6820   -9.3010    0.2960 C.ar      1 6RY         0.0702
      5 C05       -25.3540   -9.4790    0.7840 C.ar      1 6RY         0.0432
      6 C06       -24.7710  -10.8650    0.9170 C.3       1 6RY        -0.0188
      7 N07       -24.6020   -8.4830    1.1390 N.ar      1 6RY        -0.3119
      8 C08       -25.0570   -7.2040    1.0470 C.ar      1 6RY        -0.0118
      9 C09       -26.3300   -6.9060    0.5870 C.ar      1 6RY        -0.0538
     10 C10       -27.1740   -7.9580    0.2000 C.ar      1 6RY        -0.0313
     11 C11       -29.7930   -9.7820    0.0550 C.ar      1 6RY        -0.0387
     12 C12       -30.7650   -8.8780   -0.3280 C.ar      1 6RY        -0.0377
     13 C13       -31.8070   -8.4860    0.6330 C.ar      1 6RY         0.1137
     14 C14       -31.8030   -9.0100    1.8920 C.ar      1 6RY         0.1127
     15 O15       -32.7700   -8.6900    2.8880 O.3       1 6RY        -0.3236
     16 C16       -33.9160   -8.0730    2.3770 C.3       1 6RY         0.0937
     17 C17       -33.6070   -7.0230    1.2900 C.3       1 6RY         0.0948
     18 O18       -32.8240   -7.5430    0.2120 O.3       1 6RY        -0.3207
     19 C19       -30.7860   -9.9440    2.2940 C.ar      1 6RY        -0.0478
     20 C20       -29.7900  -10.3210    1.3810 C.ar      1 6RY        -0.0780
     21 H1        -29.9856  -11.2808   -2.2014 H         1 6RY         0.0271
     22 H2        -29.2644  -12.2609   -0.8801 H         1 6RY         0.0271
     23 H3        -28.2553  -11.7570   -2.2780 H         1 6RY         0.0271
     24 H4        -28.5203   -9.4054   -1.6205 H         1 6RY         0.0686
     25 H5        -27.2360  -11.3573    0.1962 H         1 6RY         0.1784
     26 H6        -23.7448  -10.7952    1.3070 H         1 6RY         0.0394
     27 H7        -24.7562  -11.3527   -0.0688 H         1 6RY         0.0394
     28 H8        -25.3870  -11.4570    1.6098 H         1 6RY         0.0394
     29 H9        -24.4028   -6.3919    1.3430 H         1 6RY         0.0682
     30 H10       -26.6678   -5.8777    0.5272 H         1 6RY         0.0615
     31 H11       -28.1758   -7.7596   -0.1635 H         1 6RY         0.0607
     32 H12       -30.7597   -8.4611   -1.3286 H         1 6RY         0.0451
     33 H13       -34.4434   -7.5752    3.2040 H         1 6RY         0.0633
     34 H14       -34.5650   -8.8469    1.9412 H         1 6RY         0.0633
     35 H15       -33.0557   -6.1916    1.7534 H         1 6RY         0.0636
     36 H16       -34.5586   -6.6503    0.8831 H         1 6RY         0.0636
     37 H17       -30.7891  -10.3545    3.2973 H         1 6RY         0.0493
     38 H18       -29.0178  -11.0207    1.6797 H         1 6RY         0.0437
@<TRIPOS>BOND
     1    1    2 1  
     2    2    3 1  
     3    2   11 1  
     4    3    4 1  
     5    4    5 ar 
     6    4   10 ar 
     7    5    6 1  
     8    5    7 ar 
     9    7    8 ar 
    10    8    9 ar 
    11    9   10 ar 
    12   11   12 ar 
    13   11   20 ar 
    14   12   13 ar 
    15   13   14 ar 
    16   13   18 1  
    17   14   15 1  
    18   14   19 ar 
    19   15   16 1  
    20   16   17 1  
    21   17   18 1  
    22   19   20 ar 
    23    1   21 1  
    24    1   22 1  
    25    1   23 1  
    26    2   24 1  
    27    3   25 1  
    28    6   26 1  
    29    6   27 1  
    30    6   28 1  
    31    8   29 1  
    32    9   30 1  
    33   10   31 1  
    34   12   32 1  
    35   16   33 1  
    36   16   34 1  
    37   17   35 1  
    38   17   36 1  
    39   19   37 1  
    40   20   38 1  
@<TRIPOS>SUBSTRUCTURE
     1 6RY         1

