### 
### Created by X-TOOL on Mon Sep 10 21:13:27 2018
### 

@<TRIPOS>MOLECULE
5l99_ligand
   34    36     1     0     0
SMALL
GAST_HUCK


@<TRIPOS>ATOM
      1 C01       -29.8040  -11.7210   -1.1430 C.3       1 6S0        -0.0322
      2 C02       -29.3520  -10.3530   -0.6580 C.3       1 6S0         0.0690
      3 N03       -28.2220  -10.5020    0.2010 N.pl3     1 6S0        -0.3055
      4 C04       -27.2930   -9.3990    0.4280 C.ar      1 6S0         0.0704
      5 C05       -25.9050   -9.6310    0.8260 C.ar      1 6S0         0.0432
      6 C06       -25.3830  -11.0700    1.0180 C.3       1 6S0        -0.0188
      7 N07       -25.0570   -8.6430    1.0410 N.ar      1 6S0        -0.3119
      8 C08       -25.4280   -7.3720    0.8960 C.ar      1 6S0        -0.0118
      9 C09       -26.7320   -7.0250    0.5220 C.ar      1 6S0        -0.0538
     10 C10       -27.6980   -8.0830    0.2780 C.ar      1 6S0        -0.0313
     11 C11       -30.4940   -9.6820    0.0480 C.ar      1 6S0         0.0006
     12 C12       -30.7120   -9.8590    1.4310 C.ar      1 6S0        -0.0271
     13 C13       -31.8500   -9.1620    2.0370 C.ar      1 6S0         0.0577
     14 C14       -32.6580   -8.3670    1.2420 C.ar      1 6S0         0.0361
     15 C15       -33.7970   -7.7050    1.9960 C.2       1 6S0        -0.0472
     16 C16       -33.7340   -8.0880    3.3730 C.2       1 6S0         0.0014
     17 S17       -32.4390   -9.0990    3.5920 S.3       1 6S0        -0.0297
     18 N18       -32.4170   -8.2160   -0.1020 N.ar      1 6S0        -0.3147
     19 C19       -31.3930   -8.8350   -0.6800 C.ar      1 6S0         0.0030
     20 H1        -30.6749  -11.6060   -1.8050 H         1 6S0         0.0274
     21 H2        -30.0798  -12.3436   -0.2791 H         1 6S0         0.0274
     22 H3        -28.9844  -12.2033   -1.6958 H         1 6S0         0.0274
     23 H4        -29.0600   -9.7399   -1.5233 H         1 6S0         0.0714
     24 H5        -28.0589  -11.4047    0.6695 H         1 6S0         0.1787
     25 H6        -24.3243  -11.0394    1.3151 H         1 6S0         0.0394
     26 H7        -25.4829  -11.6254    0.0738 H         1 6S0         0.0394
     27 H8        -25.9695  -11.5713    1.8021 H         1 6S0         0.0394
     28 H9        -24.7021   -6.5864    1.0720 H         1 6S0         0.0682
     29 H10       -27.0163   -5.9843    0.4162 H         1 6S0         0.0615
     30 H11       -28.7145   -7.8471   -0.0153 H         1 6S0         0.0607
     31 H12       -30.0599  -10.4891    2.0250 H         1 6S0         0.0629
     32 H13       -34.5434   -7.0437    1.5584 H         1 6S0         0.0436
     33 H14       -34.4250   -7.7672    4.1512 H         1 6S0         0.0827
     34 H15       -31.2312   -8.6942   -1.7426 H         1 6S0         0.0726
@<TRIPOS>BOND
     1    1    2 1  
     2    2    3 1  
     3    2   11 1  
     4    3    4 1  
     5    4    5 ar 
     6    4   10 ar 
     7    5    6 1  
     8    5    7 ar 
     9    7    8 ar 
    10    8    9 ar 
    11    9   10 ar 
    12   11   12 ar 
    13   11   19 ar 
    14   12   13 ar 
    15   13   14 ar 
    16   13   17 1  
    17   14   15 1  
    18   14   18 ar 
    19   15   16 2  
    20   16   17 1  
    21   18   19 ar 
    22    1   20 1  
    23    1   21 1  
    24    1   22 1  
    25    2   23 1  
    26    3   24 1  
    27    6   25 1  
    28    6   26 1  
    29    6   27 1  
    30    8   28 1  
    31    9   29 1  
    32   10   30 1  
    33   12   31 1  
    34   15   32 1  
    35   16   33 1  
    36   19   34 1  
@<TRIPOS>SUBSTRUCTURE
     1 6S0         1

