### 
### Created by X-TOOL on Mon Sep 10 21:13:27 2018
### 

@<TRIPOS>MOLECULE
5l9g_ligand
   43    42     1     0     0
SMALL
GAST_HUCK


@<TRIPOS>ATOM
      1 OAB        83.6450   27.8430    5.5100 O.3       1 MO0        -0.3924
      2 CAF        82.4970   28.0970    4.7470 C.3       1 MO0         0.0727
      3 CAG        82.5500   27.4800    3.3610 C.3       1 MO0         0.1065
      4 OAC        83.1510   28.3590    2.4750 O.3       1 MO0        -0.3869
      5 CAH        83.1190   26.0830    3.3180 C.3       1 MO0         0.1116
      6 OAM        82.4520   25.2340    4.1770 O.3       1 MO0        -0.3865
      7 CAI        83.2350   25.4640    1.9250 C.3       1 MO0         0.1143
      8 OAD        81.9800   25.3290    1.3300 O.3       1 MO0        -0.3864
      9 CAJ        84.0190   24.1830    1.9330 C.3       1 MO0         0.1230
     10 OAE        85.3020   24.4300    2.4330 O.3       1 MO0        -0.3838
     11 CAK        84.0720   23.4560    0.5810 C.3       1 MO0        -0.0029
     12 N          83.6890   22.0520    0.7790 N.4       1 MO0         0.2429
     13 CA         83.9350   21.2150   -0.4210 C.3       1 MO0         0.0323
     14 C          82.6360   20.9510   -1.1440 C.2       1 MO0         0.0846
     15 O          81.5980   21.5410   -0.7760 O.co2     1 MO0        -0.5643
     16 CB         84.6540   19.9240   -0.1090 C.3       1 MO0         0.0193
     17 CG         83.7490   18.8820    0.5130 C.3       1 MO0         0.0437
     18 CD         84.4870   17.8350    1.2710 C.2       1 MO0         0.1738
     19 OE1        84.7020   16.6020    0.6410 O.2       1 MO0        -0.3973
     20 NE2        84.9080   17.9900    2.4290 N.am      1 MO0        -0.3009
     21 OXT        82.5880   20.1920   -2.1630 O.co2     1 MO0        -0.5643
     22 H1         84.4047   28.2004    5.0655 H         1 MO0         0.2095
     23 H2         82.3821   29.1858    4.6405 H         1 MO0         0.0584
     24 H3         81.6260   27.6866    5.2790 H         1 MO0         0.0584
     25 H4         81.5052   27.3786    3.0321 H         1 MO0         0.0643
     26 H5         84.0347   28.5476    2.7682 H         1 MO0         0.2100
     27 H6         84.1484   26.1687    3.6962 H         1 MO0         0.0647
     28 H7         81.5355   25.1920    3.9306 H         1 MO0         0.2100
     29 H8         83.8038   26.1742    1.3069 H         1 MO0         0.0648
     30 H9         81.5748   26.1846    1.2504 H         1 MO0         0.2100
     31 H10        83.5143   23.5024    2.6345 H         1 MO0         0.0674
     32 H11        85.7996   23.6207    2.4389 H         1 MO0         0.2101
     33 H12        85.0930   23.5062    0.1748 H         1 MO0         0.0840
     34 H13        83.3737   23.9333   -0.1223 H         1 MO0         0.0840
     35 H14        82.7067   22.0144    1.0022 H         1 MO0         0.2031
     36 H15        84.2228   21.6777    1.5478 H         1 MO0         0.2031
     37 H16        84.5836   21.7925   -1.0961 H         1 MO0         0.1026
     38 H17        85.4745   20.1394    0.5912 H         1 MO0         0.0363
     39 H18        85.0670   19.5173   -1.0439 H         1 MO0         0.0363
     40 H19        83.1767   18.3934   -0.2894 H         1 MO0         0.0505
     41 H20        83.0564   19.3880    1.2016 H         1 MO0         0.0505
     42 H21        85.3978   17.2478    2.8865 H         1 MO0         0.1814
     43 H22        84.7572   18.8570    2.9040 H         1 MO0         0.1814
@<TRIPOS>BOND
     1    1    2 1  
     2    2    3 1  
     3    3    4 1  
     4    3    5 1  
     5    5    6 1  
     6    5    7 1  
     7    7    8 1  
     8    7    9 1  
     9    9   10 1  
    10    9   11 1  
    11   11   12 1  
    12   12   13 1  
    13   13   14 1  
    14   13   16 1  
    15   14   15 ar 
    16   14   21 ar 
    17   16   17 1  
    18   17   18 1  
    19   18   19 2  
    20   18   20 am 
    21    1   22 1  
    22    2   23 1  
    23    2   24 1  
    24    3   25 1  
    25    4   26 1  
    26    5   27 1  
    27    6   28 1  
    28    7   29 1  
    29    8   30 1  
    30    9   31 1  
    31   10   32 1  
    32   11   33 1  
    33   11   34 1  
    34   12   35 1  
    35   12   36 1  
    36   13   37 1  
    37   16   38 1  
    38   16   39 1  
    39   17   40 1  
    40   17   41 1  
    41   20   42 1  
    42   20   43 1  
@<TRIPOS>SUBSTRUCTURE
     1 MO0         1

