### 
### Created by X-TOOL on Wed Jan  1 15:39:36 2020
### 

@<TRIPOS>MOLECULE
5l9h_ligand
   68    71     1     0     0
SMALL
GAST_HUCK


@<TRIPOS>ATOM
      1 C1        142.0100   12.0360    1.1580 C.3       1 CVL         0.0574
      2 O1        141.1190   12.6460    0.2240 O.3       1 CVL        -0.3238
      3 C2        140.5800   11.8810   -0.7720 C.ar      1 CVL         0.1209
      4 C3        140.3630   10.5150   -0.7120 C.ar      1 CVL        -0.0397
      5 C4        139.7860    9.8480   -1.7820 C.ar      1 CVL        -0.0736
      6 C5        139.4200   10.5400   -2.9360 C.ar      1 CVL        -0.0341
      7 C6        138.7870    9.8540   -4.0660 C.2       1 CVL         0.0488
      8 N1        137.9250   10.4760   -4.7980 N.2       1 CVL        -0.0850
      9 N2        137.7630    9.7380   -5.9400 N.am      1 CVL        -0.0921
     10 C7        137.0040   10.3690   -7.0640 C.3       1 CVL         0.1081
     11 C8        136.8350    9.4310   -8.2490 C.3       1 CVL        -0.0270
     12 C9        135.6750   10.8710   -6.5270 C.3       1 CVL        -0.0270
     13 C10       138.3220    8.4960   -5.8530 C.2       1 CVL         0.2513
     14 O2        138.3030    7.5860   -6.6500 O.2       1 CVL        -0.2921
     15 C11       138.9950    8.4190   -4.4960 C.3       1 CVL         0.0321
     16 C12       138.2510    7.4260   -3.5900 C.3       1 CVL        -0.0999
     17 C13       140.4710    8.0240   -4.6430 C.3       1 CVL        -0.0999
     18 C14       139.6160   11.9210   -2.9930 C.ar      1 CVL        -0.0343
     19 C15       140.2020   12.5910   -1.9290 C.ar      1 CVL         0.1205
     20 O3        140.4310   13.9420   -1.9550 O.3       1 CVL        -0.3216
     21 C16       141.2630   14.4660   -3.0050 C.3       1 CVL         0.0680
     22 C17       140.8240   15.8870   -3.2670 C.3       1 CVL        -0.0230
     23 C18       140.6160   16.2850   -4.7220 C.3       1 CVL        -0.0224
     24 C19       139.2650   16.8880   -5.0070 C.3       1 CVL         0.0720
     25 O4        138.2820   15.8770   -4.7300 O.3       1 CVL        -0.3140
     26 C20       136.9970   16.0380   -5.1850 C.ar      1 CVL         0.0973
     27 C21       136.3230   17.2450   -5.1020 C.ar      1 CVL        -0.0266
     28 C22       135.0230   17.3410   -5.5700 C.ar      1 CVL        -0.0514
     29 C23       134.3810   16.2390   -6.1300 C.ar      1 CVL         0.0300
     30 C24       133.0070   16.3400   -6.6220 C.2       1 CVL         0.1774
     31 N3        132.3530   17.4610   -6.8960 N.pl3     1 CVL        -0.1536
     32 N4        131.1110   17.0890   -7.3050 N.2       1 CVL        -0.0667
     33 N5        131.0010   15.8020   -7.2850 N.2       1 CVL        -0.1422
     34 N6        132.1800   15.3170   -6.8610 N.2       1 CVL        -0.2130
     35 C25       135.0690   15.0360   -6.2080 C.ar      1 CVL        -0.0514
     36 C26       136.3690   14.9360   -5.7450 C.ar      1 CVL        -0.0266
     37 H1        142.3484   12.7876    1.8864 H         1 CVL         0.0574
     38 H2        142.8794   11.6272    0.6222 H         1 CVL         0.0574
     39 H3        141.4887   11.2233    1.6850 H         1 CVL         0.0574
     40 H4        140.6460    9.9633    0.1772 H         1 CVL         0.0516
     41 H5        139.6179    8.7789   -1.7208 H         1 CVL         0.0502
     42 H6        137.5784   11.2385   -7.4161 H         1 CVL         0.0738
     43 H7        136.2725    9.9424   -9.0441 H         1 CVL         0.0265
     44 H8        136.2853    8.5330   -7.9304 H         1 CVL         0.0265
     45 H9        137.8249    9.1392   -8.6298 H         1 CVL         0.0265
     46 H10       135.1033   11.3387   -7.3421 H         1 CVL         0.0265
     47 H11       135.8561   11.6117   -5.7342 H         1 CVL         0.0265
     48 H12       135.1030   10.0262   -6.1158 H         1 CVL         0.0265
     49 H13       138.7488    7.3798   -2.6102 H         1 CVL         0.0048
     50 H14       138.2606    6.4285   -4.0536 H         1 CVL         0.0048
     51 H15       137.2110    7.7588   -3.4575 H         1 CVL         0.0048
     52 H16       140.9813    8.7485   -5.2947 H         1 CVL         0.0048
     53 H17       140.5394    7.0199   -5.0869 H         1 CVL         0.0048
     54 H18       140.9501    8.0206   -3.6528 H         1 CVL         0.0048
     55 H19       139.3085   12.4730   -3.8738 H         1 CVL         0.0504
     56 H20       141.1425   13.8619   -3.9163 H         1 CVL         0.0609
     57 H21       142.3173   14.4506   -2.6916 H         1 CVL         0.0609
     58 H22       141.5899   16.5548   -2.8458 H         1 CVL         0.0292
     59 H23       139.8712   16.0433   -2.7400 H         1 CVL         0.0292
     60 H24       140.7320   15.3866   -5.3460 H         1 CVL         0.0292
     61 H25       141.3871   17.0214   -4.9925 H         1 CVL         0.0292
     62 H26       139.2038   17.1943   -6.0617 H         1 CVL         0.0617
     63 H27       139.0986   17.7626   -4.3609 H         1 CVL         0.0617
     64 H28       136.8114   18.1120   -4.6721 H         1 CVL         0.0559
     65 H29       134.4979   18.2867   -5.4995 H         1 CVL         0.0639
     66 H30       132.7143   18.4222   -6.8150 H         1 CVL         0.2695
     67 H31       134.5831   14.1665   -6.6358 H         1 CVL         0.0639
     68 H32       136.8983   13.9930   -5.8203 H         1 CVL         0.0559
@<TRIPOS>BOND
     1    1    2 1  
     2    2    3 1  
     3    3    4 ar 
     4    3   19 ar 
     5    4    5 ar 
     6    5    6 ar 
     7    6    7 1  
     8    6   18 ar 
     9    7    8 2  
    10    7   15 1  
    11    8    9 1  
    12    9   10 1  
    13    9   13 am 
    14   10   11 1  
    15   10   12 1  
    16   13   14 2  
    17   13   15 1  
    18   15   16 1  
    19   15   17 1  
    20   18   19 ar 
    21   19   20 1  
    22   20   21 1  
    23   21   22 1  
    24   22   23 1  
    25   23   24 1  
    26   24   25 1  
    27   25   26 1  
    28   26   27 ar 
    29   26   36 ar 
    30   27   28 ar 
    31   28   29 ar 
    32   29   30 1  
    33   29   35 ar 
    34   30   31 1  
    35   30   34 2  
    36   31   32 1  
    37   32   33 2  
    38   33   34 1  
    39   35   36 ar 
    40    1   37 1  
    41    1   38 1  
    42    1   39 1  
    43    4   40 1  
    44    5   41 1  
    45   10   42 1  
    46   11   43 1  
    47   11   44 1  
    48   11   45 1  
    49   12   46 1  
    50   12   47 1  
    51   12   48 1  
    52   16   49 1  
    53   16   50 1  
    54   16   51 1  
    55   17   52 1  
    56   17   53 1  
    57   17   54 1  
    58   18   55 1  
    59   21   56 1  
    60   21   57 1  
    61   22   58 1  
    62   22   59 1  
    63   23   60 1  
    64   23   61 1  
    65   24   62 1  
    66   24   63 1  
    67   27   64 1  
    68   28   65 1  
    69   31   66 1  
    70   35   67 1  
    71   36   68 1  
@<TRIPOS>SUBSTRUCTURE
     1 CVL         1

