### 
### Created by X-TOOL on Mon Sep 10 21:13:27 2018
### 

@<TRIPOS>MOLECULE
5l9i_ligand
   41    41     1     0     0
SMALL
GAST_HUCK


@<TRIPOS>ATOM
      1 OAB        10.0890   47.8890   -1.8740 O.3       1 SNW        -0.3836
      2 CAF        10.8970   46.7360   -1.6690 C.3       1 SNW         0.1422
      3 CAG        10.5220   45.6070   -2.4950 C.3       1 SNW         0.1142
      4 OAC         9.2140   45.0220   -2.1740 O.3       1 SNW        -0.3864
      5 CAH        11.4580   44.5540   -2.6160 C.3       1 SNW         0.1070
      6 OAI        11.4510   43.8020   -1.4120 O.3       1 SNW        -0.3869
      7 CAO        12.8950   44.9940   -2.7360 C.3       1 SNW         0.0796
      8 OAN        13.1960   46.0140   -1.8150 O.3       1 SNW        -0.3399
      9 CAM        12.3640   47.1220   -1.8080 C.3       1 SNW         0.2378
     10 OAQ        12.4610   47.7200   -2.9850 O.3       1 SNW        -0.3587
     11 CAL        12.8460   48.0690   -0.6970 C.3       1 SNW         0.0259
     12 N          12.4110   49.4620   -0.7290 N.4       1 SNW         0.2449
     13 CA         12.6310   50.2240    0.4840 C.3       1 SNW         0.0324
     14 C          11.3320   50.4550    1.2220 C.2       1 SNW         0.0846
     15 O          10.3000   49.9270    0.7870 O.co2     1 SNW        -0.5643
     16 CB         13.3690   51.5240    0.2550 C.3       1 SNW         0.0193
     17 CG         12.5890   52.7020   -0.2190 C.3       1 SNW         0.0437
     18 CD         13.3200   53.7690   -0.9140 C.2       1 SNW         0.1738
     19 OE1        13.6330   54.7380   -0.3580 O.2       1 SNW        -0.3973
     20 NE2        13.6390   53.6080   -2.2460 N.am      1 SNW        -0.3009
     21 OXT        11.3110   51.1410    2.2590 O.co2     1 SNW        -0.5643
     22 H1          9.1842   47.6799   -1.6738 H         1 SNW         0.2101
     23 H2         10.7442   46.4178   -0.6272 H         1 SNW         0.0676
     24 H3         10.4250   46.0310   -3.5053 H         1 SNW         0.0648
     25 H4          8.5382   45.6807   -2.2838 H         1 SNW         0.2100
     26 H5         11.1830   43.9294   -3.4787 H         1 SNW         0.0643
     27 H6         10.5816   43.4478   -1.2663 H         1 SNW         0.2100
     28 H7         13.0712   45.3682   -3.7553 H         1 SNW         0.0587
     29 H8         13.5509   44.1323   -2.5432 H         1 SNW         0.0587
     30 H9         13.3609   47.9879   -3.1296 H         1 SNW         0.2130
     31 H10        13.9456   48.0719   -0.7278 H         1 SNW         0.0868
     32 H11        12.5070   47.6454    0.2599 H         1 SNW         0.0868
     33 H12        11.4222   49.4720   -0.9244 H         1 SNW         0.2032
     34 H13        12.9059   49.9226   -1.4766 H         1 SNW         0.2032
     35 H14        13.2697   49.6080    1.1341 H         1 SNW         0.1026
     36 H15        14.1508   51.3279   -0.4935 H         1 SNW         0.0363
     37 H16        13.8376   51.8057    1.2095 H         1 SNW         0.0363
     38 H17        12.1074   53.1530    0.6611 H         1 SNW         0.0505
     39 H18        11.8173   52.3293   -0.9086 H         1 SNW         0.0505
     40 H19        14.1366   54.3269   -2.7314 H         1 SNW         0.1814
     41 H20        13.3727   52.7724   -2.7265 H         1 SNW         0.1814
@<TRIPOS>BOND
     1    1    2 1  
     2    2    3 1  
     3    2    9 1  
     4    3    4 1  
     5    3    5 1  
     6    5    6 1  
     7    5    7 1  
     8    7    8 1  
     9    8    9 1  
    10    9   10 1  
    11    9   11 1  
    12   11   12 1  
    13   12   13 1  
    14   13   14 1  
    15   13   16 1  
    16   14   15 ar 
    17   14   21 ar 
    18   16   17 1  
    19   17   18 1  
    20   18   19 2  
    21   18   20 am 
    22    1   22 1  
    23    2   23 1  
    24    3   24 1  
    25    4   25 1  
    26    5   26 1  
    27    6   27 1  
    28    7   28 1  
    29    7   29 1  
    30   10   30 1  
    31   11   31 1  
    32   11   32 1  
    33   12   33 1  
    34   12   34 1  
    35   13   35 1  
    36   16   36 1  
    37   16   37 1  
    38   17   38 1  
    39   17   39 1  
    40   20   40 1  
    41   20   41 1  
@<TRIPOS>SUBSTRUCTURE
     1 SNW         1

