### 
### Created by X-TOOL on Mon Sep 10 21:13:29 2018
### 

@<TRIPOS>MOLECULE
5l9l_ligand
   43    42     1     0     0
SMALL
GAST_HUCK


@<TRIPOS>ATOM
      1 OAN        77.1940   28.6990   -4.9970 O.3       1 GOP        -0.3924
      2 CAM        78.0280   29.3410   -4.1460 C.3       1 GOP         0.0727
      3 CAL        79.1670   28.3750   -3.9400 C.3       1 GOP         0.1065
      4 OAT        80.2790   28.8220   -4.5800 O.3       1 GOP        -0.3869
      5 CAK        79.2770   28.1350   -2.4460 C.3       1 GOP         0.1116
      6 OAS        78.1510   27.6270   -1.8890 O.3       1 GOP        -0.3865
      7 CAJ        80.5130   27.5250   -1.8730 C.3       1 GOP         0.1143
      8 OAR        81.5550   28.1490   -2.3990 O.3       1 GOP        -0.3864
      9 CAI        80.5590   26.0350   -2.0520 C.3       1 GOP         0.1230
     10 OAQ        80.6580   25.6860   -3.3200 O.3       1 GOP        -0.3838
     11 CAH        81.5500   25.2270   -1.1990 C.3       1 GOP        -0.0029
     12 N          82.9430   25.6210   -1.2760 N.4       1 GOP         0.2429
     13 CA         83.6880   25.3280   -0.0640 C.3       1 GOP         0.0323
     14 C          84.0230   26.5460    0.7320 C.2       1 GOP         0.0846
     15 O          83.7130   27.6320    0.2840 O.co2     1 GOP        -0.5643
     16 CB         84.9900   24.5950   -0.3880 C.3       1 GOP         0.0193
     17 CG         86.0770   25.4010   -0.9990 C.3       1 GOP         0.0437
     18 CD         87.0460   24.4490   -1.6090 C.2       1 GOP         0.1738
     19 OE1        88.0190   24.1170   -1.0600 O.2       1 GOP        -0.3973
     20 NE2        86.7370   23.9280   -2.9050 N.am      1 GOP        -0.3009
     21 OXT        84.6080   26.4620    1.8070 O.co2     1 GOP        -0.5643
     22 H1         76.9038   27.8857   -4.6010 H         1 GOP         0.2095
     23 H2         77.5224   29.5559   -3.1930 H         1 GOP         0.0584
     24 H3         78.3895   30.2805   -4.5894 H         1 GOP         0.0584
     25 H4         78.9016   27.4141   -4.4051 H         1 GOP         0.0643
     26 H5         80.0986   28.8989   -5.5096 H         1 GOP         0.2100
     27 H6         79.3185   29.1613   -2.0524 H         1 GOP         0.0647
     28 H7         78.2885   27.5020   -0.9573 H         1 GOP         0.2100
     29 H8         80.5162   27.7174   -0.7900 H         1 GOP         0.0648
     30 H9         81.5424   28.0435   -3.3430 H         1 GOP         0.2100
     31 H10        79.5667   25.6926   -1.7234 H         1 GOP         0.0674
     32 H11        80.6838   24.7386   -3.3854 H         1 GOP         0.2101
     33 H12        81.4825   24.1755   -1.5149 H         1 GOP         0.0840
     34 H13        81.2357   25.3152   -0.1486 H         1 GOP         0.0840
     35 H14        82.9863   26.6135   -1.4467 H         1 GOP         0.2031
     36 H15        83.3732   25.1290   -2.0434 H         1 GOP         0.2031
     37 H16        83.0628   24.6728    0.5604 H         1 GOP         0.1026
     38 H17        84.7482   23.7793   -1.0853 H         1 GOP         0.0363
     39 H18        85.3766   24.1722    0.5510 H         1 GOP         0.0363
     40 H19        86.5774   26.0043   -0.2273 H         1 GOP         0.0505
     41 H20        85.6639   26.0648   -1.7728 H         1 GOP         0.0505
     42 H21        87.3628   23.2860   -3.3480 H         1 GOP         0.1814
     43 H22        85.8952   24.2058   -3.3679 H         1 GOP         0.1814
@<TRIPOS>BOND
     1    1    2 1  
     2    2    3 1  
     3    3    4 1  
     4    3    5 1  
     5    5    6 1  
     6    5    7 1  
     7    7    8 1  
     8    7    9 1  
     9    9   10 1  
    10    9   11 1  
    11   11   12 1  
    12   12   13 1  
    13   13   14 1  
    14   13   16 1  
    15   14   15 ar 
    16   14   21 ar 
    17   16   17 1  
    18   17   18 1  
    19   18   19 2  
    20   18   20 am 
    21    1   22 1  
    22    2   23 1  
    23    2   24 1  
    24    3   25 1  
    25    4   26 1  
    26    5   27 1  
    27    6   28 1  
    28    7   29 1  
    29    8   30 1  
    30    9   31 1  
    31   10   32 1  
    32   11   33 1  
    33   11   34 1  
    34   12   35 1  
    35   12   36 1  
    36   13   37 1  
    37   16   38 1  
    38   16   39 1  
    39   17   40 1  
    40   17   41 1  
    41   20   42 1  
    42   20   43 1  
@<TRIPOS>SUBSTRUCTURE
     1 GOP         1

