### 
### Created by X-TOOL on Wed Jan  1 15:39:35 2020
### 

@<TRIPOS>MOLECULE
5laq_ligand
   83    88     1     0     0
SMALL
GAST_HUCK


@<TRIPOS>ATOM
      1 C1          4.8520  -41.8290    3.7060 C.ar      1 6M5         0.1201
      2 C2          4.1260  -41.8580    4.9080 C.ar      1 6M5         0.1196
      3 C3          4.5150  -42.1820    7.2770 C.3       1 6M5         0.0680
      4 C4          3.9450  -43.3310    8.0740 C.3       1 6M5        -0.0230
      5 C5          2.4900  -43.6410    7.8000 C.3       1 6M5        -0.0224
      6 C6          1.8520  -44.5410    8.8280 C.3       1 6M5         0.0720
      7 C7         -0.1500  -45.9070    8.9960 C.ar      1 6M5         0.0973
      8 N1         -4.6260  -49.5860   11.5620 N.2       1 6M5        -0.1422
      9 N2         -3.6460  -50.0180   12.2860 N.2       1 6M5        -0.0667
     10 N3         -2.4830  -49.4200   11.9190 N.pl3     1 6M5        -0.1536
     11 N4          0.3960  -39.9990    5.1220 N.2       1 6M5        -0.2035
     12 C8          0.2700  -46.6110   10.1160 C.ar      1 6M5        -0.0266
     13 C10        -1.8810  -47.6850   10.2500 C.ar      1 6M5         0.0300
     14 C20        -1.8700  -41.4350    6.1520 C.3       1 6M5        -0.0230
     15 C30        -1.1740  -38.7420    1.2280 C.2       1 6M5        -0.0963
     16 O3         -2.3790  -37.8070    4.7310 O.2       1 6M5        -0.3833
     17 C26        -1.2350  -38.2520    4.6020 C.2       1 6M5         0.2244
     18 N5         -0.8170  -39.3720    5.2860 N.am      1 6M5        -0.1658
     19 C19        -1.6690  -39.9370    6.3490 C.3       1 6M5         0.0795
     20 C25        -1.1060  -39.5030    7.6960 C.3       1 6M5        -0.0230
     21 C24        -1.9980  -39.7960    8.9000 C.3       1 6M5        -0.0504
     22 C23        -1.7950  -41.1700    9.5220 C.3       1 6M5        -0.0530
     23 C22        -1.6740  -42.3040    8.5400 C.3       1 6M5        -0.0530
     24 C21        -2.5580  -42.1600    7.3090 C.3       1 6M5        -0.0504
     25 C27        -0.2120  -37.6600    3.6770 C.3       1 6M5         0.0759
     26 C32         0.6150  -38.8020    3.0210 C.3       1 6M5         0.0294
     27 C31        -0.2780  -39.6010    2.0420 C.3       1 6M5        -0.0215
     28 C29        -1.3110  -37.4450    1.4250 C.2       1 6M5        -0.0958
     29 C28        -0.7840  -36.7130    2.6160 C.3       1 6M5        -0.0140
     30 C18         1.1250  -39.7330    4.0980 C.2       1 6M5         0.0422
     31 C15         2.4320  -40.4260    3.9490 C.ar      1 6M5        -0.0282
     32 C16         3.1580  -40.4080    2.7670 C.ar      1 6M5        -0.0736
     33 C17         4.3490  -41.1100    2.6430 C.ar      1 6M5        -0.0405
     34 O           6.0170  -42.5500    3.7140 O.3       1 6M5        -0.3243
     35 C           6.9620  -42.3600    2.6650 C.3       1 6M5         0.0572
     36 C14         2.9130  -41.1970    5.0060 C.ar      1 6M5        -0.0344
     37 O1          4.6590  -42.6180    5.9130 O.3       1 6M5        -0.3219
     38 O2          0.5970  -44.9930    8.2990 O.3       1 6M5        -0.3140
     39 C12        -1.4220  -46.1130    8.4980 C.ar      1 6M5        -0.0266
     40 C11        -2.2910  -46.9740    9.1310 C.ar      1 6M5        -0.0514
     41 C9         -0.5960  -47.4900   10.7380 C.ar      1 6M5        -0.0514
     42 C13        -2.7980  -48.5930   10.9300 C.2       1 6M5         0.1774
     43 N          -4.1130  -48.6820   10.7140 N.2       1 6M5        -0.2130
     44 H1          5.4963  -41.8957    7.6834 H         1 6M5         0.0609
     45 H2          3.8331  -41.3201    7.3238 H         1 6M5         0.0609
     46 H3          4.0467  -43.0887    9.1421 H         1 6M5         0.0292
     47 H4          4.5344  -44.2309    7.8444 H         1 6M5         0.0292
     48 H5          2.4196  -44.1324    6.8184 H         1 6M5         0.0292
     49 H6          1.9326  -42.6930    7.7763 H         1 6M5         0.0292
     50 H7          1.6852  -43.9832    9.7613 H         1 6M5         0.0617
     51 H8          2.5057  -45.4028    9.0277 H         1 6M5         0.0617
     52 H9         -1.5492  -49.5762   12.3246 H         1 6M5         0.2695
     53 H10         1.2736  -46.4718   10.5013 H         1 6M5         0.0559
     54 H11        -0.8814  -41.8938    6.0034 H         1 6M5         0.0293
     55 H12        -2.4810  -41.5800    5.2489 H         1 6M5         0.0293
     56 H13        -1.7476  -39.2064    0.4272 H         1 6M5         0.0452
     57 H14        -2.6652  -39.4792    6.2599 H         1 6M5         0.0640
     58 H15        -0.9320  -38.4175    7.6580 H         1 6M5         0.0293
     59 H16        -0.1485  -40.0228    7.8478 H         1 6M5         0.0293
     60 H17        -3.0465  -39.7177    8.5769 H         1 6M5         0.0266
     61 H18        -1.7940  -39.0377    9.6703 H         1 6M5         0.0266
     62 H19        -2.6534  -41.3774   10.1778 H         1 6M5         0.0265
     63 H20        -0.8738  -41.1395   10.1224 H         1 6M5         0.0265
     64 H21        -1.9483  -43.2367    9.0545 H         1 6M5         0.0265
     65 H22        -0.6270  -42.3626    8.2079 H         1 6M5         0.0265
     66 H23        -2.8483  -43.1648    6.9682 H         1 6M5         0.0266
     67 H24        -3.4582  -41.5937    7.5900 H         1 6M5         0.0266
     68 H25         0.4742  -37.0632    4.2958 H         1 6M5         0.0588
     69 H26         1.4657  -38.3704    2.4732 H         1 6M5         0.0504
     70 H27         0.3726  -40.1700    1.3616 H         1 6M5         0.0413
     71 H28        -0.8979  -40.2980    2.6250 H         1 6M5         0.0413
     72 H29        -1.8436  -36.8695    0.6693 H         1 6M5         0.0452
     73 H30         0.0121  -36.0291    2.2866 H         1 6M5         0.0417
     74 H31        -1.6034  -36.1327    3.0651 H         1 6M5         0.0417
     75 H32         2.7882  -39.8349    1.9244 H         1 6M5         0.0497
     76 H33         4.8879  -41.0926    1.7026 H         1 6M5         0.0514
     77 H34         7.8303  -43.0147    2.8307 H         1 6M5         0.0574
     78 H35         7.2911  -41.3104    2.6535 H         1 6M5         0.0574
     79 H36         6.4944  -42.6083    1.7008 H         1 6M5         0.0574
     80 H37         2.3302  -41.2802    5.9162 H         1 6M5         0.0497
     81 H38        -1.7389  -45.5926    7.6014 H         1 6M5         0.0559
     82 H39        -3.2997  -47.0968    8.7534 H         1 6M5         0.0639
     83 H40        -0.2683  -48.0334   11.6169 H         1 6M5         0.0639
@<TRIPOS>BOND
     1    2    1 ar 
     2    1   33 ar 
     3    1   34 1  
     4   36    2 ar 
     5    2   37 1  
     6    3    4 1  
     7   37    3 1  
     8    4    5 1  
     9    5    6 1  
    10    6   38 1  
    11    7   12 ar 
    12   38    7 1  
    13    7   39 ar 
    14    9    8 2  
    15    8   43 1  
    16   10    9 1  
    17   42   10 1  
    18   11   18 1  
    19   30   11 2  
    20   12   41 ar 
    21   13   40 ar 
    22   41   13 ar 
    23   13   42 1  
    24   19   14 1  
    25   14   24 1  
    26   27   15 1  
    27   15   28 2  
    28   17   16 2  
    29   18   17 am 
    30   25   17 1  
    31   18   19 1  
    32   19   20 1  
    33   20   21 1  
    34   21   22 1  
    35   22   23 1  
    36   24   23 1  
    37   26   25 1  
    38   25   29 1  
    39   26   27 1  
    40   30   26 1  
    41   29   28 1  
    42   31   30 1  
    43   31   32 ar 
    44   31   36 ar 
    45   32   33 ar 
    46   34   35 1  
    47   39   40 ar 
    48   42   43 2  
    49    3   44 1  
    50    3   45 1  
    51    4   46 1  
    52    4   47 1  
    53    5   48 1  
    54    5   49 1  
    55    6   50 1  
    56    6   51 1  
    57   10   52 1  
    58   12   53 1  
    59   14   54 1  
    60   14   55 1  
    61   15   56 1  
    62   19   57 1  
    63   20   58 1  
    64   20   59 1  
    65   21   60 1  
    66   21   61 1  
    67   22   62 1  
    68   22   63 1  
    69   23   64 1  
    70   23   65 1  
    71   24   66 1  
    72   24   67 1  
    73   25   68 1  
    74   26   69 1  
    75   27   70 1  
    76   27   71 1  
    77   28   72 1  
    78   29   73 1  
    79   29   74 1  
    80   32   75 1  
    81   33   76 1  
    82   35   77 1  
    83   35   78 1  
    84   35   79 1  
    85   36   80 1  
    86   39   81 1  
    87   40   82 1  
    88   41   83 1  
@<TRIPOS>SUBSTRUCTURE
     1 6M5         1

