### 
### Created by X-TOOL on Mon Sep 10 21:13:30 2018
### 

@<TRIPOS>MOLECULE
5lav_ligand
   55    58     1     0     0
SMALL
GAST_HUCK


@<TRIPOS>ATOM
      1 C2         -2.0640   11.3040   -2.9280 C.ar      1 6SK         0.0337
      2 C3         -1.4570   10.2190   -2.3190 C.ar      1 6SK        -0.0548
      3 C4         -2.1610    9.4780   -1.3790 C.ar      1 6SK        -0.0681
      4 C5         -3.4730    9.8110   -1.0570 C.ar      1 6SK        -0.0607
      5 C6         -4.0910   10.9050   -1.6750 C.ar      1 6SK        -0.0403
      6 C7         -3.3720   11.6320   -2.6140 C.ar      1 6SK        -0.0470
      7 C8         -5.5200   11.3550   -1.4060 C.3       1 6SK         0.0608
      8 C15        -7.8160   12.9030    1.0860 C.3       1 6SK        -0.0324
      9 C16        -9.0670   13.7060    0.7010 C.3       1 6SK         0.0025
     10 C17       -10.1870   12.7980    0.1810 C.3       1 6SK        -0.0552
     11 C18        -9.5800   14.4110    1.9490 C.3       1 6SK        -0.0552
     12 C19        -8.7180   14.7830   -0.3300 C.3       1 6SK        -0.0552
     13 C21        -5.0740   13.6120   -0.3600 C.ar      1 6SK         0.0204
     14 C23        -4.4620   15.7930   -1.1850 C.ar      1 6SK        -0.0341
     15 C24        -3.5710   15.9750   -0.1330 C.ar      1 6SK         0.0579
     16 C27        -4.1800   13.7870    0.6920 C.ar      1 6SK         0.0991
     17 CL1        -1.2300   12.2420   -4.1070 Cl        1 6SK        -0.0725
     18 C10        -6.5190   10.1950   -1.1440 C.3       1 6SK         0.0235
     19 N12        -6.9820    9.5930   -2.3990 N.4       1 6SK         0.2255
     20 C13        -7.6820   10.9050   -0.4280 C.3       1 6SK         0.0075
     21 N14        -7.1920   12.2860   -0.1080 N.4       1 6SK         0.1837
     22 C20        -5.7000   12.2480   -0.1650 C.3       1 6SK         0.0770
     23 C22        -5.2160   14.6240   -1.2940 C.ar      1 6SK        -0.0498
     24 CL2        -2.6160   17.4220    0.0370 Cl        1 6SK        -0.0481
     25 C26        -3.4340   14.9680    0.8060 C.ar      1 6SK         0.0044
     26 N28        -4.1900   12.6710    1.5130 N.am      1 6SK        -0.2158
     27 C29        -5.0440   11.7230    1.0940 C.2       1 6SK         0.2572
     28 O30        -5.2210   10.6610    1.6490 O.2       1 6SK        -0.3145
     29 H1         -0.4385    9.9496   -2.5743 H         1 6SK         0.0565
     30 H2         -1.6851    8.6342   -0.8927 H         1 6SK         0.0599
     31 H3         -4.0173    9.2229   -0.3270 H         1 6SK         0.0558
     32 H4         -3.8435   12.4723   -3.1107 H         1 6SK         0.0561
     33 H5         -5.8463   11.9137   -2.2956 H         1 6SK         0.0435
     34 H6         -8.1012   12.1100    1.7930 H         1 6SK         0.0821
     35 H7         -7.0894   13.5765    1.5639 H         1 6SK         0.0821
     36 H8        -11.0622   13.4098   -0.0830 H         1 6SK         0.0237
     37 H9        -10.4665   12.0762    0.9626 H         1 6SK         0.0237
     38 H10        -9.8362   12.2564   -0.7098 H         1 6SK         0.0237
     39 H11        -8.7951   15.0717    2.3457 H         1 6SK         0.0237
     40 H12        -9.8478   13.6624    2.7091 H         1 6SK         0.0237
     41 H13       -10.4677   15.0084    1.6939 H         1 6SK         0.0237
     42 H14        -8.3429   14.3049   -1.2469 H         1 6SK         0.0237
     43 H15        -7.9429   15.4466    0.0809 H         1 6SK         0.0237
     44 H16        -9.6174   15.3711   -0.5647 H         1 6SK         0.0237
     45 H17        -4.5725   16.5710   -1.9317 H         1 6SK         0.0595
     46 H18        -6.0690    9.4200   -0.5061 H         1 6SK         0.0920
     47 H19        -7.6270    8.8457   -2.1953 H         1 6SK         0.2000
     48 H20        -6.1925    9.2262   -2.9071 H         1 6SK         0.2000
     49 H21        -7.4447   10.2934   -2.9570 H         1 6SK         0.2000
     50 H22        -7.9453   10.3696    0.4962 H         1 6SK         0.0874
     51 H23        -8.5620   10.9551   -1.0861 H         1 6SK         0.0874
     52 H24        -7.4810   12.8745   -0.8736 H         1 6SK         0.1983
     53 H25        -5.9160   14.5077   -2.1135 H         1 6SK         0.0772
     54 H26        -2.7460   15.0932    1.6343 H         1 6SK         0.0594
     55 H27        -3.6216   12.5810    2.3308 H         1 6SK         0.2404
@<TRIPOS>BOND
     1    1    2 ar 
     2    6    1 ar 
     3    1   17 1  
     4    3    2 ar 
     5    4    3 ar 
     6    5    4 ar 
     7    5    6 ar 
     8    7    5 1  
     9   18    7 1  
    10    7   22 1  
    11    8    9 1  
    12   21    8 1  
    13    9   10 1  
    14    9   11 1  
    15    9   12 1  
    16   13   16 ar 
    17   22   13 1  
    18   13   23 ar 
    19   14   15 ar 
    20   23   14 ar 
    21   15   24 1  
    22   25   15 ar 
    23   16   25 ar 
    24   16   26 1  
    25   18   19 1  
    26   20   18 1  
    27   20   21 1  
    28   21   22 1  
    29   22   27 1  
    30   26   27 am 
    31   27   28 2  
    32    2   29 1  
    33    3   30 1  
    34    4   31 1  
    35    6   32 1  
    36    7   33 1  
    37    8   34 1  
    38    8   35 1  
    39   10   36 1  
    40   10   37 1  
    41   10   38 1  
    42   11   39 1  
    43   11   40 1  
    44   11   41 1  
    45   12   42 1  
    46   12   43 1  
    47   12   44 1  
    48   14   45 1  
    49   18   46 1  
    50   19   47 1  
    51   19   48 1  
    52   19   49 1  
    53   20   50 1  
    54   20   51 1  
    55   21   52 1  
    56   23   53 1  
    57   25   54 1  
    58   26   55 1  
@<TRIPOS>SUBSTRUCTURE
     1 6SK         1

