### 
### Created by X-TOOL on Mon Sep 10 21:13:28 2018
### 

@<TRIPOS>MOLECULE
5law_ligand
   59    64     1     0     0
SMALL
GAST_HUCK


@<TRIPOS>ATOM
      1 C4         -4.1340    8.8800   -1.3230 C.ar      1 6SJ        -0.0681
      2 C5         -5.4420    9.2590   -0.9730 C.ar      1 6SJ        -0.0607
      3 C6         -5.9920   10.4640   -1.4460 C.ar      1 6SJ        -0.0403
      4 C7         -5.1840   11.2850   -2.2400 C.ar      1 6SJ        -0.0470
      5 C8         -7.3920   10.9590   -1.1130 C.3       1 6SJ         0.0613
      6 C10        -8.4670    9.8600   -0.9800 C.3       1 6SJ         0.0314
      7 N12        -9.2710    9.6100   -2.2330 N.4       1 6SJ         0.2541
      8 C13       -10.3450   10.6220   -2.2400 C.3       1 6SJ        -0.0245
      9 C15        -9.4840   10.4650    0.0370 C.3       1 6SJ         0.0233
     10 C20       -10.8490   14.3280    2.4790 C.3       1 6SJ        -0.0449
     11 C21       -10.7000   14.3670    0.9510 C.3       1 6SJ        -0.0449
     12 C22        -7.4490   11.6890    0.2540 C.3       1 6SJ         0.0772
     13 C26        -5.8090   13.0360    1.2420 C.ar      1 6SJ         0.0991
     14 C28        -5.1730   15.2960    0.6370 C.ar      1 6SJ         0.0579
     15 CL1        -2.9110   11.9290   -3.5750 Cl        1 6SJ        -0.0725
     16 C2         -3.8860   10.8950   -2.5760 C.ar      1 6SJ         0.0337
     17 C3         -3.3520    9.7060   -2.1090 C.ar      1 6SJ        -0.0548
     18 C14       -10.8000   10.6170   -0.7810 C.3       1 6SJ         0.0360
     19 N17        -8.9190   11.7880    0.4470 N.4       1 6SJ         0.1860
     20 C18        -9.3890   12.2780    1.7740 C.3       1 6SJ        -0.0343
     21 C19       -10.7290   13.0270    1.6720 C.3       1 6SJ        -0.0006
     22 C23        -6.7320   10.9720    1.4080 C.2       1 6SJ         0.2572
     23 O24        -6.9210    9.8280    1.7580 O.2       1 6SJ        -0.3145
     24 N25        -5.8160   11.8020    1.9160 N.am      1 6SJ        -0.2158
     25 C27        -5.0170   14.1730    1.4410 C.ar      1 6SJ         0.0044
     26 CL2        -4.1720   16.7010    0.8450 Cl        1 6SJ        -0.0481
     27 C30        -6.1160   15.2740   -0.3890 C.ar      1 6SJ        -0.0341
     28 C31        -6.9120   14.1570   -0.5990 C.ar      1 6SJ        -0.0498
     29 C32        -6.7700   13.0320    0.2000 C.ar      1 6SJ         0.0204
     30 C33        -8.4600    9.5860   -3.4820 C.3       1 6SJ         0.0218
     31 C34        -9.2460    9.0760   -4.6470 C.2       1 6SJ         0.0813
     32 O35       -10.4850    8.5890   -4.4950 O.co2     1 6SJ        -0.5645
     33 O36        -8.7570    9.0960   -5.7410 O.co2     1 6SJ        -0.5645
     34 H1         -3.7361    7.9339   -0.9743 H         1 6SJ         0.0599
     35 H2         -6.0330    8.6154   -0.3315 H         1 6SJ         0.0558
     36 H3         -5.5693   12.2330   -2.5978 H         1 6SJ         0.0561
     37 H4         -7.6900   11.6532   -1.9126 H         1 6SJ         0.0435
     38 H5         -8.0181    8.9220   -0.6214 H         1 6SJ         0.0925
     39 H6         -9.6989    8.7009   -2.1520 H         1 6SJ         0.2054
     40 H7        -11.1637   10.3306   -2.9144 H         1 6SJ         0.0817
     41 H8         -9.9609   11.6097   -2.5349 H         1 6SJ         0.0817
     42 H9         -9.6352    9.8175    0.9133 H         1 6SJ         0.0912
     43 H10       -11.8064   14.6005    2.9470 H         1 6SJ         0.0270
     44 H11       -10.0196   14.6563    3.1227 H         1 6SJ         0.0270
     45 H12        -9.7640   14.7275    0.4995 H         1 6SJ         0.0270
     46 H13       -11.5508   14.6717    0.3238 H         1 6SJ         0.0270
     47 H14        -2.3343    9.4264   -2.3563 H         1 6SJ         0.0565
     48 H15       -11.4776    9.7723   -0.5879 H         1 6SJ         0.0374
     49 H16       -11.3079   11.5596   -0.5288 H         1 6SJ         0.0374
     50 H17        -9.2517   12.4701   -0.2164 H         1 6SJ         0.1985
     51 H18        -8.6321   12.9599    2.1889 H         1 6SJ         0.0819
     52 H19        -9.5144   11.4165    2.4463 H         1 6SJ         0.0819
     53 H20       -11.5751   12.3319    1.5673 H         1 6SJ         0.0353
     54 H21        -5.2116   11.5741    2.6794 H         1 6SJ         0.2404
     55 H22        -4.2742   14.1777    2.2305 H         1 6SJ         0.0594
     56 H23        -6.2290   16.1402   -1.0309 H         1 6SJ         0.0595
     57 H24        -7.6500   14.1636   -1.3930 H         1 6SJ         0.0772
     58 H25        -7.5885    8.9329   -3.3277 H         1 6SJ         0.0989
     59 H26        -8.1179   10.6077   -3.7037 H         1 6SJ         0.0989
@<TRIPOS>BOND
     1    2    1 ar 
     2    1   17 ar 
     3    3    2 ar 
     4    3    4 ar 
     5    5    3 1  
     6    4   16 ar 
     7    5    6 1  
     8   12    5 1  
     9    6    7 1  
    10    9    6 1  
    11    8    7 1  
    12    7   30 1  
    13   18    8 1  
    14    9   18 1  
    15   19    9 1  
    16   11   10 1  
    17   21   10 1  
    18   21   11 1  
    19   19   12 1  
    20   12   22 1  
    21   12   29 1  
    22   13   24 1  
    23   13   25 ar 
    24   29   13 ar 
    25   25   14 ar 
    26   14   26 1  
    27   14   27 ar 
    28   16   15 1  
    29   16   17 ar 
    30   20   19 1  
    31   20   21 1  
    32   22   23 2  
    33   22   24 am 
    34   27   28 ar 
    35   28   29 ar 
    36   30   31 1  
    37   31   32 ar 
    38   31   33 ar 
    39    1   34 1  
    40    2   35 1  
    41    4   36 1  
    42    5   37 1  
    43    6   38 1  
    44    7   39 1  
    45    8   40 1  
    46    8   41 1  
    47    9   42 1  
    48   10   43 1  
    49   10   44 1  
    50   11   45 1  
    51   11   46 1  
    52   17   47 1  
    53   18   48 1  
    54   18   49 1  
    55   19   50 1  
    56   20   51 1  
    57   20   52 1  
    58   21   53 1  
    59   24   54 1  
    60   25   55 1  
    61   27   56 1  
    62   28   57 1  
    63   30   58 1  
    64   30   59 1  
@<TRIPOS>SUBSTRUCTURE
     1 6SJ         1

