### 
### Created by X-TOOL on Mon Sep 10 21:13:30 2018
### 

@<TRIPOS>MOLECULE
5lay_ligand
   63    67     1     0     0
SMALL
GAST_HUCK


@<TRIPOS>ATOM
      1 C2         -0.2630  -26.5000    8.2940 C.ar      1 6SS         0.0668
      2 C3         -0.7600  -27.7520    8.6140 C.ar      1 6SS        -0.0566
      3 C4         -0.1840  -28.4620    9.6530 C.ar      1 6SS        -0.0721
      4 C5          0.8840  -27.9200   10.3700 C.ar      1 6SS        -0.0623
      5 C6          1.3970  -26.6550   10.0570 C.ar      1 6SS        -0.0064
      6 C7          2.5670  -26.0100   10.8000 C.3       1 6SS         0.0618
      7 C12         4.1800  -25.8650   12.5830 C.3       1 6SS         0.0164
      8 C16         6.2690  -26.3150   11.2320 C.3       1 6SS        -0.0062
      9 C17         7.1580  -25.2550   11.8290 C.ar      1 6SS        -0.0074
     10 C18         7.2540  -24.0260   11.1940 C.ar      1 6SS        -0.0664
     11 C19         8.0630  -23.0340   11.7190 C.ar      1 6SS        -0.0770
     12 C21         8.6950  -24.5040   13.5340 C.ar      1 6SS         0.0846
     13 C23        10.7030  -24.3120   14.9290 C.3       1 6SS         0.0674
     14 C24        11.2250  -24.8350   16.2720 C.3       1 6SS        -0.0372
     15 C27         4.2020  -25.8030    8.8990 C.ar      1 6SS         0.0203
     16 C30         4.7340  -25.3150    6.2260 C.ar      1 6SS         0.0579
     17 C32         4.6970  -26.6140    6.6860 C.ar      1 6SS         0.0044
     18 C33         4.4270  -26.8700    8.0310 C.ar      1 6SS         0.0991
     19 C35         4.0920  -27.9000   10.0300 C.2       1 6SS         0.2571
     20 C37         0.8040  -25.9510    9.0010 C.ar      1 6SS         0.1467
     21 CL1        -0.9590  -25.5910    6.9960 Cl        1 6SS        -0.0741
     22 C9          2.7300  -26.3460   12.3070 C.3       1 6SS         0.0256
     23 N11         1.7440  -25.6390   13.1390 N.4       1 6SS         0.2256
     24 C14         4.1900  -24.4570   13.1910 C.3       1 6SS        -0.0161
     25 N15         4.8710  -25.8370   11.2520 N.4       1 6SS         0.1987
     26 C20         8.7790  -23.2640   12.8860 C.ar      1 6SS        -0.0401
     27 O22         9.3690  -24.7740   14.6970 O.3       1 6SS        -0.3200
     28 C25         7.8710  -25.4930   12.9940 C.ar      1 6SS        -0.0272
     29 C26         3.9470  -26.4150   10.2450 C.3       1 6SS         0.0778
     30 C28         4.2450  -24.5020    8.4310 C.ar      1 6SS        -0.0498
     31 C29         4.5060  -24.2580    7.0920 C.ar      1 6SS        -0.0341
     32 CL2         5.0670  -25.0060    4.5590 Cl        1 6SS        -0.0481
     33 N34         4.3520  -28.0730    8.7240 N.am      1 6SS        -0.2158
     34 O36         3.9760  -28.7830   10.8500 O.2       1 6SS        -0.3145
     35 F38         1.2420  -24.7220    8.6360 F         1 6SS        -0.1883
     36 H1         -1.5904  -28.1711    8.0574 H         1 6SS         0.0555
     37 H2         -0.5641  -29.4438    9.9113 H         1 6SS         0.0565
     38 H3          1.3235  -28.4875   11.1823 H         1 6SS         0.0547
     39 H4          2.4365  -24.9227   10.6959 H         1 6SS         0.0427
     40 H5          4.6869  -26.5631   13.2654 H         1 6SS         0.0907
     41 H6          6.3509  -27.2401   11.8215 H         1 6SS         0.0980
     42 H7          6.5763  -26.5128   10.1945 H         1 6SS         0.0980
     43 H8          6.6940  -23.8421   10.2843 H         1 6SS         0.0466
     44 H9          8.1379  -22.0755   11.2183 H         1 6SS         0.0572
     45 H10        11.3567  -24.6724   14.1211 H         1 6SS         0.0611
     46 H11        10.7082  -23.2121   14.9418 H         1 6SS         0.0611
     47 H12        12.2502  -24.4707   16.4339 H         1 6SS         0.0256
     48 H13        11.2240  -25.9349   16.2626 H         1 6SS         0.0256
     49 H14        10.5755  -24.4746   17.0833 H         1 6SS         0.0256
     50 H15         4.8776  -27.4363    6.0032 H         1 6SS         0.0594
     51 H16         2.6345  -27.4278   12.4818 H         1 6SS         0.0922
     52 H17         0.8195  -25.9810   12.9281 H         1 6SS         0.2000
     53 H18         1.7886  -24.6506   12.9462 H         1 6SS         0.2000
     54 H19         1.9482  -25.8009   14.1127 H         1 6SS         0.2000
     55 H20         5.2285  -24.1444   13.3749 H         1 6SS         0.0286
     56 H21         3.6355  -24.4638   14.1410 H         1 6SS         0.0286
     57 H22         3.7133  -23.7529   12.4932 H         1 6SS         0.0286
     58 H23         4.9491  -24.8613   11.0111 H         1 6SS         0.1996
     59 H24         9.4057  -22.4812   13.2978 H         1 6SS         0.0486
     60 H25         7.7880  -26.4538   13.4890 H         1 6SS         0.0480
     61 H26         4.0748  -23.6747    9.1105 H         1 6SS         0.0772
     62 H27         4.5318  -23.2394    6.7220 H         1 6SS         0.0595
     63 H28         4.4778  -28.9684    8.2969 H         1 6SS         0.2404
@<TRIPOS>BOND
     1    1    2 ar 
     2   20    1 ar 
     3    1   21 1  
     4    3    2 ar 
     5    4    3 ar 
     6    5    4 ar 
     7    6    5 1  
     8    5   20 ar 
     9    6   22 1  
    10   29    6 1  
    11   22    7 1  
    12    7   24 1  
    13    7   25 1  
    14    8    9 1  
    15   25    8 1  
    16    9   10 ar 
    17    9   28 ar 
    18   10   11 ar 
    19   11   26 ar 
    20   12   26 ar 
    21   12   27 1  
    22   28   12 ar 
    23   13   14 1  
    24   27   13 1  
    25   18   15 ar 
    26   15   29 1  
    27   15   30 ar 
    28   17   16 ar 
    29   16   31 ar 
    30   16   32 1  
    31   17   18 ar 
    32   18   33 1  
    33   29   19 1  
    34   19   33 am 
    35   19   34 2  
    36   20   35 1  
    37   22   23 1  
    38   25   29 1  
    39   30   31 ar 
    40    2   36 1  
    41    3   37 1  
    42    4   38 1  
    43    6   39 1  
    44    7   40 1  
    45    8   41 1  
    46    8   42 1  
    47   10   43 1  
    48   11   44 1  
    49   13   45 1  
    50   13   46 1  
    51   14   47 1  
    52   14   48 1  
    53   14   49 1  
    54   17   50 1  
    55   22   51 1  
    56   23   52 1  
    57   23   53 1  
    58   23   54 1  
    59   24   55 1  
    60   24   56 1  
    61   24   57 1  
    62   25   58 1  
    63   26   59 1  
    64   28   60 1  
    65   30   61 1  
    66   31   62 1  
    67   33   63 1  
@<TRIPOS>SUBSTRUCTURE
     1 6SS         1

