### 
### Created by X-TOOL on Mon Sep 10 21:13:27 2018
### 

@<TRIPOS>MOLECULE
5laz_ligand
   66    72     1     0     0
SMALL
GAST_HUCK


@<TRIPOS>ATOM
      1 C2        -12.7180    8.3060   -6.8480 C.2       1 6ST         0.0584
      2 C4        -11.8930    8.7580   -5.7180 C.ar      1 6ST         0.0032
      3 C5        -12.5180    9.0860   -4.5080 C.ar      1 6ST        -0.0541
      4 C6        -11.7750    9.5350   -3.4720 C.ar      1 6ST        -0.0512
      5 C7        -10.4060    9.6770   -3.6110 C.ar      1 6ST         0.0074
      6 C8         -9.7860    9.3570   -4.8070 C.ar      1 6ST        -0.0512
      7 C12       -10.2170   10.1430   -1.0890 C.3       1 6ST         0.0492
      8 C15        -7.8000    9.5800   -0.9660 C.3       1 6ST         0.0296
      9 C18        -6.7640   10.7330   -0.9590 C.3       1 6ST         0.0619
     10 C21        -4.7860    9.0880   -0.6020 C.ar      1 6ST        -0.0623
     11 C23        -2.6850    9.5280   -1.6190 C.ar      1 6ST        -0.0566
     12 C24        -3.1810   10.6880   -2.1780 C.ar      1 6ST         0.0668
     13 C32        -5.5700   12.9570    1.4420 C.ar      1 6ST         0.0991
     14 C33        -4.8950   14.1510    1.6610 C.ar      1 6ST         0.0044
     15 C34        -5.0890   15.2480    0.8390 C.ar      1 6ST         0.0579
     16 C36        -5.9530   15.1700   -0.2120 C.ar      1 6ST        -0.0341
     17 C37        -6.6590   13.9890   -0.4560 C.ar      1 6ST        -0.0498
     18 C38        -6.5010   12.8820    0.3680 C.ar      1 6ST         0.0203
     19 C40        -9.1640   11.9560    1.6140 C.3       1 6ST        -0.0343
     20 O1        -14.0030    7.9970   -6.6490 O.co2     1 6ST        -0.5625
     21 O3        -12.2120    8.2160   -7.9450 O.co2     1 6ST        -0.5625
     22 C9        -10.5180    8.9210   -5.8720 C.ar      1 6ST        -0.0541
     23 C10        -9.5370   10.1490   -2.4910 C.3       1 6ST         0.0183
     24 C13        -8.9660   10.1650   -0.1240 C.3       1 6ST         0.0254
     25 N17        -8.3660    9.2490   -2.3020 N.4       1 6ST         0.2488
     26 C20        -5.3210   10.2680   -1.1650 C.ar      1 6ST        -0.0064
     27 C22        -3.5010    8.7090   -0.8540 C.ar      1 6ST        -0.0721
     28 CL2        -2.1610   11.7450   -3.1590 Cl        1 6ST        -0.0741
     29 C26        -4.4740   11.0760   -1.8960 C.ar      1 6ST         0.1467
     30 F27        -4.9010   12.2270   -2.4390 F         1 6ST        -0.1883
     31 C28        -7.0590   11.4920    0.3660 C.3       1 6ST         0.0767
     32 C29        -6.4260   10.8260    1.5800 C.2       1 6ST         0.2571
     33 O30        -6.6300    9.6740    1.9410 O.2       1 6ST        -0.3145
     34 N31        -5.5780   11.7460    2.1280 N.am      1 6ST        -0.2158
     35 CL3        -4.2390   16.6890    1.1340 Cl        1 6ST        -0.0481
     36 N39        -8.5730   11.4960    0.3080 N.4       1 6ST         0.1861
     37 C41       -10.5290   12.6060    1.3850 C.3       1 6ST        -0.0006
     38 C42       -10.8550   13.6730    2.4150 C.3       1 6ST        -0.0449
     39 C43       -10.5490   14.0670    0.9560 C.3       1 6ST        -0.0449
     40 H1        -13.5917    8.9803   -4.4031 H         1 6ST         0.0634
     41 H2        -12.2524    9.7841   -2.5312 H         1 6ST         0.0566
     42 H3         -8.7101    9.4538   -4.8976 H         1 6ST         0.0566
     43 H4        -10.8215    9.2360   -0.9407 H         1 6ST         0.0401
     44 H5        -10.8488   11.0321   -0.9463 H         1 6ST         0.0401
     45 H6         -7.3709    8.6752   -0.5107 H         1 6ST         0.0923
     46 H7         -6.9892   11.4101   -1.7962 H         1 6ST         0.0427
     47 H8         -5.4070    8.4743    0.0405 H         1 6ST         0.0547
     48 H9         -1.6483    9.2548   -1.7794 H         1 6ST         0.0555
     49 H10        -4.2027   14.2254    2.4918 H         1 6ST         0.0594
     50 H11        -6.0931   16.0270   -0.8609 H         1 6ST         0.0595
     51 H12        -7.3385   13.9361   -1.2989 H         1 6ST         0.0772
     52 H13        -8.4879   12.6884    2.0792 H         1 6ST         0.0819
     53 H14        -9.2829   11.0904    2.2823 H         1 6ST         0.0819
     54 H15       -10.0390    8.7054   -6.8202 H         1 6ST         0.0634
     55 H16        -9.1991   11.1680   -2.7307 H         1 6ST         0.1025
     56 H17        -9.1673    9.5419    0.7599 H         1 6ST         0.0914
     57 H18        -8.6585    8.2847   -2.3286 H         1 6ST         0.2037
     58 H19        -7.6801    9.4121   -3.0224 H         1 6ST         0.2037
     59 H20        -3.1201    7.7741   -0.4591 H         1 6ST         0.0565
     60 H21        -5.0203   11.5678    2.9387 H         1 6ST         0.2404
     61 H22        -8.8702   12.1518   -0.3974 H         1 6ST         0.1985
     62 H23       -11.2749   11.8890    1.0115 H         1 6ST         0.0353
     63 H24       -10.1340   13.9080    3.2118 H         1 6ST         0.0270
     64 H25       -11.8784   13.7654    2.8075 H         1 6ST         0.0270
     65 H26       -11.3535   14.4398    0.3050 H         1 6ST         0.0270
     66 H27        -9.6091   14.5825    0.7093 H         1 6ST         0.0270
@<TRIPOS>BOND
     1    2    1 1  
     2    1   20 ar 
     3    1   21 ar 
     4    3    2 ar 
     5   22    2 ar 
     6    4    3 ar 
     7    5    4 ar 
     8    5    6 ar 
     9   23    5 1  
    10    6   22 ar 
    11    7   23 1  
    12   24    7 1  
    13    8    9 1  
    14   24    8 1  
    15    8   25 1  
    16    9   26 1  
    17    9   31 1  
    18   26   10 ar 
    19   10   27 ar 
    20   11   12 ar 
    21   27   11 ar 
    22   12   28 1  
    23   12   29 ar 
    24   13   14 ar 
    25   18   13 ar 
    26   13   34 1  
    27   14   15 ar 
    28   16   15 ar 
    29   15   35 1  
    30   17   16 ar 
    31   18   17 ar 
    32   31   18 1  
    33   36   19 1  
    34   19   37 1  
    35   25   23 1  
    36   24   36 1  
    37   26   29 ar 
    38   29   30 1  
    39   31   32 1  
    40   31   36 1  
    41   32   33 2  
    42   32   34 am 
    43   37   38 1  
    44   37   39 1  
    45   38   39 1  
    46    3   40 1  
    47    4   41 1  
    48    6   42 1  
    49    7   43 1  
    50    7   44 1  
    51    8   45 1  
    52    9   46 1  
    53   10   47 1  
    54   11   48 1  
    55   14   49 1  
    56   16   50 1  
    57   17   51 1  
    58   19   52 1  
    59   19   53 1  
    60   22   54 1  
    61   23   55 1  
    62   24   56 1  
    63   25   57 1  
    64   25   58 1  
    65   27   59 1  
    66   34   60 1  
    67   36   61 1  
    68   37   62 1  
    69   38   63 1  
    70   38   64 1  
    71   39   65 1  
    72   39   66 1  
@<TRIPOS>SUBSTRUCTURE
     1 6ST         1

