### 
### Created by X-TOOL on Mon Sep 10 21:13:32 2018
### 

@<TRIPOS>MOLECULE
5lb7_ligand
   53    53     1     0     0
SMALL
GAST_HUCK


@<TRIPOS>ATOM
      1 N         109.1530  173.5940   61.4700 N.4       1 SER         0.2396
      2 CA        109.4710  175.0130   61.3420 C.3       1 SER         0.0885
      3 C         109.4380  175.4550   59.8840 C.2       1 SER         0.2291
      4 O         109.3010  176.6440   59.5880 O.2       1 SER        -0.3906
      5 CB        110.8450  175.3170   61.9460 C.3       1 SER         0.1041
      6 OG        110.8620  175.0560   63.3380 O.3       1 SER        -0.3870
      7 N         109.5620  174.4880   58.9760 N.am      1 PHE        -0.2592
      8 CA        109.6240  174.7610   57.5460 C.3       1 PHE         0.1405
      9 C         108.3590  174.3530   56.8060 C.2       1 PHE         0.2054
     10 O         108.3290  174.4010   55.5720 O.2       1 PHE        -0.3942
     11 CB        110.8730  174.1270   56.9320 C.3       1 PHE         0.0214
     12 CG        112.1400  174.7720   57.3930 C.ar      1 PHE        -0.0386
     13 CD1       112.7090  174.4180   58.6040 C.ar      1 PHE        -0.0601
     14 CD2       112.7390  175.7680   56.6390 C.ar      1 PHE        -0.0601
     15 CE1       113.8630  175.0230   59.0440 C.ar      1 PHE        -0.0686
     16 CE2       113.8940  176.3770   57.0730 C.ar      1 PHE        -0.0686
     17 CZ        114.4590  176.0020   58.2770 C.ar      1 PHE        -0.0687
     18 N         107.3180  173.9550   57.5280 N.am      1 LEU        -0.2693
     19 CA        106.0190  173.7460   56.9180 C.3       1 LEU         0.0946
     20 C         105.5490  175.0690   56.3250 C.2       1 LEU         0.0601
     21 O         105.3870  176.0590   57.0400 O.co2     1 LEU        -0.5666
     22 CB        105.0190  173.2280   57.9530 C.3       1 LEU        -0.0156
     23 CG        105.2850  171.8170   58.4770 C.3       1 LEU        -0.0431
     24 CD1       104.2160  171.4120   59.4770 C.3       1 LEU        -0.0625
     25 CD2       105.3480  170.8280   57.3250 C.3       1 LEU        -0.0625
     26 OXT       105.3220  175.1750   55.1190 O.co2     1 LEU        -0.5666
     27 H1        109.1821  173.3296   62.4423 H         1 SER         0.2016
     28 H2        109.8271  173.0507   60.9538 H         1 SER         0.2016
     29 H3        108.2303  173.4219   61.1025 H         1 SER         0.2016
     30 H4        108.7127  175.5863   61.8954 H         1 SER         0.1122
     31 H5        111.0846  176.3772   61.7769 H         1 SER         0.0640
     32 H6        111.6006  174.6872   61.4537 H         1 SER         0.0640
     33 H7        111.7240  175.2527   63.6855 H         1 SER         0.2099
     34 H8        109.6145  173.5392   59.2875 H         1 PHE         0.1886
     35 H9        109.7212  175.8506   57.4305 H         1 PHE         0.0823
     36 H10       110.8109  174.2182   55.8376 H         1 PHE         0.0474
     37 H11       110.8995  173.0631   57.2104 H         1 PHE         0.0474
     38 H12       112.2392  173.6544   59.2132 H         1 PHE         0.0557
     39 H13       112.2935  176.0704   55.6982 H         1 PHE         0.0557
     40 H14       114.3028  174.7312   59.9908 H         1 PHE         0.0599
     41 H15       114.3597  177.1494   56.4717 H         1 PHE         0.0599
     42 H16       115.3712  176.4776   58.6188 H         1 PHE         0.0559
     43 H17       107.4317  173.7967   58.5088 H         1 LEU         0.1875
     44 H18       106.1119  173.0021   56.1131 H         1 LEU         0.0726
     45 H19       104.0201  173.2356   57.4924 H         1 LEU         0.0308
     46 H20       105.0324  173.9161   58.8111 H         1 LEU         0.0308
     47 H21       106.2581  171.8141   58.9899 H         1 LEU         0.0297
     48 H22       104.4228  170.3956   59.8432 H         1 LEU         0.0232
     49 H23       103.2305  171.4324   58.9887 H         1 LEU         0.0232
     50 H24       104.2205  172.1146   60.3233 H         1 LEU         0.0232
     51 H25       106.1276  171.1413   56.6150 H         1 LEU         0.0232
     52 H26       104.3752  170.7998   56.8123 H         1 LEU         0.0232
     53 H27       105.5869  169.8271   57.7137 H         1 LEU         0.0232
@<TRIPOS>BOND
     1    1    2 1  
     2    2    3 1  
     3    2    5 1  
     4    3    4 2  
     5    3    7 am 
     6    5    6 1  
     7    7    8 1  
     8    8    9 1  
     9    8   11 1  
    10    9   10 2  
    11    9   18 am 
    12   11   12 1  
    13   12   13 ar 
    14   12   14 ar 
    15   13   15 ar 
    16   14   16 ar 
    17   15   17 ar 
    18   16   17 ar 
    19   18   19 1  
    20   19   20 1  
    21   19   22 1  
    22   20   21 ar 
    23   20   26 ar 
    24   22   23 1  
    25   23   24 1  
    26   23   25 1  
    27    1   27 1  
    28    1   28 1  
    29    1   29 1  
    30    2   30 1  
    31    5   31 1  
    32    5   32 1  
    33    6   33 1  
    34    7   34 1  
    35    8   35 1  
    36   11   36 1  
    37   11   37 1  
    38   13   38 1  
    39   14   39 1  
    40   15   40 1  
    41   16   41 1  
    42   17   42 1  
    43   18   43 1  
    44   19   44 1  
    45   22   45 1  
    46   22   46 1  
    47   23   47 1  
    48   24   48 1  
    49   24   49 1  
    50   24   50 1  
    51   25   51 1  
    52   25   52 1  
    53   25   53 1  
@<TRIPOS>SUBSTRUCTURE
     1 SER         1

