### 
### Created by X-TOOL on Mon Sep 10 21:13:30 2018
### 

@<TRIPOS>MOLECULE
5lbq_ligand
   49    50     1     0     0
SMALL
GAST_HUCK


@<TRIPOS>ATOM
      1 C2        -62.1680  -36.1180  -32.1670 C.3       1 767        -0.0433
      2 N1        -61.0990  -36.7340  -31.3330 N.4       1 767         0.2310
      3 C1        -59.7520  -36.1180  -31.4910 C.3       1 767        -0.0433
      4 C3        -61.0590  -38.2080  -31.4560 C.3       1 767        -0.0305
      5 C4        -60.5590  -38.6940  -32.8130 C.3       1 767         0.0079
      6 C5        -61.3320  -39.9120  -33.2960 C.3       1 767         0.0349
      7 N2        -60.6260  -41.0840  -32.7980 N.pl3     1 767        -0.2959
      8 C6        -60.4880  -42.1890  -33.5760 C.ar      1 767         0.1533
      9 N3        -60.9980  -42.2410  -34.8500 N.ar      1 767        -0.2473
     10 C7        -60.8790  -43.3210  -35.6690 C.ar      1 767         0.1238
     11 N4        -61.3740  -43.3960  -36.9410 N.pl3     1 767        -0.3000
     12 C8        -62.1030  -42.3450  -37.6270 C.3       1 767         0.0208
     13 N6        -59.8240  -43.2530  -33.0720 N.ar      1 767        -0.3045
     14 C20       -59.6780  -44.3650  -33.8360 C.ar      1 767         0.0078
     15 C21       -60.2020  -44.4100  -35.1430 C.ar      1 767         0.0266
     16 C27       -58.9970  -45.4840  -33.3290 C.ar      1 767        -0.0244
     17 C25       -58.8360  -46.6440  -34.1120 C.ar      1 767         0.1276
     18 O2        -58.1630  -47.7510  -33.6330 O.3       1 767        -0.3173
     19 C26       -56.8610  -47.6410  -33.0470 C.3       1 767         0.0599
     20 C23       -59.3630  -46.6640  -35.4060 C.ar      1 767         0.1272
     21 C22       -60.0380  -45.5490  -35.9160 C.ar      1 767        -0.0226
     22 O1        -59.2460  -47.7780  -36.1960 O.3       1 767        -0.3230
     23 C24       -60.3470  -48.1800  -37.0210 C.3       1 767         0.0572
     24 H1        -62.1511  -35.0259  -32.0367 H         1 767         0.0777
     25 H2        -63.1476  -36.5093  -31.8552 H         1 767         0.0777
     26 H3        -61.9949  -36.3637  -33.2251 H         1 767         0.0777
     27 H4        -61.3666  -36.5470  -30.3794 H         1 767         0.2028
     28 H5        -59.0330  -36.6365  -30.8396 H         1 767         0.0777
     29 H6        -59.7997  -35.0552  -31.2115 H         1 767         0.0777
     30 H7        -59.4284  -36.2075  -32.5385 H         1 767         0.0777
     31 H8        -62.0757  -38.5978  -31.3000 H         1 767         0.0815
     32 H9        -60.3909  -38.6040  -30.6770 H         1 767         0.0815
     33 H10       -59.4949  -38.9588  -32.7265 H         1 767         0.0337
     34 H11       -60.6767  -37.8834  -33.5472 H         1 767         0.0337
     35 H12       -61.3643  -39.9284  -34.3954 H         1 767         0.0526
     36 H13       -62.3578  -39.8911  -32.8993 H         1 767         0.0526
     37 H14       -60.2280  -41.0752  -31.8481 H         1 767         0.1855
     38 H15       -61.2161  -44.2735  -37.4568 H         1 767         0.1895
     39 H16       -62.3762  -42.6869  -38.6362 H         1 767         0.0495
     40 H17       -61.4699  -41.4487  -37.7024 H         1 767         0.0495
     41 H18       -63.0155  -42.1030  -37.0624 H         1 767         0.0495
     42 H19       -58.5909  -45.4547  -32.3244 H         1 767         0.0461
     43 H20       -56.5138  -48.6372  -32.7355 H         1 767         0.0579
     44 H21       -56.9083  -46.9785  -32.1701 H         1 767         0.0579
     45 H22       -56.1608  -47.2229  -33.7851 H         1 767         0.0579
     46 H23       -60.4359  -45.5763  -36.9240 H         1 767         0.0541
     47 H24       -60.0740  -49.0870  -37.5803 H         1 767         0.0573
     48 H25       -60.5897  -47.3727  -37.7276 H         1 767         0.0573
     49 H26       -61.2222  -48.3889  -36.3883 H         1 767         0.0573
@<TRIPOS>BOND
     1    1    2 1  
     2    2    3 1  
     3    2    4 1  
     4    4    5 1  
     5    5    6 1  
     6    6    7 1  
     7    7    8 1  
     8    8    9 ar 
     9    8   13 ar 
    10    9   10 ar 
    11   10   11 1  
    12   10   15 ar 
    13   11   12 1  
    14   13   14 ar 
    15   14   15 ar 
    16   14   16 ar 
    17   15   21 ar 
    18   16   17 ar 
    19   17   18 1  
    20   17   20 ar 
    21   18   19 1  
    22   20   21 ar 
    23   20   22 1  
    24   22   23 1  
    25    1   24 1  
    26    1   25 1  
    27    1   26 1  
    28    2   27 1  
    29    3   28 1  
    30    3   29 1  
    31    3   30 1  
    32    4   31 1  
    33    4   32 1  
    34    5   33 1  
    35    5   34 1  
    36    6   35 1  
    37    6   36 1  
    38    7   37 1  
    39   11   38 1  
    40   12   39 1  
    41   12   40 1  
    42   12   41 1  
    43   16   42 1  
    44   19   43 1  
    45   19   44 1  
    46   19   45 1  
    47   21   46 1  
    48   23   47 1  
    49   23   48 1  
    50   23   49 1  
@<TRIPOS>SUBSTRUCTURE
     1 767         1

