### 
### Created by X-TOOL on Mon Sep 10 21:13:30 2018
### 

@<TRIPOS>MOLECULE
5lca_ligand
   32    34     1     0     0
SMALL
GAST_HUCK


@<TRIPOS>ATOM
      1 O01       -12.1370   26.1900  -20.4680 O.co2     1 B06        -0.5596
      2 C02       -11.6180   25.3040  -19.7370 C.2       1 B06         0.0650
      3 O03       -11.6250   24.1000  -20.1030 O.co2     1 B06        -0.5596
      4 C04       -10.9780   25.7410  -18.4230 C.ar      1 B06         0.0237
      5 C05       -11.7170   25.8100  -17.2480 C.ar      1 B06        -0.0491
      6 C06       -11.1100   26.2330  -16.0620 C.ar      1 B06        -0.0606
      7 C07        -9.7650   26.5860  -16.0520 C.ar      1 B06        -0.0495
      8 C08        -9.0200   26.5190  -17.2390 C.ar      1 B06         0.0089
      9 C09        -7.5500   26.8320  -17.5530 C.3       1 B06         0.0930
     10 N10        -7.3300   26.5630  -18.9530 N.am      1 B06        -0.2016
     11 C11        -8.5760   26.1240  -19.5350 C.2       1 B06         0.2347
     12 O12        -8.7640   25.8250  -20.6650 O.2       1 B06        -0.3756
     13 C13        -9.6250   26.0990  -18.4140 C.ar      1 B06         0.0737
     14 C14        -6.0940   26.7840  -19.6620 C.ar      1 B06         0.0997
     15 C15        -4.8790   26.8360  -19.0030 C.ar      1 B06        -0.0108
     16 C16        -3.7230   27.0980  -19.7240 C.ar      1 B06        -0.0433
     17 C17        -3.7880   27.3290  -21.0890 C.ar      1 B06        -0.0450
     18 C18        -5.0110   27.2990  -21.7410 C.ar      1 B06         0.0336
     19 C19        -6.1630   27.0400  -21.0220 C.ar      1 B06        -0.0120
     20 C20        -5.1050   27.5650  -23.2430 C.3       1 B06         0.3727
     21 F21        -3.8950   27.3300  -23.8310 F         1 B06        -0.2209
     22 F22        -5.4690   28.8660  -23.4420 F         1 B06        -0.2209
     23 F23        -6.0610   26.7750  -23.8070 F         1 B06        -0.2209
     24 H1        -12.7656   25.5354  -17.2513 H         1 B06         0.0606
     25 H2        -11.6894   26.2860  -15.1474 H         1 B06         0.0641
     26 H3         -9.2943   26.9114  -15.1313 H         1 B06         0.0590
     27 H4         -6.8933   26.1952  -16.9422 H         1 B06         0.0764
     28 H5         -7.3386   27.8898  -17.3378 H         1 B06         0.0764
     29 H6         -4.8304   26.6734  -17.9324 H         1 B06         0.0760
     30 H7         -2.7649   27.1221  -19.2176 H         1 B06         0.0664
     31 H8         -2.8816   27.5333  -21.6473 H         1 B06         0.0741
     32 H9         -7.1238   27.0372  -21.5240 H         1 B06         0.0712
@<TRIPOS>BOND
     1    1    2 ar 
     2    2    3 ar 
     3    2    4 1  
     4    4    5 ar 
     5    4   13 ar 
     6    5    6 ar 
     7    6    7 ar 
     8    7    8 ar 
     9    8    9 1  
    10    8   13 ar 
    11    9   10 1  
    12   10   11 am 
    13   10   14 1  
    14   11   12 2  
    15   11   13 1  
    16   14   15 ar 
    17   14   19 ar 
    18   15   16 ar 
    19   16   17 ar 
    20   17   18 ar 
    21   18   19 ar 
    22   18   20 1  
    23   20   21 1  
    24   20   22 1  
    25   20   23 1  
    26    5   24 1  
    27    6   25 1  
    28    7   26 1  
    29    9   27 1  
    30    9   28 1  
    31   15   29 1  
    32   16   30 1  
    33   17   31 1  
    34   19   32 1  
@<TRIPOS>SUBSTRUCTURE
     1 B06         1

