### 
### Created by X-TOOL on Fri Nov  2 10:26:06 2018
### 

@<TRIPOS>MOLECULE
5lce_ligand
   62    64     1     0     0
SMALL
GAST_HUCK


@<TRIPOS>ATOM
      1 C4         21.8300  -14.0740   24.0580 C.3       1 MOL        -0.0528
      2 C5         22.1390  -13.6180   25.4740 C.3       1 MOL        -0.0530
      3 C6         21.0440  -12.7140   26.0010 C.3       1 MOL        -0.0528
      4 N1         17.8760  -12.8330   21.3940 N.am      1 MOL        -0.2471
      5 C7         19.6870  -13.4000   25.9230 C.3       1 MOL        -0.0499
      6 C8         17.1260  -13.2830   22.4140 C.2       1 MOL         0.2292
      7 N2         15.4890  -10.3030   20.7380 N.am      1 MOL        -0.2749
      8 C9         19.0060  -13.5170   20.7410 C.3       1 MOL         0.0371
      9 C10        19.6600  -12.4190   19.9380 C.3       1 MOL        -0.0281
     10 C11        18.5160  -11.4900   19.5680 C.3       1 MOL        -0.0104
     11 C12        17.5890  -11.5250   20.7900 C.3       1 MOL         0.1339
     12 C13        16.1230  -11.4190   20.3770 C.2       1 MOL         0.2035
     13 C14        14.0890  -10.0720   20.4090 C.3       1 MOL         0.0623
     14 C15        13.1840  -10.0750   21.6170 C.ar      1 MOL        -0.0162
     15 O2         16.2100  -12.6240   22.8670 O.2       1 MOL        -0.3905
     16 C          17.4350  -14.6820   23.0190 C.3       1 MOL         0.0655
     17 C1         17.9770  -14.5020   24.4360 C.3       1 MOL         0.0107
     18 C2         19.3470  -13.8310   24.5040 C.3       1 MOL        -0.0338
     19 C3         20.4560  -14.7340   23.9730 C.3       1 MOL        -0.0499
     20 N          16.1680  -15.4260   22.9860 N.4       1 MOL         0.2379
     21 O1         15.5760  -12.3330   19.7620 O.2       1 MOL        -0.3944
     22 C20        12.4070  -11.2060   21.9180 C.ar      1 MOL        -0.0135
     23 C21        12.4830  -12.4530   21.0700 C.3       1 MOL         0.0760
     24 O          13.1390  -13.5110   21.7370 O.3       1 MOL        -0.3837
     25 C19        11.5570  -11.1700   23.0180 C.ar      1 MOL        -0.0640
     26 C18        11.4670  -10.0490   23.8200 C.ar      1 MOL        -0.0615
     27 C17        12.2440   -8.9580   23.5190 C.ar      1 MOL         0.0264
     28 CL         12.1820   -7.5530   24.5430 Cl        1 MOL        -0.0789
     29 C16        13.0930   -8.9530   22.4370 C.ar      1 MOL        -0.0510
     30 H1         22.5949  -14.7977   23.7400 H         1 MOL         0.0265
     31 H2         21.8499  -13.2014   23.3886 H         1 MOL         0.0265
     32 H3         23.0918  -13.0684   25.4757 H         1 MOL         0.0265
     33 H4         22.2232  -14.4998   26.1262 H         1 MOL         0.0265
     34 H5         21.0169  -11.7933   25.3998 H         1 MOL         0.0265
     35 H6         21.2596  -12.4610   27.0496 H         1 MOL         0.0265
     36 H7         18.9148  -12.7009   26.2764 H         1 MOL         0.0268
     37 H8         19.7008  -14.2891   26.5705 H         1 MOL         0.0268
     38 H9         15.9892   -9.6043   21.2495 H         1 MOL         0.1876
     39 H10        18.6513  -14.3263   20.0859 H         1 MOL         0.0524
     40 H11        19.7023  -13.9276   21.4870 H         1 MOL         0.0524
     41 H12        20.1370  -12.8281   19.0351 H         1 MOL         0.0287
     42 H13        20.4116  -11.8897   20.5420 H         1 MOL         0.0287
     43 H14        17.9928  -11.8540   18.6715 H         1 MOL         0.0313
     44 H15        18.8852  -10.4696   19.3881 H         1 MOL         0.0313
     45 H16        17.8300  -10.7095   21.4878 H         1 MOL         0.0802
     46 H17        13.7565  -10.8638   19.7216 H         1 MOL         0.0668
     47 H18        14.0038   -9.0947   19.9113 H         1 MOL         0.0668
     48 H19        18.1871  -15.2055   22.4105 H         1 MOL         0.1098
     49 H20        18.0560  -15.4946   24.9034 H         1 MOL         0.0348
     50 H21        17.2631  -13.8858   25.0023 H         1 MOL         0.0348
     51 H22        19.3085  -12.9314   23.8722 H         1 MOL         0.0304
     52 H23        20.4714  -15.6610   24.5650 H         1 MOL         0.0268
     53 H24        20.2433  -14.9743   22.9209 H         1 MOL         0.0268
     54 H25        15.8560  -15.5160   22.0317 H         1 MOL         0.2015
     55 H26        15.4729  -14.9298   23.5214 H         1 MOL         0.2015
     56 H27        16.3061  -16.3425   23.3821 H         1 MOL         0.2015
     57 H28        13.0336  -12.2207   20.1465 H         1 MOL         0.0707
     58 H29        11.4613  -12.7727   20.8173 H         1 MOL         0.0707
     59 H30        13.1649  -14.2732   21.1706 H         1 MOL         0.2124
     60 H31        10.9528  -12.0393   23.2508 H         1 MOL         0.0539
     61 H32        10.7956  -10.0311   24.6709 H         1 MOL         0.0548
     62 H33        13.6917   -8.0752   22.2223 H         1 MOL         0.0543
@<TRIPOS>BOND
     1    2    1 1  
     2    1   19 1  
     3    3    2 1  
     4    5    3 1  
     5    6    4 am 
     6    4    8 1  
     7    4   11 1  
     8   18    5 1  
     9    6   15 2  
    10   16    6 1  
    11   12    7 am 
    12    7   13 1  
    13    8    9 1  
    14   10    9 1  
    15   11   10 1  
    16   11   12 1  
    17   12   21 2  
    18   13   14 1  
    19   14   22 ar 
    20   14   29 ar 
    21   17   16 1  
    22   16   20 1  
    23   17   18 1  
    24   18   19 1  
    25   22   23 1  
    26   22   25 ar 
    27   23   24 1  
    28   25   26 ar 
    29   26   27 ar 
    30   27   28 1  
    31   27   29 ar 
    32    1   30 1  
    33    1   31 1  
    34    2   32 1  
    35    2   33 1  
    36    3   34 1  
    37    3   35 1  
    38    5   36 1  
    39    5   37 1  
    40    7   38 1  
    41    8   39 1  
    42    8   40 1  
    43    9   41 1  
    44    9   42 1  
    45   10   43 1  
    46   10   44 1  
    47   11   45 1  
    48   13   46 1  
    49   13   47 1  
    50   16   48 1  
    51   17   49 1  
    52   17   50 1  
    53   18   51 1  
    54   19   52 1  
    55   19   53 1  
    56   20   54 1  
    57   20   55 1  
    58   20   56 1  
    59   23   57 1  
    60   23   58 1  
    61   24   59 1  
    62   25   60 1  
    63   26   61 1  
    64   29   62 1  
@<TRIPOS>SUBSTRUCTURE
     1 MOL         1

