### 
### Created by X-TOOL on Mon Sep 10 21:13:30 2018
### 

@<TRIPOS>MOLECULE
5lcf_ligand
   29    31     1     0     0
SMALL
GAST_HUCK


@<TRIPOS>ATOM
      1 O01       -28.3270   91.8350   20.3760 O.co2     1 6TJ        -0.5596
      2 C02       -29.0340   90.9910   19.7710 C.2       1 6TJ         0.0650
      3 O03       -29.2410   89.8540   20.2680 O.co2     1 6TJ        -0.5596
      4 C04       -29.6270   91.4240   18.4390 C.ar      1 6TJ         0.0237
      5 C05       -28.8010   91.5130   17.3280 C.ar      1 6TJ        -0.0491
      6 C06       -29.3220   91.9280   16.1000 C.ar      1 6TJ        -0.0606
      7 C07       -30.6680   92.2500   15.9970 C.ar      1 6TJ        -0.0495
      8 C08       -31.4970   92.1690   17.1160 C.ar      1 6TJ         0.0089
      9 C09       -32.9920   92.4640   17.3010 C.3       1 6TJ         0.0926
     10 N10       -33.3230   92.1810   18.6690 N.am      1 6TJ        -0.2074
     11 C11       -32.1170   91.7690   19.3600 C.2       1 6TJ         0.2345
     12 O12       -32.0060   91.4680   20.5040 O.2       1 6TJ        -0.3755
     13 C13       -30.9850   91.7580   18.3320 C.ar      1 6TJ         0.0738
     14 C14       -34.6310   92.3870   19.2420 C.ar      1 6TJ         0.0710
     15 C15       -35.6940   92.7620   18.4330 C.ar      1 6TJ        -0.0409
     16 C16       -36.9360   93.0100   19.0030 C.ar      1 6TJ        -0.0755
     17 C17       -37.0930   92.9020   20.3720 C.ar      1 6TJ        -0.0771
     18 C18       -36.0190   92.5630   21.1770 C.ar      1 6TJ        -0.0755
     19 C19       -34.7840   92.3140   20.6090 C.ar      1 6TJ        -0.0409
     20 H1        -27.7503   91.2603   17.4128 H         1 6TJ         0.0606
     21 H2        -28.6776   91.9982   15.2312 H         1 6TJ         0.0641
     22 H3        -31.0765   92.5655   15.0438 H         1 6TJ         0.0590
     23 H4        -33.5863   91.8251   16.6312 H         1 6TJ         0.0765
     24 H5        -33.1966   93.5212   17.0764 H         1 6TJ         0.0765
     25 H6        -35.5559   92.8608   17.3624 H         1 6TJ         0.0503
     26 H7        -37.7773   93.2866   18.3779 H         1 6TJ         0.0577
     27 H8        -38.0639   93.0840   20.8184 H         1 6TJ         0.0488
     28 H9        -36.1465   92.4930   22.2512 H         1 6TJ         0.0577
     29 H10       -33.9377   92.0618   21.2377 H         1 6TJ         0.0503
@<TRIPOS>BOND
     1    1    2 ar 
     2    2    3 ar 
     3    2    4 1  
     4    4    5 ar 
     5    4   13 ar 
     6    5    6 ar 
     7    6    7 ar 
     8    7    8 ar 
     9    8    9 1  
    10    8   13 ar 
    11    9   10 1  
    12   10   11 am 
    13   10   14 1  
    14   11   12 2  
    15   11   13 1  
    16   14   15 ar 
    17   14   19 ar 
    18   15   16 ar 
    19   16   17 ar 
    20   17   18 ar 
    21   18   19 ar 
    22    5   20 1  
    23    6   21 1  
    24    7   22 1  
    25    9   23 1  
    26    9   24 1  
    27   15   25 1  
    28   16   26 1  
    29   17   27 1  
    30   18   28 1  
    31   19   29 1  
@<TRIPOS>SUBSTRUCTURE
     1 6TJ         1

