### 
### Created by X-TOOL on Mon Sep 10 21:13:30 2018
### 

@<TRIPOS>MOLECULE
5lch_ligand
   40    42     1     0     0
SMALL
GAST_HUCK


@<TRIPOS>ATOM
      1 C10        35.9240  -62.3310   51.4200 C.2       1 6TU         0.2348
      2 C13        37.6780  -63.3990   52.2970 C.3       1 6TU         0.1130
      3 C15        36.6760  -65.4810   51.3300 C.2       1 6TU        -0.0845
      4 C17        35.6810  -63.0530   53.8300 C.ar      1 6TU         0.0626
      5 C20        34.4990  -63.3510   56.2950 C.ar      1 6TU        -0.0484
      6 C21        33.7200  -63.3780   55.1490 C.ar      1 6TU         0.0772
      7 C22        34.3120  -63.2360   53.9020 C.ar      1 6TU        -0.0136
      8 C24        31.5120  -63.0500   54.2950 C.3       1 6TU         0.0590
      9 C19        35.8690  -63.1750   56.2130 C.ar      1 6TU        -0.0837
     10 C01        37.9270  -62.0680   48.1750 C.ar      1 6TU        -0.0491
     11 C02        39.0780  -62.7050   48.6400 C.ar      1 6TU        -0.0606
     12 C03        39.1180  -63.1690   49.9520 C.ar      1 6TU        -0.0490
     13 C04        38.0240  -62.9900   50.7860 C.ar      1 6TU         0.0142
     14 C05        36.8710  -62.3480   50.3270 C.ar      1 6TU         0.0742
     15 C06        36.8480  -61.8890   49.0300 C.ar      1 6TU         0.0237
     16 C07        35.5660  -61.2490   48.5550 C.2       1 6TU         0.0650
     17 O08        35.2670  -60.0580   48.8010 O.co2     1 6TU        -0.5596
     18 O09        34.7920  -62.0250   47.9230 O.co2     1 6TU        -0.5596
     19 O11        34.8340  -61.8410   51.3320 O.2       1 6TU        -0.3755
     20 N12        36.3530  -62.9050   52.5660 N.am      1 6TU        -0.2047
     21 C14        37.6240  -64.8540   52.3580 C.3       1 6TU         0.0144
     22 C16        35.4330  -65.7680   51.6550 C.2       1 6TU        -0.1172
     23 C18        36.4620  -63.0250   54.9760 C.ar      1 6TU        -0.0518
     24 O23        32.3440  -63.5710   55.2890 O.3       1 6TU        -0.3252
     25 H1         38.4145  -62.9931   53.0061 H         1 6TU         0.0827
     26 H2         37.0333  -65.6907   50.3229 H         1 6TU         0.0675
     27 H3         34.0303  -63.4689   57.2653 H         1 6TU         0.0418
     28 H4         33.7118  -63.2680   52.9999 H         1 6TU         0.0420
     29 H5         30.4636  -63.2776   54.5379 H         1 6TU         0.0577
     30 H6         31.7704  -63.5024   53.3262 H         1 6TU         0.0577
     31 H7         31.6468  -61.9598   54.2382 H         1 6TU         0.0577
     32 H8         36.4719  -63.1551   57.1137 H         1 6TU         0.0552
     33 H9         37.8756  -61.7147   47.1515 H         1 6TU         0.0606
     34 H10        39.9325  -62.8373   47.9863 H         1 6TU         0.0641
     35 H11        40.0048  -63.6706   50.3222 H         1 6TU         0.0590
     36 H12        37.2879  -65.1468   53.3636 H         1 6TU         0.0494
     37 H13        38.6362  -65.2464   52.1809 H         1 6TU         0.0494
     38 H14        34.7665  -66.2134   50.9179 H         1 6TU         0.0290
     39 H15        35.0713  -65.5600   52.6609 H         1 6TU         0.0290
     40 H16        37.5343  -62.8858   54.9002 H         1 6TU         0.0414
@<TRIPOS>BOND
     1    1   14 1  
     2    1   19 2  
     3   20    1 am 
     4   13    2 1  
     5    2   20 1  
     6    2   21 1  
     7   21    3 1  
     8    3   22 2  
     9    4    7 ar 
    10   20    4 1  
    11    4   23 ar 
    12    6    5 ar 
    13    9    5 ar 
    14    7    6 ar 
    15    6   24 1  
    16   24    8 1  
    17   23    9 ar 
    18   11   10 ar 
    19   10   15 ar 
    20   12   11 ar 
    21   12   13 ar 
    22   13   14 ar 
    23   14   15 ar 
    24   15   16 1  
    25   16   17 ar 
    26   16   18 ar 
    27    2   25 1  
    28    3   26 1  
    29    5   27 1  
    30    7   28 1  
    31    8   29 1  
    32    8   30 1  
    33    8   31 1  
    34    9   32 1  
    35   10   33 1  
    36   11   34 1  
    37   12   35 1  
    38   21   36 1  
    39   21   37 1  
    40   22   38 1  
    41   22   39 1  
    42   23   40 1  
@<TRIPOS>SUBSTRUCTURE
     1 6TU         1

