### 
### Created by X-TOOL on Mon Sep 10 21:13:26 2018
### 

@<TRIPOS>MOLECULE
5lcj_ligand
   76    79     1     0     0
SMALL
GAST_HUCK


@<TRIPOS>ATOM
      1 C2         10.9500    6.7680   44.2860 C.ar      1 6TS         0.0980
      2 C3         12.1270    6.1110   44.0080 C.ar      1 6TS         0.0152
      3 N4         13.0860    6.6910   43.2810 N.ar      1 6TS        -0.2679
      4 C5         12.8460    7.9410   42.8370 C.ar      1 6TS         0.1978
      5 C7         13.8270    9.7450   41.3700 C.ar      1 6TS         0.0857
      6 C8         12.6540   10.3720   40.9610 C.ar      1 6TS        -0.0113
      7 C11        15.0270   11.5390   40.3370 C.ar      1 6TS         0.0832
      8 C12        16.2630   12.1900   39.9850 C.1       1 6TS        -0.0494
      9 C13        17.2990   12.7130   39.7040 C.1       1 6TS        -0.0884
     10 C14        18.5820   13.3410   39.3690 C.3       1 6TS         0.0319
     11 C15        19.7790   12.4990   39.7940 C.3       1 6TS         0.0441
     12 C22        25.0850   14.5630   40.9510 C.3       1 6TS        -0.0206
     13 C23        25.3130   15.3130   42.2680 C.3       1 6TS        -0.0438
     14 C24        26.3820   16.4120   42.2570 C.3       1 6TS        -0.0364
     15 C25        25.8540   17.7970   42.0280 C.2       1 6TS        -0.0987
     16 C26        25.2410   18.2470   40.9480 C.2       1 6TS        -0.0986
     17 C27        24.8230   17.4470   39.7500 C.3       1 6TS        -0.0338
     18 C28        23.6200   16.5340   39.9980 C.3       1 6TS        -0.0157
     19 C31        10.7520    8.0870   43.7920 C.ar      1 6TS         0.1459
     20 N32         9.6230    8.7880   44.0280 N.pl3     1 6TS        -0.2604
     21 C35         9.8450   12.4930   43.6690 C.ar      1 6TS        -0.0867
     22 C36         8.7290   12.7500   42.9010 C.ar      1 6TS        -0.0870
     23 C37         7.9080   11.7140   42.5030 C.ar      1 6TS        -0.0497
     24 C38         8.1950   10.4070   42.8690 C.ar      1 6TS         0.0922
     25 C40         6.7500    8.4110   43.2070 C.2       1 6TS         0.2009
     26 O41         7.0070    8.1980   44.3880 O.2       1 6TS        -0.3861
     27 C42         5.7270    7.5660   42.4940 C.3       1 6TS         0.0399
     28 C43         6.0390    6.1090   42.6530 C.3       1 6TS        -0.0478
     29 N39         7.3490    9.3580   42.4550 N.am      1 6TS        -0.2367
     30 C34        10.1510   11.2000   44.0460 C.ar      1 6TS        -0.0506
     31 C33         9.3320   10.1270   43.6540 C.ar      1 6TS         0.0877
     32 N30        11.7240    8.6580   43.0630 N.ar      1 6TS        -0.2340
     33 N6         13.8280    8.5260   42.0970 N.pl3     1 6TS        -0.2363
     34 C9         12.7250   11.5570   40.2560 C.ar      1 6TS        -0.0015
     35 N10        13.8900   12.1450   39.9410 N.ar      1 6TS        -0.3002
     36 N16        20.8140   13.2930   40.4390 N.am      1 6TS        -0.2616
     37 C17        21.8700   13.7860   39.7710 C.2       1 6TS         0.3198
     38 O18        22.0490   13.6850   38.5730 O.2       1 6TS        -0.3775
     39 O19        22.7040   14.4100   40.6230 O.3       1 6TS        -0.2605
     40 C20        23.9070   15.0250   40.0730 C.3       1 6TS         0.0898
     41 C29        15.0360   10.3490   41.0460 C.ar      1 6TS         0.0036
     42 CL1         9.7410    5.9600   45.2370 Cl        1 6TS        -0.0747
     43 H1         12.2784    5.1061   44.3853 H         1 6TS         0.0853
     44 H2         11.6908    9.9329   41.1944 H         1 6TS         0.0626
     45 H3         18.6397   14.3154   39.8761 H         1 6TS         0.0423
     46 H4         18.6265   13.4911   38.2802 H         1 6TS         0.0423
     47 H5         20.2071   12.0178   38.9023 H         1 6TS         0.0529
     48 H6         19.4357   11.7268   40.4982 H         1 6TS         0.0529
     49 H7         24.9184   13.5041   41.1977 H         1 6TS         0.0295
     50 H8         26.0023   14.6600   40.3518 H         1 6TS         0.0295
     51 H9         25.6039   14.5724   43.0276 H         1 6TS         0.0286
     52 H10        24.3590   15.7786   42.5562 H         1 6TS         0.0286
     53 H11        27.1010   16.1827   41.4568 H         1 6TS         0.0388
     54 H12        26.8978   16.3982   43.2285 H         1 6TS         0.0388
     55 H13        25.9909   18.5091   42.8405 H         1 6TS         0.0450
     56 H14        25.0151   19.3121   40.9249 H         1 6TS         0.0450
     57 H15        25.6727   16.8219   39.4382 H         1 6TS         0.0389
     58 H16        24.5654   18.1458   38.9405 H         1 6TS         0.0389
     59 H17        22.9025   16.6973   39.1804 H         1 6TS         0.0313
     60 H18        23.1633   16.8350   40.9523 H         1 6TS         0.0313
     61 H19         8.8817    8.2911   44.5423 H         1 6TS         0.2131
     62 H20        10.4859   13.3105   43.9787 H         1 6TS         0.0460
     63 H21         8.4959   13.7676   42.6092 H         1 6TS         0.0482
     64 H22         7.0321   11.9234   41.8997 H         1 6TS         0.0465
     65 H23         5.7304    7.8212   41.4240 H         1 6TS         0.0504
     66 H24         4.7322    7.7703   42.9166 H         1 6TS         0.0504
     67 H25         5.2806    5.5119   42.1254 H         1 6TS         0.0254
     68 H26         6.0336    5.8473   43.7214 H         1 6TS         0.0254
     69 H27         7.0318    5.8982   42.2289 H         1 6TS         0.0254
     70 H28         7.1686    9.3091   41.4726 H         1 6TS         0.2226
     71 H29        11.0311   11.0109   44.6499 H         1 6TS         0.0490
     72 H30        14.7127    7.9999   42.0587 H         1 6TS         0.2214
     73 H31        11.8020   12.0322   39.9440 H         1 6TS         0.0786
     74 H32        20.7360   13.4790   41.4185 H         1 6TS         0.1867
     75 H33        24.0858   14.6620   39.0502 H         1 6TS         0.0649
     76 H34        15.9740    9.8947   41.3443 H         1 6TS         0.0637
@<TRIPOS>BOND
     1    2    1 ar 
     2   19    1 ar 
     3    1   42 1  
     4    3    2 ar 
     5    4    3 ar 
     6    4   32 ar 
     7   33    4 1  
     8    5    6 ar 
     9    5   33 1  
    10   41    5 ar 
    11   34    6 ar 
    12    8    7 1  
    13    7   35 ar 
    14    7   41 ar 
    15    9    8 3  
    16   10    9 1  
    17   11   10 1  
    18   36   11 1  
    19   12   13 1  
    20   40   12 1  
    21   13   14 1  
    22   14   15 1  
    23   16   15 2  
    24   17   16 1  
    25   18   17 1  
    26   40   18 1  
    27   19   20 1  
    28   32   19 ar 
    29   20   31 1  
    30   21   22 ar 
    31   30   21 ar 
    32   23   22 ar 
    33   24   23 ar 
    34   24   29 1  
    35   31   24 ar 
    36   25   26 2  
    37   25   27 1  
    38   29   25 am 
    39   27   28 1  
    40   31   30 ar 
    41   35   34 ar 
    42   37   36 am 
    43   37   38 2  
    44   39   37 1  
    45   39   40 1  
    46    2   43 1  
    47    6   44 1  
    48   10   45 1  
    49   10   46 1  
    50   11   47 1  
    51   11   48 1  
    52   12   49 1  
    53   12   50 1  
    54   13   51 1  
    55   13   52 1  
    56   14   53 1  
    57   14   54 1  
    58   15   55 1  
    59   16   56 1  
    60   17   57 1  
    61   17   58 1  
    62   18   59 1  
    63   18   60 1  
    64   20   61 1  
    65   21   62 1  
    66   22   63 1  
    67   23   64 1  
    68   27   65 1  
    69   27   66 1  
    70   28   67 1  
    71   28   68 1  
    72   28   69 1  
    73   29   70 1  
    74   30   71 1  
    75   33   72 1  
    76   34   73 1  
    77   36   74 1  
    78   40   75 1  
    79   41   76 1  
@<TRIPOS>SUBSTRUCTURE
     1 6TS         1

