### 
### Created by X-TOOL on Mon Sep 10 21:13:26 2018
### 

@<TRIPOS>MOLECULE
5lck_ligand
   50    52     1     0     0
SMALL
GAST_HUCK


@<TRIPOS>ATOM
      1 C1         10.4300   11.7570   40.0630 C.3       1 6TT         0.0609
      2 C3         12.8070   11.5660   40.3560 C.ar      1 6TT         0.1105
      3 C6         15.0490   10.4720   41.4320 C.ar      1 6TT         0.0261
      4 C7         13.8390    9.7900   41.5710 C.ar      1 6TT         0.0927
      5 C11        12.0860    6.2090   44.2050 C.ar      1 6TT         0.0376
      6 C12        10.8960    6.8510   44.4650 C.ar      1 6TT         0.0983
      7 C13        10.7250    8.1520   43.9240 C.ar      1 6TT         0.1657
      8 C15         9.3070   10.2030   43.7220 C.ar      1 6TT         0.0994
      9 C16        10.1590   11.2590   44.0820 C.ar      1 6TT        -0.0463
     10 C19         7.9010   11.8130   42.5750 C.ar      1 6TT        -0.0468
     11 C22         6.6520    8.5320   43.3050 C.2       1 6TT         0.2020
     12 C24         5.5540    7.7520   42.6090 C.3       1 6TT         0.0401
     13 C25         5.5950    6.2700   42.9100 C.3       1 6TT        -0.0477
     14 C27         9.8540    6.1100   45.3180 C.3       1 6TT         0.3592
     15 C31        12.6950   10.3530   41.0190 C.ar      1 6TT         0.0120
     16 O23         6.9490    8.2960   44.4720 O.2       1 6TT        -0.3855
     17 N21         7.2650    9.4780   42.5600 N.am      1 6TT        -0.2347
     18 C20         8.1590   10.4990   42.9530 C.ar      1 6TT         0.0973
     19 C18         8.7570   12.8310   42.9440 C.ar      1 6TT        -0.0846
     20 C17         9.8800   12.5550   43.6940 C.ar      1 6TT        -0.0841
     21 N14         9.5900    8.8740   44.1200 N.pl3     1 6TT        -0.2418
     22 N26        11.7030    8.7000   43.1950 N.ar      1 6TT        -0.2045
     23 C9         12.8240    7.9900   43.0010 C.ar      1 6TT         0.2296
     24 N8         13.8050    8.5610   42.2590 N.pl3     1 6TT        -0.2242
     25 N5         15.1510   11.6410   40.7930 N.ar      1 6TT        -0.3157
     26 C4         14.0450   12.1720   40.2660 C.ar      1 6TT         0.0291
     27 O2         11.7470   12.2150   39.7730 O.3       1 6TT        -0.3162
     28 N10        13.0620    6.7540   43.4790 N.ar      1 6TT        -0.2267
     29 F28         9.6900    6.6890   46.5180 F         1 6TT        -0.2444
     30 F29         8.6400    6.0730   44.7550 F         1 6TT        -0.2444
     31 F30        10.2050    4.8370   45.5410 F         1 6TT        -0.2444
     32 H1          9.6991   12.3767   39.5229 H         1 6TT         0.0580
     33 H2         10.2457   11.8318   41.1449 H         1 6TT         0.0580
     34 H3         10.3280   10.7089   39.7452 H         1 6TT         0.0580
     35 H4         15.9436   10.0348   41.8605 H         1 6TT         0.0669
     36 H5         12.2360    5.2145   44.6094 H         1 6TT         0.1104
     37 H6         11.0458   11.0551   44.6711 H         1 6TT         0.0510
     38 H7          7.0199   12.0392   41.9855 H         1 6TT         0.0473
     39 H8          5.6602    7.8915   41.5231 H         1 6TT         0.0504
     40 H9          4.5816    8.1487   42.9363 H         1 6TT         0.0504
     41 H10         4.7761    5.7648   42.3770 H         1 6TT         0.0254
     42 H11         5.4801    6.1124   43.9926 H         1 6TT         0.0254
     43 H12         6.5586    5.8552   42.5793 H         1 6TT         0.0254
     44 H13        11.7359    9.8551   41.1047 H         1 6TT         0.0586
     45 H14         7.0540    9.4515   41.5829 H         1 6TT         0.2241
     46 H15         8.5454   13.8507   42.6430 H         1 6TT         0.0500
     47 H16        10.5478   13.3593   43.9809 H         1 6TT         0.0467
     48 H17         8.8348    8.3894   44.6257 H         1 6TT         0.2278
     49 H18        14.6683    8.0039   42.1864 H         1 6TT         0.2309
     50 H19        14.1220   13.1195   39.7451 H         1 6TT         0.0667
@<TRIPOS>BOND
     1   27    1 1  
     2   15    2 ar 
     3    2   26 ar 
     4    2   27 1  
     5    4    3 ar 
     6    3   25 ar 
     7    4   15 ar 
     8   24    4 1  
     9    6    5 ar 
    10    5   28 ar 
    11    7    6 ar 
    12    6   14 1  
    13    7   21 1  
    14   22    7 ar 
    15    8    9 ar 
    16    8   18 ar 
    17   21    8 1  
    18    9   20 ar 
    19   18   10 ar 
    20   10   19 ar 
    21   11   12 1  
    22   11   16 2  
    23   17   11 am 
    24   12   13 1  
    25   14   29 1  
    26   14   30 1  
    27   14   31 1  
    28   18   17 1  
    29   20   19 ar 
    30   23   22 ar 
    31   23   24 1  
    32   23   28 ar 
    33   25   26 ar 
    34    1   32 1  
    35    1   33 1  
    36    1   34 1  
    37    3   35 1  
    38    5   36 1  
    39    9   37 1  
    40   10   38 1  
    41   12   39 1  
    42   12   40 1  
    43   13   41 1  
    44   13   42 1  
    45   13   43 1  
    46   15   44 1  
    47   17   45 1  
    48   19   46 1  
    49   20   47 1  
    50   21   48 1  
    51   24   49 1  
    52   26   50 1  
@<TRIPOS>SUBSTRUCTURE
     1 6TT         1

