### 
### Created by X-TOOL on Mon Sep 10 21:13:26 2018
### 

@<TRIPOS>MOLECULE
5ld8_ligand
   35    36     1     0     0
SMALL
GAST_HUCK


@<TRIPOS>ATOM
      1 N1         11.9130   30.1690   -4.8590 N.2       1 6U5        -0.2153
      2 C4          8.1700   28.1880   -6.6980 C.ar      1 6U5         0.0553
      3 C5          7.7210   28.3100   -5.3820 C.ar      1 6U5        -0.0506
      4 C6          8.5340   28.8700   -4.4130 C.ar      1 6U5        -0.0735
      5 C7          9.8130   29.3180   -4.7380 C.ar      1 6U5        -0.0043
      6 C8         10.8930   29.9410   -4.0610 C.2       1 6U5         0.0104
      7 C10        10.2550   29.1810   -6.0570 C.ar      1 6U5         0.0731
      8 O1          8.8290   26.7090   -9.4730 O.2       1 6U5        -0.1498
      9 S           7.6000   27.4170   -9.2860 S.o2      1 6U5         0.0602
     10 O           6.4080   26.9250   -9.9050 O.2       1 6U5        -0.1498
     11 C3          7.8430   29.0990   -9.8050 C.3       1 6U5         0.0901
     12 C2          7.4140   29.3320  -11.2480 C.3       1 6U5        -0.0316
     13 C1          6.3940   30.4550  -11.3930 C.3       1 6U5        -0.0544
     14 C           7.0110   31.7810  -11.7490 C.3       1 6U5        -0.0652
     15 N           7.2840   27.6350   -7.6730 N.am      1 6U5        -0.1934
     16 C11         9.4550   28.6170   -7.0440 C.ar      1 6U5        -0.0221
     17 N2         11.5270   29.7030   -6.0990 N.pl3     1 6U5        -0.2121
     18 C9         12.4550   29.8200   -7.2140 C.3       1 6U5         0.0531
     19 H1          6.7285   27.9636   -5.1175 H         1 6U5         0.0445
     20 H2          8.1740   28.9609   -3.3946 H         1 6U5         0.0570
     21 H3         10.8789   30.2003   -3.0034 H         1 6U5         0.0693
     22 H4          8.9105   29.3468   -9.7100 H         1 6U5         0.0524
     23 H5          7.2538   29.7586   -9.1510 H         1 6U5         0.0524
     24 H6          6.9701   28.4033  -11.6359 H         1 6U5         0.0281
     25 H7          8.3042   29.5885  -11.8411 H         1 6U5         0.0281
     26 H8          5.8583   30.5648  -10.4386 H         1 6U5         0.0263
     27 H9          5.6812   30.1786  -12.1839 H         1 6U5         0.0263
     28 H10         6.2209   32.5412  -11.8370 H         1 6U5         0.0230
     29 H11         7.5429   31.6923  -12.7077 H         1 6U5         0.0230
     30 H12         7.7200   32.0785  -10.9624 H         1 6U5         0.0230
     31 H13         6.3815   27.3505   -7.3497 H         1 6U5         0.2163
     32 H14         9.8193   28.5121   -8.0595 H         1 6U5         0.0381
     33 H15        11.9927   29.4035   -8.1211 H         1 6U5         0.0573
     34 H16        13.3764   29.2648   -6.9841 H         1 6U5         0.0573
     35 H17        12.6973   30.8801   -7.3797 H         1 6U5         0.0573
@<TRIPOS>BOND
     1    1    6 2  
     2   17    1 1  
     3    2    3 ar 
     4   15    2 1  
     5    2   16 ar 
     6    3    4 ar 
     7    4    5 ar 
     8    5    6 1  
     9    7    5 ar 
    10   16    7 ar 
    11    7   17 1  
    12    9    8 2  
    13    9   10 2  
    14    9   11 1  
    15    9   15 am 
    16   11   12 1  
    17   12   13 1  
    18   13   14 1  
    19   17   18 1  
    20    3   19 1  
    21    4   20 1  
    22    6   21 1  
    23   11   22 1  
    24   11   23 1  
    25   12   24 1  
    26   12   25 1  
    27   13   26 1  
    28   13   27 1  
    29   14   28 1  
    30   14   29 1  
    31   14   30 1  
    32   15   31 1  
    33   16   32 1  
    34   18   33 1  
    35   18   34 1  
    36   18   35 1  
@<TRIPOS>SUBSTRUCTURE
     1 6U5         1

