### 
### Created by X-TOOL on Mon Sep 10 21:13:30 2018
### 

@<TRIPOS>MOLECULE
5le1_ligand
   32    34     1     0     0
SMALL
GAST_HUCK


@<TRIPOS>ATOM
      1 C10       111.8080   70.8670    9.8390 C.2       1 6UW         0.2088
      2 O11       111.7250   69.6940   10.1690 O.2       1 6UW        -0.3870
      3 C13       112.4720   73.0370    9.9010 C.3       1 6UW         0.0730
      4 C15       114.9900   71.6490   11.4890 C.ar      1 6UW         0.0271
      5 C14       113.4790   71.4150   11.6370 C.3       1 6UW         0.0706
      6 C16       115.5840   72.8520   11.8030 C.ar      1 6UW         0.0415
      7 C17       116.9540   73.0580   11.7050 C.ar      1 6UW        -0.0585
      8 C01       109.9350   73.2200    6.8840 C.ar      1 6UW        -0.0606
      9 C02       110.8570   73.6780    7.7980 C.ar      1 6UW        -0.0499
     10 C03       111.3950   72.8100    8.7210 C.ar      1 6UW         0.0032
     11 C04       111.0250   71.4430    8.7470 C.ar      1 6UW         0.0673
     12 C05       110.1020   70.9860    7.8170 C.ar      1 6UW         0.0232
     13 C06       109.5710   71.8540    6.8790 C.ar      1 6UW        -0.0490
     14 C07       109.6730   69.5350    7.7730 C.2       1 6UW         0.0650
     15 O08       109.1240   69.0170    8.7670 O.co2     1 6UW        -0.5595
     16 O09       109.8470   68.8760    6.6980 O.co2     1 6UW        -0.5595
     17 N12       112.6510   71.7110   10.4950 N.am      1 6UW        -0.2501
     18 C18       117.7600   72.0200   11.3010 C.ar      1 6UW        -0.0700
     19 C19       117.1910   70.8000   10.9920 C.ar      1 6UW        -0.0346
     20 C20       115.8200   70.6220   11.0930 C.ar      1 6UW         0.1356
     21 F21       115.2690   69.4320   10.7760 F         1 6UW        -0.1890
     22 CL        114.5920   74.1710   12.3370 Cl        1 6UW        -0.0783
     23 H1        112.0874   73.7482   10.6468 H         1 6UW         0.0701
     24 H2        113.4224   73.4116    9.4931 H         1 6UW         0.0701
     25 H3        113.1276   72.0400   12.4712 H         1 6UW         0.0681
     26 H4        113.3314   70.3539   11.8863 H         1 6UW         0.0681
     27 H5        117.3823   74.0247   11.9440 H         1 6UW         0.0571
     28 H6        109.4898   73.9043    6.1708 H         1 6UW         0.0641
     29 H7        111.1585   74.7192    7.7908 H         1 6UW         0.0590
     30 H8        108.8726   71.4846    6.1368 H         1 6UW         0.0606
     31 H9        118.8326   72.1579   11.2257 H         1 6UW         0.0549
     32 H10       117.8194   69.9779   10.6690 H         1 6UW         0.0587
@<TRIPOS>BOND
     1    1    2 2  
     2    1   11 1  
     3   17    1 am 
     4   10    3 1  
     5    3   17 1  
     6    5    4 1  
     7    4    6 ar 
     8    4   20 ar 
     9   17    5 1  
    10    6    7 ar 
    11    6   22 1  
    12    7   18 ar 
    13    9    8 ar 
    14    8   13 ar 
    15    9   10 ar 
    16   10   11 ar 
    17   11   12 ar 
    18   12   13 ar 
    19   12   14 1  
    20   14   15 ar 
    21   14   16 ar 
    22   18   19 ar 
    23   19   20 ar 
    24   20   21 1  
    25    3   23 1  
    26    3   24 1  
    27    5   25 1  
    28    5   26 1  
    29    7   27 1  
    30    8   28 1  
    31    9   29 1  
    32   13   30 1  
    33   18   31 1  
    34   19   32 1  
@<TRIPOS>SUBSTRUCTURE
     1 6UW         1

