### 
### Created by X-TOOL on Mon Sep 10 21:13:29 2018
### 

@<TRIPOS>MOLECULE
5lg3_ligand
   41    43     1     0     0
SMALL
GAST_HUCK


@<TRIPOS>ATOM
      1 C1       -120.7980  -57.4430  -44.6010 C.ar      1 Z80         0.0749
      2 N1       -120.1860  -58.8460  -44.9940 N.pl3     1 Z80        -0.2640
      3 S1       -123.0690  -58.4600  -45.2690 S.3       1 Z80        -0.0555
      4 C2       -122.1600  -57.2380  -44.7260 C.ar      1 Z80         0.0508
      5 N2       -120.7690  -63.0640  -42.2420 N.4       1 Z80         0.2310
      6 C3       -122.3210  -59.5440  -46.2080 C.ar      1 Z80         0.0510
      7 C4       -120.9540  -59.7230  -46.0720 C.ar      1 Z80         0.0754
      8 C5       -120.4950  -55.1530  -43.8050 C.ar      1 Z80        -0.0795
      9 C6       -121.8930  -54.9530  -43.9250 C.ar      1 Z80        -0.0802
     10 C7       -122.7250  -55.9890  -44.3890 C.ar      1 Z80        -0.0579
     11 C8       -123.0560  -60.2990  -47.1640 C.ar      1 Z80        -0.0572
     12 C9       -122.3830  -61.1990  -47.9430 C.ar      1 Z80        -0.0662
     13 C10      -120.9950  -61.3950  -47.8160 C.ar      1 Z80         0.0225
     14 C11      -120.2750  -60.6510  -46.8790 C.ar      1 Z80        -0.0313
     15 C12      -119.7220  -59.6630  -43.8920 C.3       1 Z80         0.0469
     16 C13      -120.6480  -60.8040  -43.4250 C.3       1 Z80         0.0106
     17 C14      -119.9910  -62.1390  -43.0410 C.3       1 Z80        -0.0303
     18 C15      -120.4540  -62.8300  -40.8600 C.3       1 Z80        -0.0433
     19 C16      -122.1820  -62.8150  -42.4460 C.3       1 Z80        -0.0433
     20 CL1      -120.1790  -62.5680  -48.8430 Cl        1 Z80        -0.0801
     21 C17      -119.9530  -56.3860  -44.1250 C.ar      1 Z80        -0.0451
     22 H1       -120.5465  -64.0138  -42.4957 H         1 Z80         0.2028
     23 H2       -119.8551  -54.3467  -43.4653 H         1 Z80         0.0529
     24 H3       -122.3245  -53.9952  -43.6575 H         1 Z80         0.0494
     25 H4       -123.7926  -55.8289  -44.4870 H         1 Z80         0.0529
     26 H5       -124.1260  -60.1637  -47.2725 H         1 Z80         0.0530
     27 H6       -122.9327  -61.7765  -48.6774 H         1 Z80         0.0501
     28 H7       -119.2047  -60.7879  -46.7755 H         1 Z80         0.0507
     29 H8       -119.5573  -58.9970  -43.0322 H         1 Z80         0.0559
     30 H9       -118.7658  -60.1150  -44.1942 H         1 Z80         0.0559
     31 H10      -121.3565  -61.0083  -44.2412 H         1 Z80         0.0339
     32 H11      -121.1981  -60.4421  -42.5439 H         1 Z80         0.0339
     33 H12      -119.7238  -62.6549  -43.9750 H         1 Z80         0.0815
     34 H13      -119.0763  -61.9053  -42.4766 H         1 Z80         0.0815
     35 H14      -121.0329  -63.5212  -40.2299 H         1 Z80         0.0777
     36 H15      -120.7087  -61.7929  -40.5964 H         1 Z80         0.0777
     37 H16      -119.3792  -62.9968  -40.6955 H         1 Z80         0.0777
     38 H17      -122.4366  -62.9908  -43.5016 H         1 Z80         0.0777
     39 H18      -122.4125  -61.7723  -42.1820 H         1 Z80         0.0777
     40 H19      -122.7695  -63.4929  -41.8093 H         1 Z80         0.0777
     41 H20      -118.8876  -56.5531  -44.0156 H         1 Z80         0.0502
@<TRIPOS>BOND
     1    2    1 1  
     2    1    4 ar 
     3    1   21 ar 
     4    2    7 1  
     5   15    2 1  
     6    4    3 1  
     7    6    3 1  
     8    4   10 ar 
     9   17    5 1  
    10    5   18 1  
    11    5   19 1  
    12    7    6 ar 
    13    6   11 ar 
    14    7   14 ar 
    15    8    9 ar 
    16   21    8 ar 
    17   10    9 ar 
    18   11   12 ar 
    19   13   12 ar 
    20   14   13 ar 
    21   13   20 1  
    22   16   15 1  
    23   16   17 1  
    24    5   22 1  
    25    8   23 1  
    26    9   24 1  
    27   10   25 1  
    28   11   26 1  
    29   12   27 1  
    30   14   28 1  
    31   15   29 1  
    32   15   30 1  
    33   16   31 1  
    34   16   32 1  
    35   17   33 1  
    36   17   34 1  
    37   18   35 1  
    38   18   36 1  
    39   18   37 1  
    40   19   38 1  
    41   19   39 1  
    42   19   40 1  
    43   21   41 1  
@<TRIPOS>SUBSTRUCTURE
     1 Z80         1

