### 
### Created by X-TOOL on Mon Sep 10 21:13:32 2018
### 

@<TRIPOS>MOLECULE
5lgn_ligand
   37    39     1     0     0
SMALL
GAST_HUCK


@<TRIPOS>ATOM
      1 CAB        -5.8160   56.5780   80.4670 C.3       1 6W0         0.0379
      2 CAD        -9.7870   52.0010   76.8160 C.ar      1 6W0        -0.0818
      3 CAE        -5.7510   56.0600   84.8240 C.2       1 6W0        -0.0147
      4 CAH        -5.5680   56.4550   83.5630 C.2       1 6W0        -0.0473
      5 CAI        -8.7260   50.8700   79.0890 C.ar      1 6W0        -0.0385
      6 CAO        -7.8290   54.2640   79.9790 C.2       1 6W0         0.2433
      7 CAP        -9.3780   50.0520   78.1540 C.ar      1 6W0        -0.0314
      8 CAA        -9.3820   46.9800   80.0680 C.3       1 6W0         0.0391
      9 OAM        -9.4410   48.3780   79.8000 O.3       1 6W0        -0.3708
     10 CAK        -9.4920   48.6600   78.3810 C.3       1 6W0         0.0779
     11 CAF        -9.9050   50.6350   77.0000 C.ar      1 6W0        -0.0734
     12 CAG        -9.1370   52.8080   77.7530 C.ar      1 6W0        -0.0482
     13 CAQ        -8.5760   52.2470   78.8960 C.ar      1 6W0         0.0586
     14 NAL        -7.9540   52.9090   79.8910 N.am      1 6W0        -0.2357
     15 OAC        -8.2170   55.1120   79.1710 O.2       1 6W0        -0.3800
     16 CAR        -7.3230   54.6610   81.1450 C.2       1 6W0         0.1275
     17 CAJ        -7.6730   54.1200   82.3050 C.2       1 6W0        -0.0415
     18 CAS        -7.0210   54.7690   83.2500 C.2       1 6W0         0.0280
     19 SAN        -6.8120   54.8140   84.8210 S.3       1 6W0        -0.0656
     20 CAT        -6.2730   55.7300   82.6800 C.2       1 6W0         0.0562
     21 NAU        -6.4830   55.6560   81.3730 N.pl3     1 6W0        -0.2715
     22 H1         -6.1173   56.3576   79.4323 H         1 6W0         0.0564
     23 H2         -4.7263   56.4634   80.5638 H         1 6W0         0.0564
     24 H3         -6.1000   57.6102   80.7196 H         1 6W0         0.0564
     25 H4        -10.2078   52.4548   75.9260 H         1 6W0         0.0561
     26 H5         -5.2763   56.4921   85.7037 H         1 6W0         0.0703
     27 H6         -4.9151   57.2792   83.2796 H         1 6W0         0.0411
     28 H7         -8.3255   50.4201   79.9903 H         1 6W0         0.0438
     29 H8         -9.3449   46.8163   81.1551 H         1 6W0         0.0526
     30 H9         -8.4806   46.5551   79.6023 H         1 6W0         0.0526
     31 H10       -10.2750   46.4892   79.6537 H         1 6W0         0.0526
     32 H11        -8.6631   48.1409   77.8776 H         1 6W0         0.0721
     33 H12       -10.4495   48.3029   77.9740 H         1 6W0         0.0721
     34 H13       -10.4017   50.0233   76.2556 H         1 6W0         0.0431
     35 H14        -9.0693   53.8773   77.5886 H         1 6W0         0.0447
     36 H15        -7.5511   52.3620   80.6249 H         1 6W0         0.2244
     37 H16        -8.3685   53.2946   82.4496 H         1 6W0         0.0373
@<TRIPOS>BOND
     1   21    1 1  
     2    2   11 ar 
     3   12    2 ar 
     4    3    4 2  
     5   19    3 1  
     6    4   20 1  
     7    5    7 ar 
     8   13    5 ar 
     9    6   14 am 
    10    6   15 2  
    11   16    6 1  
    12    7   10 1  
    13    7   11 ar 
    14    9    8 1  
    15   10    9 1  
    16   13   12 ar 
    17   14   13 1  
    18   17   16 2  
    19   16   21 1  
    20   18   17 1  
    21   18   19 1  
    22   18   20 2  
    23   20   21 1  
    24    1   22 1  
    25    1   23 1  
    26    1   24 1  
    27    2   25 1  
    28    3   26 1  
    29    4   27 1  
    30    5   28 1  
    31    8   29 1  
    32    8   30 1  
    33    8   31 1  
    34   10   32 1  
    35   10   33 1  
    36   11   34 1  
    37   12   35 1  
    38   14   36 1  
    39   17   37 1  
@<TRIPOS>SUBSTRUCTURE
     1 6W0         1

