### 
### Created by X-TOOL on Mon Sep 10 21:13:27 2018
### 

@<TRIPOS>MOLECULE
5lgo_ligand
   75    79     1     0     0
SMALL
GAST_HUCK


@<TRIPOS>ATOM
      1 C1         45.5550   23.5710   47.0200 C.3       1 6VZ         0.1383
      2 C2         44.4900   24.6270   47.3950 C.3       1 6VZ         0.0328
      3 C3         43.6500   23.9100   48.4570 C.3       1 6VZ         0.0061
      4 C11        46.6730   20.3330   51.7290 C.ar      1 6VZ         0.1030
      5 C12        46.6250   21.2050   50.6300 C.ar      1 6VZ        -0.0197
      6 C13        46.3570   20.6710   49.3580 C.ar      1 6VZ         0.0343
      7 C14        46.1640   19.3140   49.1940 C.ar      1 6VZ        -0.0593
      8 C15        46.3000   21.5610   48.1410 C.2       1 6VZ         0.2023
      9 C18        47.1620   22.1510   53.3070 C.3       1 6VZ         0.0578
     10 C19        46.4680   18.0110   52.7580 C.3       1 6VZ        -0.0009
     11 C21        48.3700   24.8640   44.8020 C.3       1 6VZ         0.0196
     12 C23        41.8180   25.5220   48.4710 C.3       1 6VZ         0.0182
     13 C24        41.5850   25.0670   51.4220 C.3       1 6VZ         0.0275
     14 C25        42.1820   24.1060   50.3930 C.3       1 6VZ        -0.0212
     15 C26        40.7680   26.1390   50.6850 C.ar      1 6VZ         0.0492
     16 C27        40.8490   26.3230   49.2990 C.ar      1 6VZ         0.0807
     17 C29        39.1980   27.9660   49.3740 C.ar      1 6VZ         0.0606
     18 C4         44.7410   23.1590   49.2770 C.3       1 6VZ         0.0790
     19 N5         45.6430   22.7450   48.2140 N.am      1 6VZ        -0.2465
     20 C6         46.8580   24.2380   46.6430 C.2       1 6VZ         0.2018
     21 N7         47.1850   24.1880   45.3410 N.am      1 6VZ        -0.2881
     22 O8         47.5490   24.7850   47.5140 O.2       1 6VZ        -0.3945
     23 C9         46.1900   18.4750   50.2950 C.ar      1 6VZ        -0.0575
     24 C10        46.4370   18.9740   51.5680 C.ar      1 6VZ         0.0353
     25 O16        46.8160   21.2220   47.0930 O.2       1 6VZ        -0.3875
     26 O17        46.8590   20.7790   53.0250 O.3       1 6VZ        -0.3237
     27 N20        47.7410   18.0820   53.5050 N.4       1 6VZ         0.2300
     28 N22        42.8580   24.8380   49.2970 N.4       1 6VZ         0.2545
     29 N28        40.0580   27.2260   48.6720 N.ar      1 6VZ        -0.2828
     30 N30        39.0900   27.8420   50.7190 N.ar      1 6VZ        -0.2569
     31 C31        39.8620   26.9430   51.3500 C.ar      1 6VZ         0.1769
     32 O32        39.7470   26.7280   52.6680 O.3       1 6VZ        -0.2960
     33 C33        38.7780   27.4700   53.4270 C.3       1 6VZ         0.0752
     34 C34        38.6010   26.7980   54.7960 C.3       1 6VZ        -0.0216
     35 C35        37.8530   25.4690   54.6030 C.3       1 6VZ        -0.0385
     36 C36        38.0060   24.4700   55.7630 C.3       1 6VZ        -0.0499
     37 C37        38.6990   24.2160   54.4050 C.3       1 6VZ        -0.0499
     38 H1         45.2144   22.9639   46.1683 H         1 6VZ         0.0803
     39 H2         43.8770   24.8969   46.5225 H         1 6VZ         0.0368
     40 H3         44.9594   25.5322   47.8076 H         1 6VZ         0.0368
     41 H4         42.9607   23.1955   47.9834 H         1 6VZ         0.0874
     42 H5         46.7912   22.2683   50.7598 H         1 6VZ         0.0570
     43 H6         45.9923   18.9059   48.2045 H         1 6VZ         0.0560
     44 H7         47.2689   22.2871   54.3933 H         1 6VZ         0.0574
     45 H8         46.3473   22.7902   52.9359 H         1 6VZ         0.0574
     46 H9         48.1023   22.4288   52.8084 H         1 6VZ         0.0574
     47 H10        46.3332   16.9847   52.3859 H         1 6VZ         0.0965
     48 H11        45.6432   18.2651   53.4400 H         1 6VZ         0.0965
     49 H12        48.4337   24.6841   43.7187 H         1 6VZ         0.0484
     50 H13        49.2720   24.4698   45.2928 H         1 6VZ         0.0484
     51 H14        48.2929   25.9450   44.9902 H         1 6VZ         0.0484
     52 H15        42.3199   26.1992   47.7643 H         1 6VZ         0.1014
     53 H16        41.2559   24.7595   47.9118 H         1 6VZ         0.1014
     54 H17        42.3940   25.5465   51.9926 H         1 6VZ         0.0464
     55 H18        40.9304   24.5117   52.1099 H         1 6VZ         0.0464
     56 H19        41.3753   23.4907   49.9679 H         1 6VZ         0.0836
     57 H20        42.9143   23.4556   50.8936 H         1 6VZ         0.0836
     58 H21        38.5711   28.6831   48.8564 H         1 6VZ         0.1008
     59 H22        44.3218   22.2942   49.8120 H         1 6VZ         0.0580
     60 H23        45.2401   23.8272   49.9942 H         1 6VZ         0.0580
     61 H24        46.5993   23.6712   44.7166 H         1 6VZ         0.1848
     62 H25        46.0151   17.4135   50.1620 H         1 6VZ         0.0541
     63 H26        47.7148   17.4332   54.2760 H         1 6VZ         0.2007
     64 H27        47.8722   19.0173   53.8573 H         1 6VZ         0.2007
     65 H28        48.5044   17.8439   52.8914 H         1 6VZ         0.2007
     66 H29        43.4769   25.5286   49.6921 H         1 6VZ         0.2056
     67 H30        37.8168   27.4778   52.8921 H         1 6VZ         0.0621
     68 H31        39.1292   28.5032   53.5652 H         1 6VZ         0.0621
     69 H32        38.0199   27.4563   55.4585 H         1 6VZ         0.0294
     70 H33        39.5872   26.6054   55.2435 H         1 6VZ         0.0294
     71 H34        36.9007   25.6085   54.0705 H         1 6VZ         0.0302
     72 H35        37.1529   23.8482   56.0722 H         1 6VZ         0.0268
     73 H36        38.6042   24.7374   56.6465 H         1 6VZ         0.0268
     74 H37        39.7927   24.2987   54.3222 H         1 6VZ         0.0268
     75 H38        38.3414   23.4096   53.7479 H         1 6VZ         0.0268
@<TRIPOS>BOND
     1    1    2 1  
     2    1   19 1  
     3   20    1 1  
     4    2    3 1  
     5   18    3 1  
     6    3   28 1  
     7    5    4 ar 
     8    4   24 ar 
     9    4   26 1  
    10    6    5 ar 
    11    6    7 ar 
    12    8    6 1  
    13    7   23 ar 
    14   19    8 am 
    15    8   25 2  
    16   26    9 1  
    17   24   10 1  
    18   10   27 1  
    19   21   11 1  
    20   12   16 1  
    21   28   12 1  
    22   14   13 1  
    23   13   15 1  
    24   28   14 1  
    25   16   15 ar 
    26   15   31 ar 
    27   16   29 ar 
    28   29   17 ar 
    29   17   30 ar 
    30   19   18 1  
    31   20   21 am 
    32   20   22 2  
    33   23   24 ar 
    34   30   31 ar 
    35   31   32 1  
    36   32   33 1  
    37   33   34 1  
    38   34   35 1  
    39   35   36 1  
    40   35   37 1  
    41   36   37 1  
    42    1   38 1  
    43    2   39 1  
    44    2   40 1  
    45    3   41 1  
    46    5   42 1  
    47    7   43 1  
    48    9   44 1  
    49    9   45 1  
    50    9   46 1  
    51   10   47 1  
    52   10   48 1  
    53   11   49 1  
    54   11   50 1  
    55   11   51 1  
    56   12   52 1  
    57   12   53 1  
    58   13   54 1  
    59   13   55 1  
    60   14   56 1  
    61   14   57 1  
    62   17   58 1  
    63   18   59 1  
    64   18   60 1  
    65   21   61 1  
    66   23   62 1  
    67   27   63 1  
    68   27   64 1  
    69   27   65 1  
    70   28   66 1  
    71   33   67 1  
    72   33   68 1  
    73   34   69 1  
    74   34   70 1  
    75   35   71 1  
    76   36   72 1  
    77   36   73 1  
    78   37   74 1  
    79   37   75 1  
@<TRIPOS>SUBSTRUCTURE
     1 6VZ         1

