### 
### Created by X-TOOL on Tue Oct 16 15:17:51 2018
### 

@<TRIPOS>MOLECULE
5lgq_ligand
  120   123     1     0     0
SMALL
GAST_HUCK


@<TRIPOS>ATOM
      1 N          36.0980   25.3050  129.4050 N.4       1 ALA         0.2377
      2 CA         35.0520   26.2210  128.8650 C.3       1 ALA         0.0621
      3 C          34.2160   25.5120  127.8020 C.2       1 ALA         0.2264
      4 O          33.7570   26.1310  126.8420 O.2       1 ALA        -0.3907
      5 CB         35.6940   27.4750  128.2900 C.3       1 ALA        -0.0040
      6 N          34.0210   24.1920  127.9870 N.am      1 ALA        -0.2613
      7 CA         33.3300   23.3740  126.9990 C.3       1 ALA         0.1285
      8 C          31.8190   23.4060  127.2360 C.2       1 ALA         0.2061
      9 O          31.3710   23.3150  128.3830 O.2       1 ALA        -0.3942
     10 CB         33.8180   21.9320  127.0590 C.3       1 ALA        -0.0244
     11 N          31.0010   23.5370  126.1770 N.am      1 ALA        -0.2498
     12 CA         29.5410   23.4820  126.3270 C.3       1 ALA         0.1338
     13 C          29.0390   22.1460  126.8720 C.2       1 ALA         0.2041
     14 O          28.2020   22.1350  127.7730 O.2       1 ALA        -0.3944
     15 CB         29.0270   23.7000  124.8980 C.3       1 ALA        -0.0104
     16 CG         30.1360   24.3620  124.1780 C.3       1 ALA        -0.0281
     17 CD         31.3990   23.8650  124.7980 C.3       1 ALA         0.0369
     18 N          29.5350   21.0390  126.3240 N.am      1 ALA        -0.2637
     19 CA         29.0880   19.7050  126.7620 C.3       1 ALA         0.1313
     20 C          30.1400   18.9570  127.6460 C.2       1 ALA         0.2064
     21 O          31.2620   18.8250  127.2450 O.2       1 ALA        -0.3942
     22 CB         28.7890   18.8360  125.5400 C.3       1 ALA        -0.0092
     23 CG         27.6690   19.3590  124.6490 C.3       1 ALA        -0.0156
     24 CD         26.3610   19.5360  125.4000 C.3       1 ALA         0.0627
     25 NE         25.2760   19.8840  124.4940 N.pl3     1 ALA        -0.2723
     26 CZ         24.5480   19.0110  123.8110 C.cat     1 ALA         0.2882
     27 NH1        24.7230   17.7150  123.9830 N.pl3     1 ALA        -0.2849
     28 NH2        23.6730   19.4520  122.9160 N.pl3     1 ALA        -0.2849
     29 N          29.7310   18.4790  128.8360 N.am      1 ALA        -0.2498
     30 CA         30.6630   17.7590  129.7140 C.3       1 ALA         0.1340
     31 C          31.2050   16.4580  129.1070 C.2       1 ALA         0.2066
     32 O          30.4210   15.6810  128.5590 O.2       1 ALA        -0.3942
     33 CB         29.8090   17.4470  130.9500 C.3       1 ALA        -0.0104
     34 CG         28.6980   18.4110  130.9130 C.3       1 ALA        -0.0281
     35 CD         28.4170   18.6620  129.4780 C.3       1 ALA         0.0369
     36 N          32.5150   16.2250  129.1950 N.am      1 ALA        -0.2498
     37 CA         33.0510   14.9110  128.8140 C.3       1 ALA         0.1338
     38 C          32.3420   13.7910  129.5620 C.2       1 ALA         0.2042
     39 O          32.1650   13.8500  130.7810 O.2       1 ALA        -0.3944
     40 CB         34.5290   15.0070  129.2040 C.3       1 ALA        -0.0104
     41 CG         34.8460   16.4550  129.1270 C.3       1 ALA        -0.0281
     42 CD         33.5890   17.1960  129.4810 C.3       1 ALA         0.0369
     43 N          31.9380   12.7590  128.8260 N.am      1 ALA        -0.2619
     44 CA         31.1810   11.6520  129.3890 C.3       1 ALA         0.1404
     45 C          32.0090   10.3740  129.3750 C.2       1 ALA         0.2055
     46 O          32.8120   10.1400  128.4670 O.2       1 ALA        -0.3942
     47 CB         29.8730   11.4370  128.6190 C.3       1 ALA         0.0214
     48 CG         28.9100   10.5020  129.3020 C.ar      1 ALA        -0.0386
     49 CD1        28.2840    9.4900  128.5930 C.ar      1 ALA        -0.0601
     50 CD2        28.6350   10.6320  130.6540 C.ar      1 ALA        -0.0601
     51 CE1        27.4000    8.6300  129.2190 C.ar      1 ALA        -0.0686
     52 CE2        27.7550    9.7750  131.2840 C.ar      1 ALA        -0.0686
     53 CZ         27.1360    8.7730  130.5660 C.ar      1 ALA        -0.0687
     54 N          31.7950    9.5460  130.3950 N.am      1 ALA        -0.2671
     55 CA         32.5510    8.3080  130.5720 C.3       1 ALA         0.1173
     56 C          34.0510    8.5840  130.6030 C.2       1 ALA         0.0623
     57 O          34.6560    8.6510  131.6730 O.co2     1 ALA        -0.5665
     58 CB         32.2220    7.3060  129.4620 C.3       1 ALA         0.0789
     59 OG         30.9820    6.6660  129.7070 O.3       1 ALA        -0.3910
     60 OXT        34.6820    8.7450  129.5590 O.co2     1 ALA        -0.5665
     61 H1         36.6396   25.7886  130.1042 H         1 ALA         0.2015
     62 H2         36.7042   25.0086  128.6562 H         1 ALA         0.2015
     63 H3         35.6572   24.4989  129.8196 H         1 ALA         0.2015
     64 H4         34.3875   26.5165  129.6903 H         1 ALA         0.1095
     65 H5         34.9113   28.1400  127.8961 H         1 ALA         0.0310
     66 H6         36.3809   27.1957  127.4775 H         1 ALA         0.0310
     67 H7         36.2539   27.9959  129.0807 H         1 ALA         0.0310
     68 H8         34.3593   23.7624  128.8242 H         1 ALA         0.1884
     69 H9         33.5416   23.7793  125.9985 H         1 ALA         0.0797
     70 H10        33.2845   21.3328  126.3064 H         1 ALA         0.0277
     71 H11        33.6236   21.5204  128.0604 H         1 ALA         0.0277
     72 H12        34.8982   21.9016  126.8534 H         1 ALA         0.0277
     73 H13        29.1979   24.2880  126.9923 H         1 ALA         0.0802
     74 H14        28.1343   24.3427  124.9040 H         1 ALA         0.0313
     75 H15        28.7824   22.7370  124.4260 H         1 ALA         0.0313
     76 H16        30.0626   25.4540  124.2881 H         1 ALA         0.0287
     77 H17        30.1072   24.0983  123.1105 H         1 ALA         0.0287
     78 H18        31.7695   22.9722  124.2731 H         1 ALA         0.0524
     79 H19        32.1749   24.6447  124.7879 H         1 ALA         0.0524
     80 H20        30.2231   21.1140  125.6023 H         1 ALA         0.1883
     81 H21        28.1667   19.8295  127.3499 H         1 ALA         0.0800
     82 H22        28.5068   17.8331  125.8928 H         1 ALA         0.0313
     83 H23        29.7051   18.7676  124.9350 H         1 ALA         0.0313
     84 H24        27.5098   18.6452  123.8273 H         1 ALA         0.0301
     85 H25        27.9726   20.3322  124.2358 H         1 ALA         0.0301
     86 H26        26.4795   20.3388  126.1426 H         1 ALA         0.0689
     87 H27        26.1120   18.5955  125.9132 H         1 ALA         0.0689
     88 H28        25.0573   20.8834  124.3745 H         1 ALA         0.2642
     89 H29        24.1537   17.0431  123.4488 H         1 ALA         0.2615
     90 H30        25.4290   17.3749  124.6515 H         1 ALA         0.2615
     91 H31        23.5379   20.4644  122.7833 H         1 ALA         0.2615
     92 H32        23.1290   18.7818  122.3540 H         1 ALA         0.2615
     93 H33        31.5117   18.4073  129.9773 H         1 ALA         0.0802
     94 H34        30.4001   17.5767  131.8686 H         1 ALA         0.0313
     95 H35        29.4260   16.4169  130.9027 H         1 ALA         0.0313
     96 H36        28.9875   19.3463  131.4143 H         1 ALA         0.0287
     97 H37        27.8104   17.9895  131.4075 H         1 ALA         0.0287
     98 H38        27.6844   17.9400  129.0882 H         1 ALA         0.0524
     99 H39        28.0422   19.6845  129.3233 H         1 ALA         0.0524
    100 H40        32.9451   14.7450  127.7318 H         1 ALA         0.0802
    101 H41        35.1534   14.4354  128.5016 H         1 ALA         0.0313
    102 H42        34.6860   14.6294  130.2251 H         1 ALA         0.0313
    103 H43        35.1662   16.7185  128.1082 H         1 ALA         0.0287
    104 H44        35.6460   16.7055  129.8392 H         1 ALA         0.0287
    105 H45        33.5877   17.4799  130.5437 H         1 ALA         0.0524
    106 H46        33.4777   18.0974  128.8605 H         1 ALA         0.0524
    107 H47        32.1626   12.7439  127.8517 H         1 ALA         0.1885
    108 H48        30.9344   11.8969  130.4326 H         1 ALA         0.0823
    109 H49        30.1173   11.0212  127.6304 H         1 ALA         0.0474
    110 H50        29.3797   12.4123  128.4949 H         1 ALA         0.0474
    111 H51        28.4893    9.3707  127.5353 H         1 ALA         0.0557
    112 H52        29.1174   11.4173  131.2246 H         1 ALA         0.0557
    113 H53        26.9147    7.8440  128.6518 H         1 ALA         0.0599
    114 H54        27.5506    9.8894  132.3424 H         1 ALA         0.0599
    115 H55        26.4439    8.0996  131.0586 H         1 ALA         0.0559
    116 H56        31.0906    9.7798  131.0652 H         1 ALA         0.1876
    117 H57        32.2614    7.8640  131.5358 H         1 ALA         0.0749
    118 H58        33.0161    6.5462  129.4163 H         1 ALA         0.0599
    119 H59        32.1682    7.8385  128.5010 H         1 ALA         0.0599
    120 H60        31.0247    6.2015  130.5346 H         1 ALA         0.2096
@<TRIPOS>BOND
     1    1    2 1  
     2    2    3 1  
     3    2    5 1  
     4    3    4 2  
     5    3    6 am 
     6    6    7 1  
     7    7    8 1  
     8    7   10 1  
     9    8    9 2  
    10    8   11 am 
    11   11   12 1  
    12   11   17 1  
    13   12   13 1  
    14   12   15 1  
    15   13   14 2  
    16   13   18 am 
    17   15   16 1  
    18   16   17 1  
    19   18   19 1  
    20   19   20 1  
    21   19   22 1  
    22   20   21 2  
    23   20   29 am 
    24   22   23 1  
    25   23   24 1  
    26   24   25 1  
    27   25   26 ar 
    28   26   27 ar 
    29   26   28 ar 
    30   29   30 1  
    31   29   35 1  
    32   30   31 1  
    33   30   33 1  
    34   31   32 2  
    35   31   36 am 
    36   33   34 1  
    37   34   35 1  
    38   36   37 1  
    39   36   42 1  
    40   37   38 1  
    41   37   40 1  
    42   38   39 2  
    43   38   43 am 
    44   40   41 1  
    45   41   42 1  
    46   43   44 1  
    47   44   45 1  
    48   44   47 1  
    49   45   46 2  
    50   45   54 am 
    51   47   48 1  
    52   48   49 ar 
    53   48   50 ar 
    54   49   51 ar 
    55   50   52 ar 
    56   51   53 ar 
    57   52   53 ar 
    58   54   55 1  
    59   55   56 1  
    60   55   58 1  
    61   56   57 ar 
    62   56   60 ar 
    63   58   59 1  
    64    1   61 1  
    65    1   62 1  
    66    1   63 1  
    67    2   64 1  
    68    5   65 1  
    69    5   66 1  
    70    5   67 1  
    71    6   68 1  
    72    7   69 1  
    73   10   70 1  
    74   10   71 1  
    75   10   72 1  
    76   12   73 1  
    77   15   74 1  
    78   15   75 1  
    79   16   76 1  
    80   16   77 1  
    81   17   78 1  
    82   17   79 1  
    83   18   80 1  
    84   19   81 1  
    85   22   82 1  
    86   22   83 1  
    87   23   84 1  
    88   23   85 1  
    89   24   86 1  
    90   24   87 1  
    91   25   88 1  
    92   27   89 1  
    93   27   90 1  
    94   28   91 1  
    95   28   92 1  
    96   30   93 1  
    97   33   94 1  
    98   33   95 1  
    99   34   96 1  
   100   34   97 1  
   101   35   98 1  
   102   35   99 1  
   103   37  100 1  
   104   40  101 1  
   105   40  102 1  
   106   41  103 1  
   107   41  104 1  
   108   42  105 1  
   109   42  106 1  
   110   43  107 1  
   111   44  108 1  
   112   47  109 1  
   113   47  110 1  
   114   49  111 1  
   115   50  112 1  
   116   51  113 1  
   117   52  114 1  
   118   53  115 1  
   119   54  116 1  
   120   55  117 1  
   121   58  118 1  
   122   58  119 1  
   123   59  120 1  
@<TRIPOS>SUBSTRUCTURE
     1 ALA         1

