### 
### Created by X-TOOL on Tue Oct 16 15:17:51 2018
### 

@<TRIPOS>MOLECULE
5lgs_ligand
  120   123     1     0     0
SMALL
GAST_HUCK


@<TRIPOS>ATOM
      1 N          40.5880   25.6150  125.0750 N.4       1 ALA         0.2377
      2 CA         41.6300   24.8680  125.7740 C.3       1 ALA         0.0621
      3 C          42.4630   25.7950  126.6590 C.2       1 ALA         0.2264
      4 O          42.5100   27.0060  126.4370 O.2       1 ALA        -0.3907
      5 CB         42.5180   24.1430  124.7770 C.3       1 ALA        -0.0040
      6 N          43.1250   25.2140  127.6600 N.am      1 ALA        -0.2613
      7 CA         43.8140   25.9950  128.6790 C.3       1 ALA         0.1285
      8 C          45.2520   26.2650  128.2530 C.2       1 ALA         0.2061
      9 O          45.9900   25.3100  127.9760 O.2       1 ALA        -0.3942
     10 CB         43.8040   25.2630  130.0080 C.3       1 ALA        -0.0244
     11 N          45.7010   27.5310  128.1940 N.am      1 ALA        -0.2498
     12 CA         47.1050   27.8230  127.8810 C.3       1 ALA         0.1338
     13 C          48.0750   27.0960  128.8120 C.2       1 ALA         0.2041
     14 O          49.0270   26.4730  128.3460 O.2       1 ALA        -0.3944
     15 CB         47.1990   29.3410  128.0700 C.3       1 ALA        -0.0104
     16 CG         45.8210   29.8330  127.8380 C.3       1 ALA        -0.0281
     17 CD         44.9070   28.7630  128.3470 C.3       1 ALA         0.0369
     18 N          47.8360   27.1860  130.1160 N.am      1 ALA        -0.2637
     19 CA         48.6570   26.4660  131.1010 C.3       1 ALA         0.1313
     20 C          47.9390   25.1820  131.6300 C.2       1 ALA         0.2064
     21 O          46.8920   25.2820  132.2070 O.2       1 ALA        -0.3942
     22 CB         48.9640   27.3700  132.2970 C.3       1 ALA        -0.0092
     23 CG         49.6560   28.6820  131.9380 C.3       1 ALA        -0.0156
     24 CD         51.0100   28.4590  131.2830 C.3       1 ALA         0.0627
     25 NE         51.7070   29.7150  131.0400 N.pl3     1 ALA        -0.2723
     26 CZ         52.5340   30.3060  131.8940 C.cat     1 ALA         0.2882
     27 NH1        52.8090   29.7510  133.0580 N.pl3     1 ALA        -0.2849
     28 NH2        53.0690   31.4780  131.5730 N.pl3     1 ALA        -0.2849
     29 N          48.5310   23.9950  131.4090 N.am      1 ALA        -0.2498
     30 CA         47.8380   22.7670  131.8180 C.3       1 ALA         0.1340
     31 C          47.5380   22.6840  133.3170 C.2       1 ALA         0.2066
     32 O          48.3120   23.2050  134.1230 O.2       1 ALA        -0.3942
     33 CB         48.8190   21.6610  131.4190 C.3       1 ALA        -0.0104
     34 CG         49.6590   22.2570  130.3530 C.3       1 ALA        -0.0281
     35 CD         49.7970   23.7000  130.7150 C.3       1 ALA         0.0369
     36 N          46.4380   22.0270  133.6890 N.am      1 ALA        -0.2498
     37 CA         46.1860   21.7740  135.1130 C.3       1 ALA         0.1338
     38 C          47.3380   20.9990  135.7350 C.2       1 ALA         0.2042
     39 O          47.9050   20.0930  135.1190 O.2       1 ALA        -0.3944
     40 CB         44.8910   20.9530  135.1080 C.3       1 ALA        -0.0104
     41 CG         44.2540   21.2320  133.7950 C.3       1 ALA        -0.0281
     42 CD         45.3730   21.4750  132.8340 C.3       1 ALA         0.0369
     43 N          47.6790   21.3590  136.9700 N.am      1 ALA        -0.2619
     44 CA         48.8320   20.7790  137.6420 C.3       1 ALA         0.1404
     45 C          48.5740   20.7120  139.1400 C.2       1 ALA         0.2055
     46 O          48.0340   21.6540  139.7260 O.2       1 ALA        -0.3942
     47 CB         50.0950   21.5970  137.3620 C.3       1 ALA         0.0214
     48 CG         51.3370   21.0340  137.9910 C.ar      1 ALA        -0.0386
     49 CD1        51.9440   19.9060  137.4660 C.ar      1 ALA        -0.0601
     50 CD2        51.9040   21.6400  139.0990 C.ar      1 ALA        -0.0601
     51 CE1        53.0880   19.3890  138.0370 C.ar      1 ALA        -0.0686
     52 CE2        53.0500   21.1260  139.6760 C.ar      1 ALA        -0.0686
     53 CZ         53.6430   19.9990  139.1430 C.ar      1 ALA        -0.0687
     54 N          48.9710   19.5980  139.7490 N.am      1 ALA        -0.2671
     55 CA         48.8660   19.4210  141.1960 C.3       1 ALA         0.1173
     56 C          50.2460   19.2130  141.8100 C.2       1 ALA         0.0623
     57 O          50.8530   18.1520  141.6560 O.co2     1 ALA        -0.5665
     58 CB         47.9590   18.2360  141.5330 C.3       1 ALA         0.0789
     59 OG         46.6260   18.4760  141.1180 O.3       1 ALA        -0.3910
     60 OXT        50.7830   20.1020  142.4730 O.co2     1 ALA        -0.5665
     61 H1         40.0523   24.9851  124.4986 H         1 ALA         0.2015
     62 H2         41.0127   26.3218  124.4953 H         1 ALA         0.2015
     63 H3         39.9797   26.0536  125.7485 H         1 ALA         0.2015
     64 H4         41.1463   24.1185  126.4176 H         1 ALA         0.1095
     65 H5         43.2971   23.5855  125.3176 H         1 ALA         0.0310
     66 H6         42.9902   24.8757  124.1060 H         1 ALA         0.0310
     67 H7         41.9097   23.4429  124.1856 H         1 ALA         0.0310
     68 H8         43.1493   24.2157  127.7128 H         1 ALA         0.1884
     69 H9         43.2923   26.9559  128.7995 H         1 ALA         0.0797
     70 H10        44.3278   25.8672  130.7633 H         1 ALA         0.0277
     71 H11        44.3124   24.2939  129.8967 H         1 ALA         0.0277
     72 H12        42.7646   25.0973  130.3275 H         1 ALA         0.0277
     73 H13        47.3323   27.5450  126.8413 H         1 ALA         0.0802
     74 H14        47.8960   29.7806  127.3413 H         1 ALA         0.0313
     75 H15        47.5320   29.5854  129.0895 H         1 ALA         0.0313
     76 H16        45.6513   30.0010  126.7642 H         1 ALA         0.0287
     77 H17        45.6532   30.7713  128.3870 H         1 ALA         0.0287
     78 H18        44.6486   28.9358  129.4022 H         1 ALA         0.0524
     79 H19        43.9862   28.7144  127.7472 H         1 ALA         0.0524
     80 H20        47.0797   27.7570  130.4352 H         1 ALA         0.1883
     81 H21        49.6010   26.1720  130.6189 H         1 ALA         0.0800
     82 H22        49.6160   26.8157  132.9881 H         1 ALA         0.0313
     83 H23        48.0152   27.6085  132.7998 H         1 ALA         0.0313
     84 H24        49.7999   29.2692  132.8569 H         1 ALA         0.0301
     85 H25        49.0141   29.2418  131.2419 H         1 ALA         0.0301
     86 H26        50.8605   27.9433  130.3230 H         1 ALA         0.0689
     87 H27        51.6263   27.8319  131.9440 H         1 ALA         0.0689
     88 H28        51.5457   30.1806  130.1355 H         1 ALA         0.2642
     89 H29        53.4522   30.2189  133.7125 H         1 ALA         0.2615
     90 H30        52.3807   28.8496  133.3128 H         1 ALA         0.2615
     91 H31        52.8535   31.9107  130.6635 H         1 ALA         0.2615
     92 H32        53.6995   31.9545  132.2335 H         1 ALA         0.2615
     93 H33        46.8924   22.6686  131.2648 H         1 ALA         0.0802
     94 H34        48.2770   20.7829  131.0381 H         1 ALA         0.0313
     95 H35        49.4382   21.3652  132.2787 H         1 ALA         0.0313
     96 H36        49.1697   22.1513  129.3735 H         1 ALA         0.0287
     97 H37        50.6457   21.7716  130.3243 H         1 ALA         0.0287
     98 H38        50.6582   23.8591  131.3806 H         1 ALA         0.0524
     99 H39        49.9085   24.3234  129.8156 H         1 ALA         0.0524
    100 H40        46.0458   22.7179  135.6601 H         1 ALA         0.0802
    101 H41        44.2320   21.2681  135.9304 H         1 ALA         0.0313
    102 H42        45.1145   19.8806  135.2075 H         1 ALA         0.0313
    103 H43        43.6105   22.1215  133.8643 H         1 ALA         0.0287
    104 H44        43.6534   20.3692  133.4711 H         1 ALA         0.0287
    105 H45        45.6953   20.5368  132.3588 H         1 ALA         0.0524
    106 H46        45.0767   22.1962  132.0580 H         1 ALA         0.0524
    107 H47        47.1296   22.0446  137.4477 H         1 ALA         0.1885
    108 H48        48.9841   19.7580  137.2621 H         1 ALA         0.0823
    109 H49        49.9414   22.6148  137.7498 H         1 ALA         0.0474
    110 H50        50.2465   21.6383  136.2733 H         1 ALA         0.0474
    111 H51        51.5149   19.4232  136.5955 H         1 ALA         0.0557
    112 H52        51.4442   22.5274  139.5187 H         1 ALA         0.0557
    113 H53        53.5510   18.5035  137.6169 H         1 ALA         0.0599
    114 H54        53.4825   21.6071  140.5458 H         1 ALA         0.0599
    115 H55        54.5426   19.5943  139.5924 H         1 ALA         0.0559
    116 H56        49.3542   18.8566  139.1982 H         1 ALA         0.1876
    117 H57        48.4248   20.3320  141.6265 H         1 ALA         0.0749
    118 H58        47.9720   18.0723  142.6207 H         1 ALA         0.0599
    119 H59        48.3374   17.3381  141.0225 H         1 ALA         0.0599
    120 H60        46.0867   17.7259  141.3393 H         1 ALA         0.2096
@<TRIPOS>BOND
     1    1    2 1  
     2    2    3 1  
     3    2    5 1  
     4    3    4 2  
     5    3    6 am 
     6    6    7 1  
     7    7    8 1  
     8    7   10 1  
     9    8    9 2  
    10    8   11 am 
    11   11   12 1  
    12   11   17 1  
    13   12   13 1  
    14   12   15 1  
    15   13   14 2  
    16   13   18 am 
    17   15   16 1  
    18   16   17 1  
    19   18   19 1  
    20   19   20 1  
    21   19   22 1  
    22   20   21 2  
    23   20   29 am 
    24   22   23 1  
    25   23   24 1  
    26   24   25 1  
    27   25   26 ar 
    28   26   27 ar 
    29   26   28 ar 
    30   29   30 1  
    31   29   35 1  
    32   30   31 1  
    33   30   33 1  
    34   31   32 2  
    35   31   36 am 
    36   33   34 1  
    37   34   35 1  
    38   36   37 1  
    39   36   42 1  
    40   37   38 1  
    41   37   40 1  
    42   38   39 2  
    43   38   43 am 
    44   40   41 1  
    45   41   42 1  
    46   43   44 1  
    47   44   45 1  
    48   44   47 1  
    49   45   46 2  
    50   45   54 am 
    51   47   48 1  
    52   48   49 ar 
    53   48   50 ar 
    54   49   51 ar 
    55   50   52 ar 
    56   51   53 ar 
    57   52   53 ar 
    58   54   55 1  
    59   55   56 1  
    60   55   58 1  
    61   56   57 ar 
    62   56   60 ar 
    63   58   59 1  
    64    1   61 1  
    65    1   62 1  
    66    1   63 1  
    67    2   64 1  
    68    5   65 1  
    69    5   66 1  
    70    5   67 1  
    71    6   68 1  
    72    7   69 1  
    73   10   70 1  
    74   10   71 1  
    75   10   72 1  
    76   12   73 1  
    77   15   74 1  
    78   15   75 1  
    79   16   76 1  
    80   16   77 1  
    81   17   78 1  
    82   17   79 1  
    83   18   80 1  
    84   19   81 1  
    85   22   82 1  
    86   22   83 1  
    87   23   84 1  
    88   23   85 1  
    89   24   86 1  
    90   24   87 1  
    91   25   88 1  
    92   27   89 1  
    93   27   90 1  
    94   28   91 1  
    95   28   92 1  
    96   30   93 1  
    97   33   94 1  
    98   33   95 1  
    99   34   96 1  
   100   34   97 1  
   101   35   98 1  
   102   35   99 1  
   103   37  100 1  
   104   40  101 1  
   105   40  102 1  
   106   41  103 1  
   107   41  104 1  
   108   42  105 1  
   109   42  106 1  
   110   43  107 1  
   111   44  108 1  
   112   47  109 1  
   113   47  110 1  
   114   49  111 1  
   115   50  112 1  
   116   51  113 1  
   117   52  114 1  
   118   53  115 1  
   119   54  116 1  
   120   55  117 1  
   121   58  118 1  
   122   58  119 1  
   123   59  120 1  
@<TRIPOS>SUBSTRUCTURE
     1 ALA         1

