### 
### Created by X-TOOL on Mon Sep 10 21:13:33 2018
### 

@<TRIPOS>MOLECULE
5lgt_ligand
   64    68     1     0     0
SMALL
GAST_HUCK


@<TRIPOS>ATOM
      1 CAB       -66.2450  -33.6330  -36.9640 C.3       1 6W3         0.0379
      2 CAD       -70.7670  -39.1150  -40.5060 C.ar      1 6W3        -0.0839
      3 CAE       -70.8400  -37.7300  -40.4810 C.ar      1 6W3        -0.0825
      4 CAH       -70.1660  -37.0110  -39.4890 C.ar      1 6W3        -0.0474
      5 CAI       -65.8770  -38.0260  -36.5120 C.ar      1 6W3        -0.0413
      6 CAL       -65.9390  -39.7650  -34.3550 C.ar      1 6W3        -0.0415
      7 CAM       -65.9230  -33.8270  -33.8340 C.2       1 6W3        -0.0474
      8 CAN       -68.2620  -35.9550  -35.0670 C.2       1 6W3        -0.0416
      9 CAO       -62.5760  -37.4160  -33.4400 C.3       1 6W3         0.0180
     10 CAP       -63.8210  -37.1060  -31.2730 C.3       1 6W3         0.0180
     11 CAQ       -61.7610  -36.2460  -32.9990 C.3       1 6W3        -0.0294
     12 NBG       -61.5480  -36.4810  -31.5500 N.4       1 6W3         0.2332
     13 CAA       -60.3980  -35.7080  -31.0440 C.3       1 6W3        -0.0431
     14 CAR       -62.7640  -36.1100  -30.8270 C.3       1 6W3        -0.0294
     15 CBF       -63.9330  -37.1830  -32.7850 C.3       1 6W3         0.0885
     16 OAV       -64.7340  -38.3100  -33.0240 O.3       1 6W3        -0.3216
     17 CAZ       -65.2920  -38.5460  -34.2390 C.ar      1 6W3         0.0801
     18 CAJ       -66.5570  -40.1190  -35.5380 C.ar      1 6W3        -0.0413
     19 CAK       -65.2570  -37.6680  -35.3230 C.ar      1 6W3        -0.0415
     20 CAY       -66.5320  -39.2510  -36.6240 C.ar      1 6W3         0.0821
     21 OAU       -67.1750  -39.5940  -37.7850 O.3       1 6W3        -0.3152
     22 CAS       -68.6180  -39.8210  -37.5910 C.3       1 6W3         0.0982
     23 CBA       -69.3560  -39.0830  -38.5320 C.ar      1 6W3         0.0086
     24 CAG       -70.0330  -39.7860  -39.5330 C.ar      1 6W3        -0.0709
     25 CBB       -69.4020  -37.6710  -38.5180 C.ar      1 6W3         0.0706
     26 NAT       -68.7540  -37.0630  -37.4950 N.am      1 6W3        -0.2371
     27 CAX       -68.4420  -35.7340  -37.4090 C.2       1 6W3         0.2416
     28 OAC       -68.6370  -34.8410  -38.2440 O.2       1 6W3        -0.3810
     29 CBC       -67.9030  -35.4170  -36.2320 C.2       1 6W3         0.1271
     30 CBD       -67.5240  -35.3740  -34.1320 C.2       1 6W3         0.0280
     31 SAW       -67.2480  -35.3500  -32.5660 S.3       1 6W3        -0.0656
     32 CAF       -66.1000  -34.2220  -32.5770 C.2       1 6W3        -0.0148
     33 CBE       -66.7160  -34.4700  -34.7120 C.2       1 6W3         0.0562
     34 NBH       -66.9680  -34.5030  -36.0230 N.pl3     1 6W3        -0.2716
     35 H1        -66.6047  -33.8200  -37.9866 H         1 6W3         0.0564
     36 H2        -65.1678  -33.8486  -36.9091 H         1 6W3         0.0564
     37 H3        -66.4221  -32.5800  -36.6999 H         1 6W3         0.0564
     38 H4        -71.2801  -39.6727  -41.2811 H         1 6W3         0.0470
     39 H5        -71.4200  -37.2046  -41.2311 H         1 6W3         0.0520
     40 H6        -70.2356  -35.9294  -39.4712 H         1 6W3         0.0480
     41 H7        -65.8516  -37.3490  -37.3582 H         1 6W3         0.0516
     42 H8        -65.9604  -40.4457  -33.5116 H         1 6W3         0.0516
     43 H9        -65.2074  -33.0593  -34.1248 H         1 6W3         0.0411
     44 H10       -69.0170  -36.7245  -34.9128 H         1 6W3         0.0373
     45 H11       -62.1292  -38.3585  -33.0907 H         1 6W3         0.0346
     46 H12       -62.6687  -37.4380  -34.5359 H         1 6W3         0.0346
     47 H13       -64.7936  -36.7992  -30.8607 H         1 6W3         0.0346
     48 H14       -63.5561  -38.1011  -30.8861 H         1 6W3         0.0346
     49 H15       -62.3056  -35.3051  -33.1663 H         1 6W3         0.0815
     50 H16       -60.8009  -36.2143  -33.5349 H         1 6W3         0.0815
     51 H17       -61.3647  -37.4613  -31.4033 H         1 6W3         0.2030
     52 H18       -60.2683  -35.9047  -29.9695 H         1 6W3         0.0777
     53 H19       -60.5801  -34.6346  -31.2009 H         1 6W3         0.0777
     54 H20       -59.4881  -36.0083  -31.5842 H         1 6W3         0.0777
     55 H21       -62.6025  -36.1811  -29.7413 H         1 6W3         0.0815
     56 H22       -63.0678  -35.0851  -31.0862 H         1 6W3         0.0815
     57 H23       -64.3938  -36.2692  -33.1882 H         1 6W3         0.0649
     58 H24       -67.0622  -41.0746  -35.6201 H         1 6W3         0.0516
     59 H25       -64.7496  -36.7139  -35.2371 H         1 6W3         0.0516
     60 H26       -68.9026  -39.5042  -36.5768 H         1 6W3         0.0744
     61 H27       -68.8375  -40.8916  -37.7159 H         1 6W3         0.0744
     62 H28       -69.9854  -40.8688  -39.5513 H         1 6W3         0.0514
     63 H29       -68.4769  -37.6422  -36.7284 H         1 6W3         0.2224
     64 H30       -65.5623  -33.8478  -31.7070 H         1 6W3         0.0703
@<TRIPOS>BOND
     1   34    1 1  
     2    3    2 ar 
     3   24    2 ar 
     4    4    3 ar 
     5   25    4 ar 
     6    5   19 ar 
     7   20    5 ar 
     8    6   17 ar 
     9   18    6 ar 
    10    7   32 2  
    11   33    7 1  
    12    8   29 2  
    13   30    8 1  
    14    9   11 1  
    15   15    9 1  
    16   10   14 1  
    17   15   10 1  
    18   11   12 1  
    19   12   13 1  
    20   14   12 1  
    21   16   15 1  
    22   17   16 1  
    23   19   17 ar 
    24   20   18 ar 
    25   21   20 1  
    26   22   21 1  
    27   23   22 1  
    28   23   24 ar 
    29   25   23 ar 
    30   26   25 1  
    31   27   26 am 
    32   27   28 2  
    33   29   27 1  
    34   29   34 1  
    35   30   31 1  
    36   30   33 2  
    37   31   32 1  
    38   33   34 1  
    39    1   35 1  
    40    1   36 1  
    41    1   37 1  
    42    2   38 1  
    43    3   39 1  
    44    4   40 1  
    45    5   41 1  
    46    6   42 1  
    47    7   43 1  
    48    8   44 1  
    49    9   45 1  
    50    9   46 1  
    51   10   47 1  
    52   10   48 1  
    53   11   49 1  
    54   11   50 1  
    55   12   51 1  
    56   13   52 1  
    57   13   53 1  
    58   13   54 1  
    59   14   55 1  
    60   14   56 1  
    61   15   57 1  
    62   18   58 1  
    63   19   59 1  
    64   22   60 1  
    65   22   61 1  
    66   24   62 1  
    67   26   63 1  
    68   32   64 1  
@<TRIPOS>SUBSTRUCTURE
     1 6W3         1

