### 
### Created by X-TOOL on Mon Sep 10 21:13:32 2018
### 

@<TRIPOS>MOLECULE
5lgu_ligand
   61    65     1     0     0
SMALL
GAST_HUCK


@<TRIPOS>ATOM
      1 N1         -8.2770   53.2620   80.6010 N.am      1 6W1        -0.2371
      2 C2         -8.1950   54.5790   80.7800 C.2       1 6W1         0.2416
      3 O2         -3.8010   52.6090   85.1740 O.3       1 6W1        -0.3247
      4 C4         -9.7090   53.1310   78.6230 C.ar      1 6W1        -0.0474
      5 C6        -10.3540   50.9560   77.8230 C.ar      1 6W1        -0.0839
      6 C7         -9.6420   50.3740   78.8620 C.ar      1 6W1        -0.0709
      7 C8         -8.9540   51.1610   79.7770 C.ar      1 6W1         0.0086
      8 C9         -8.1690   50.4880   80.8910 C.3       1 6W1         0.0982
      9 C10        -6.0200   51.2650   81.8830 C.ar      1 6W1         0.0821
     10 O          -8.6120   55.4910   80.0700 O.2       1 6W1        -0.3810
     11 C1         -7.6220   54.9440   82.0810 C.2       1 6W1         0.1271
     12 C21        -7.9350   54.3300   83.3090 C.2       1 6W1        -0.0416
     13 C22        -7.2120   55.0150   84.2500 C.2       1 6W1         0.0280
     14 C25        -6.5050   55.9830   83.6620 C.2       1 6W1         0.0562
     15 C24        -5.7110   56.7580   84.4990 C.2       1 6W1        -0.0474
     16 C23        -5.8480   56.3030   85.8180 C.2       1 6W1        -0.0148
     17 S          -6.9720   54.9730   85.9020 S.3       1 6W1        -0.0656
     18 N          -6.7600   55.9480   82.3050 N.pl3     1 6W1        -0.2716
     19 C          -6.0940   56.9350   81.4380 C.3       1 6W1         0.0379
     20 C3         -8.9750   52.5530   79.6650 C.ar      1 6W1         0.0706
     21 C5        -10.3890   52.3340   77.7040 C.ar      1 6W1        -0.0825
     22 O1         -6.7630   50.8260   80.7950 O.3       1 6W1        -0.3152
     23 C20        -6.1270   50.6500   83.1330 C.ar      1 6W1        -0.0413
     24 C19        -5.3810   51.1040   84.2120 C.ar      1 6W1        -0.0415
     25 C13        -4.5160   52.1820   84.0720 C.ar      1 6W1         0.0798
     26 C12        -4.4090   52.8020   82.8240 C.ar      1 6W1        -0.0415
     27 C11        -5.1550   52.3490   81.7400 C.ar      1 6W1        -0.0413
     28 C14        -3.0470   53.8200   85.1710 C.3       1 6W1         0.0758
     29 C15        -2.4710   54.1270   86.5440 C.3       1 6W1         0.0313
     30 C18        -1.6180   52.9900   87.0700 C.3       1 6W1        -0.0281
     31 N2         -0.3850   53.5640   87.6390 N.4       1 6W1         0.2272
     32 C17        -0.1600   54.8660   86.9970 C.3       1 6W1        -0.0331
     33 C16        -1.5170   55.3020   86.4600 C.3       1 6W1        -0.0025
     34 H1         -7.7496   52.7105   81.2473 H         1 6W1         0.2224
     35 H2         -9.7490   54.2102   78.5297 H         1 6W1         0.0480
     36 H3        -10.8803   50.3341   77.1080 H         1 6W1         0.0470
     37 H4         -9.6224   49.2947   78.9607 H         1 6W1         0.0514
     38 H5         -8.2858   49.3973   80.8087 H         1 6W1         0.0744
     39 H6         -8.5572   50.8260   81.8631 H         1 6W1         0.0744
     40 H7         -8.6080   53.4901   83.4753 H         1 6W1         0.0373
     41 H8         -5.0817   57.5878   84.1805 H         1 6W1         0.0411
     42 H9         -5.3231   56.7236   86.6745 H         1 6W1         0.0703
     43 H10        -6.4013   56.7727   80.3943 H         1 6W1         0.0564
     44 H11        -5.0033   56.8194   81.5212 H         1 6W1         0.0564
     45 H12        -6.3801   57.9500   81.7508 H         1 6W1         0.0564
     46 H13       -10.9456   52.7939   76.8955 H         1 6W1         0.0520
     47 H14        -6.7995   49.8096   83.2615 H         1 6W1         0.0516
     48 H15        -5.4743   50.6124   85.1736 H         1 6W1         0.0516
     49 H16        -3.7381   53.6443   82.6991 H         1 6W1         0.0516
     50 H17        -5.0630   52.8418   80.7789 H         1 6W1         0.0516
     51 H18        -3.7039   54.6482   84.8667 H         1 6W1         0.0614
     52 H19        -2.2208   53.7238   84.4512 H         1 6W1         0.0614
     53 H20        -3.2938   54.3424   87.2415 H         1 6W1         0.0380
     54 H21        -1.3646   52.3037   86.2485 H         1 6W1         0.0817
     55 H22        -2.1676   52.4419   87.8494 H         1 6W1         0.0817
     56 H23         0.3947   52.9519   87.4561 H         1 6W1         0.2013
     57 H24        -0.4905   53.6857   88.6340 H         1 6W1         0.2013
     58 H25         0.5641   54.7680   86.1748 H         1 6W1         0.0814
     59 H26         0.2144   55.5954   87.7303 H         1 6W1         0.0814
     60 H27        -1.9033   56.1368   87.0632 H         1 6W1         0.0322
     61 H28        -1.4154   55.6226   85.4127 H         1 6W1         0.0322
@<TRIPOS>BOND
     1    1    2 am 
     2   20    1 1  
     3    2   10 2  
     4    2   11 1  
     5   25    3 1  
     6    3   28 1  
     7   20    4 ar 
     8    4   21 ar 
     9    6    5 ar 
    10    5   21 ar 
    11    7    6 ar 
    12    8    7 1  
    13    7   20 ar 
    14   22    8 1  
    15    9   22 1  
    16   23    9 ar 
    17    9   27 ar 
    18   11   12 2  
    19   11   18 1  
    20   12   13 1  
    21   14   13 2  
    22   13   17 1  
    23   14   15 1  
    24   18   14 1  
    25   15   16 2  
    26   17   16 1  
    27   18   19 1  
    28   24   23 ar 
    29   24   25 ar 
    30   25   26 ar 
    31   26   27 ar 
    32   28   29 1  
    33   29   30 1  
    34   29   33 1  
    35   30   31 1  
    36   31   32 1  
    37   32   33 1  
    38    1   34 1  
    39    4   35 1  
    40    5   36 1  
    41    6   37 1  
    42    8   38 1  
    43    8   39 1  
    44   12   40 1  
    45   15   41 1  
    46   16   42 1  
    47   19   43 1  
    48   19   44 1  
    49   19   45 1  
    50   21   46 1  
    51   23   47 1  
    52   24   48 1  
    53   26   49 1  
    54   27   50 1  
    55   28   51 1  
    56   28   52 1  
    57   29   53 1  
    58   30   54 1  
    59   30   55 1  
    60   31   56 1  
    61   31   57 1  
    62   32   58 1  
    63   32   59 1  
    64   33   60 1  
    65   33   61 1  
@<TRIPOS>SUBSTRUCTURE
     1 6W1         1

