### 
### Created by X-TOOL on Wed Jan  1 15:39:35 2020
### 

@<TRIPOS>MOLECULE
5lh4_ligand
   75    80     1     0     0
SMALL
GAST_HUCK


@<TRIPOS>ATOM
      1 N1         25.1000   10.2920   20.2290 N.pl3     1 6W4        -0.1760
      2 N3         24.1160    8.9220   18.8190 N.2       1 6W4        -0.2262
      3 C4         23.6160    8.7350   20.1370 C.2       1 6W4         0.0400
      4 C5         24.2400    9.5940   20.9550 C.2       1 6W4         0.0700
      5 C7         22.5440    7.7030   20.4040 C.3       1 6W4        -0.0064
      6 C15        26.0300   11.3090   20.6620 C.3       1 6W4         0.1106
      7 C17        27.1910   11.5670   19.6760 C.3       1 6W4         0.0693
      8 C21        27.9900   11.8710   21.9330 C.3       1 6W4         0.1362
      9 C26        29.2170   11.1790   22.4610 C.2       1 6W4         0.2022
     10 N2         25.0150    9.9020   18.9500 N.2       1 6W4        -0.1016
     11 C9         22.8760    6.6200   21.4560 C.3       1 6W4        -0.0418
     12 C12        21.7760    7.6660   21.7420 C.3       1 6W4        -0.0418
     13 N20        28.0870   12.2900   20.5620 N.am      1 6W4        -0.2487
     14 C23        26.8250   10.8570   21.8980 C.3       1 6W4         0.0229
     15 O27        29.7210   10.2130   21.8900 O.2       1 6W4        -0.3945
     16 N28        29.6530   11.6930   23.6230 N.am      1 6W4        -0.2809
     17 C30        30.6790   11.0410   24.4330 C.3       1 6W4         0.0525
     18 C33        29.9620   10.9290   25.8160 C.3       1 6W4         0.0456
     19 C35        28.5650   10.2730   25.7460 C.ar      1 6W4        -0.0269
     20 C36        28.2860    9.1070   25.0180 C.ar      1 6W4        -0.0580
     21 C38        26.9720    8.6260   24.9040 C.ar      1 6W4        -0.0682
     22 C40        25.9400    9.2950   25.5810 C.ar      1 6W4        -0.0685
     23 C42        26.1950   10.4730   26.2790 C.ar      1 6W4        -0.0682
     24 C44        27.4980   10.9580   26.3450 C.ar      1 6W4        -0.0580
     25 C46        30.8400   10.2950   26.9080 C.ar      1 6W4        -0.0269
     26 C47        31.8570   11.0640   27.4850 C.ar      1 6W4        -0.0580
     27 C49        32.6810   10.5280   28.4890 C.ar      1 6W4        -0.0682
     28 C51        32.4330    9.2320   28.9510 C.ar      1 6W4        -0.0685
     29 C53        31.3950    8.4650   28.4060 C.ar      1 6W4        -0.0682
     30 C55        30.5970    8.9980   27.3830 C.ar      1 6W4        -0.0580
     31 C57        28.8420   13.3870   20.2910 C.2       1 6W4         0.2047
     32 O58        29.4320   14.0040   21.1810 O.2       1 6W4        -0.3875
     33 C59        28.9450   13.9590   18.8960 C.ar      1 6W4         0.0431
     34 C60        29.0890   13.0900   17.7920 C.ar      1 6W4        -0.0483
     35 C62        29.1880   13.6160   16.4930 C.ar      1 6W4        -0.0494
     36 C64        29.1100   15.0030   16.3050 C.ar      1 6W4         0.0060
     37 C65        28.9590   15.8750   17.3970 C.ar      1 6W4        -0.0494
     38 C67        28.9080   15.3410   18.7020 C.ar      1 6W4        -0.0483
     39 C69        29.1670   15.5670   14.8820 C.3       1 6W4         0.0005
     40 N72        30.5220   15.4890   14.3390 N.4       1 6W4         0.2315
     41 H1         24.0702    9.6992   22.0255 H         1 6W4         0.0899
     42 H2         22.0223    7.4504   19.4691 H         1 6W4         0.0415
     43 H3         25.4710   12.2354   20.8601 H         1 6W4         0.0707
     44 H4         26.8755   12.1801   18.8190 H         1 6W4         0.0556
     45 H5         27.6385   10.6304   19.3119 H         1 6W4         0.0556
     46 H6         27.7559   12.7306   22.5782 H         1 6W4         0.0802
     47 H7         23.8287    6.6594   22.0045 H         1 6W4         0.0285
     48 H8         22.6027    5.5708   21.2707 H         1 6W4         0.0285
     49 H9         20.7192    7.3612   21.7611 H         1 6W4         0.0285
     50 H10        21.9452    8.4499   22.4949 H         1 6W4         0.0285
     51 H11        27.1963    9.8285   21.7780 H         1 6W4         0.0345
     52 H12        26.2135   10.9220   22.8100 H         1 6W4         0.0345
     53 H13        29.2605   12.5543   23.9456 H         1 6W4         0.1855
     54 H14        31.5882   11.6564   24.5008 H         1 6W4         0.0568
     55 H15        30.9364   10.0493   24.0328 H         1 6W4         0.0568
     56 H16        29.7869   11.9660   26.1384 H         1 6W4         0.0638
     57 H17        29.0957    8.5702   24.5370 H         1 6W4         0.0561
     58 H18        26.7573    7.7506   24.3018 H         1 6W4         0.0600
     59 H19        24.9345    8.8906   25.5603 H         1 6W4         0.0561
     60 H20        25.3869   11.0067   26.7659 H         1 6W4         0.0600
     61 H21        27.6923   11.8857   26.8710 H         1 6W4         0.0561
     62 H22        32.0108   12.0846   27.1536 H         1 6W4         0.0561
     63 H23        33.4974   11.1111   28.8995 H         1 6W4         0.0600
     64 H24        33.0503    8.8162   29.7391 H         1 6W4         0.0561
     65 H25        31.2091    7.4624   28.7739 H         1 6W4         0.0600
     66 H26        29.7926    8.4075   26.9596 H         1 6W4         0.0561
     67 H27        29.1231   12.0177   17.9468 H         1 6W4         0.0652
     68 H28        29.3234   12.9556   15.6441 H         1 6W4         0.0572
     69 H29        28.8827   16.9446   17.2385 H         1 6W4         0.0572
     70 H30        28.8399   16.0053   19.5559 H         1 6W4         0.0652
     71 H31        28.8470   16.6193   14.8995 H         1 6W4         0.0990
     72 H32        28.4883   14.9880   14.2386 H         1 6W4         0.0990
     73 H33        30.5315   15.8657   13.4041 H         1 6W4         0.2009
     74 H34        30.8200   14.5263   14.3164 H         1 6W4         0.2009
     75 H35        31.1488   16.0212   14.9220 H         1 6W4         0.2009
@<TRIPOS>BOND
     1    1    4 1  
     2    6    1 1  
     3    1   10 1  
     4    2    3 1  
     5   10    2 2  
     6    4    3 2  
     7    3    5 1  
     8    5   11 1  
     9    5   12 1  
    10    7    6 1  
    11    6   14 1  
    12   13    7 1  
    13    8    9 1  
    14    8   13 1  
    15    8   14 1  
    16    9   15 2  
    17    9   16 am 
    18   11   12 1  
    19   13   31 am 
    20   16   17 1  
    21   17   18 1  
    22   18   19 1  
    23   18   25 1  
    24   19   20 ar 
    25   19   24 ar 
    26   20   21 ar 
    27   21   22 ar 
    28   22   23 ar 
    29   23   24 ar 
    30   25   26 ar 
    31   25   30 ar 
    32   26   27 ar 
    33   27   28 ar 
    34   28   29 ar 
    35   29   30 ar 
    36   31   32 2  
    37   31   33 1  
    38   33   34 ar 
    39   33   38 ar 
    40   34   35 ar 
    41   35   36 ar 
    42   36   37 ar 
    43   36   39 1  
    44   37   38 ar 
    45   39   40 1  
    46    4   41 1  
    47    5   42 1  
    48    6   43 1  
    49    7   44 1  
    50    7   45 1  
    51    8   46 1  
    52   11   47 1  
    53   11   48 1  
    54   12   49 1  
    55   12   50 1  
    56   14   51 1  
    57   14   52 1  
    58   16   53 1  
    59   17   54 1  
    60   17   55 1  
    61   18   56 1  
    62   20   57 1  
    63   21   58 1  
    64   22   59 1  
    65   23   60 1  
    66   24   61 1  
    67   26   62 1  
    68   27   63 1  
    69   28   64 1  
    70   29   65 1  
    71   30   66 1  
    72   34   67 1  
    73   35   68 1  
    74   37   69 1  
    75   38   70 1  
    76   39   71 1  
    77   39   72 1  
    78   40   73 1  
    79   40   74 1  
    80   40   75 1  
@<TRIPOS>SUBSTRUCTURE
     1 6W4         1

