### 
### Created by X-TOOL on Mon Sep 10 21:13:26 2018
### 

@<TRIPOS>MOLECULE
5lh8_ligand
   79    84     1     0     0
SMALL
GAST_HUCK


@<TRIPOS>ATOM
      1 C43        31.9260   11.5250   24.6870 C.3       1 6WH        -0.0278
      2 C46        28.3580   10.1490   25.6600 C.ar      1 6WH        -0.0378
      3 C47        28.0530    8.9510   24.9840 C.ar      1 6WH        -0.0600
      4 C49        26.7070    8.5860   24.8330 C.ar      1 6WH        -0.0686
      5 C51        25.6280    9.3790   25.3100 C.ar      1 6WH        -0.0687
      6 C53        25.9270   10.6090   25.9030 C.ar      1 6WH        -0.0686
      7 C55        27.2850   10.9560   26.0760 C.ar      1 6WH        -0.0600
      8 C57        28.6610   13.6010   20.2200 C.2       1 6WH         0.2022
      9 C59        28.7000   14.1400   18.8260 C.ar      1 6WH         0.0343
     10 C60        28.9010   13.2500   17.7610 C.ar      1 6WH        -0.0197
     11 C12        23.1180    6.3860   21.2200 C.3       1 6WH        -0.0418
     12 C15        26.0660   11.4790   20.7040 C.3       1 6WH         0.1106
     13 C17        27.2050   11.6590   19.6440 C.3       1 6WH         0.0693
     14 C21        28.0420   12.0900   21.9390 C.3       1 6WH         0.1362
     15 C23        26.7520   11.2150   22.0390 C.3       1 6WH         0.0229
     16 C26        29.1740   11.2480   22.4240 C.2       1 6WH         0.2023
     17 C30        30.5180   10.9170   24.4700 C.3       1 6WH         0.0543
     18 N1         25.1280   10.3970   20.3600 N.pl3     1 6WH        -0.1760
     19 N2         24.9010   10.0820   19.0750 N.2       1 6WH        -0.1016
     20 N3         24.0290    9.0830   18.9840 N.2       1 6WH        -0.2262
     21 C4         23.6880    8.7960   20.3500 C.2       1 6WH         0.0400
     22 C5         24.3980    9.6090   21.1500 C.2       1 6WH         0.0700
     23 C7         22.6510    7.7020   20.5650 C.3       1 6WH        -0.0064
     24 C9         22.1760    7.3360   21.9900 C.3       1 6WH        -0.0418
     25 N20        28.0200   12.4530   20.5370 N.am      1 6WH        -0.2488
     26 O27        29.6260   10.3070   21.7790 O.2       1 6WH        -0.3945
     27 N28        29.5350   11.6420   23.6430 N.am      1 6WH        -0.2798
     28 C32        29.7890   10.7180   25.8570 C.3       1 6WH         0.0156
     29 C34        30.5460    9.7510   26.8000 C.3       1 6WH        -0.0383
     30 C37        31.9460   10.3510   27.0570 C.3       1 6WH        -0.0509
     31 C40        32.7260   10.6980   25.7470 C.3       1 6WH        -0.0507
     32 O58        29.2220   14.2650   21.0890 O.2       1 6WH        -0.3875
     33 C62        28.9620   13.8000   16.4790 C.ar      1 6WH         0.1030
     34 C63        28.7580   15.1780   16.2690 C.ar      1 6WH         0.0353
     35 C64        28.5470   16.0470   17.3360 C.ar      1 6WH        -0.0575
     36 C66        28.4910   15.5250   18.6450 C.ar      1 6WH        -0.0593
     37 C68        28.7910   15.7320   14.8450 C.3       1 6WH        -0.0009
     38 N71        30.1020   15.4800   14.2050 N.4       1 6WH         0.2300
     39 O74        29.1690   13.0370   15.3480 O.3       1 6WH        -0.3237
     40 C75        29.4960   11.6300   15.5170 C.3       1 6WH         0.0578
     41 H1         31.8216   12.5613   25.0409 H         1 6WH         0.0289
     42 H2         32.4742   11.5166   23.7334 H         1 6WH         0.0289
     43 H3         28.8433    8.3234   24.5882 H         1 6WH         0.0557
     44 H4         26.4787    7.6543   24.3282 H         1 6WH         0.0599
     45 H5         24.6027    9.0396   25.2166 H         1 6WH         0.0559
     46 H6         25.1369   11.2792   26.2218 H         1 6WH         0.0599
     47 H7         27.5132   11.8999   26.5578 H         1 6WH         0.0557
     48 H8         29.0043   12.1836   17.9256 H         1 6WH         0.0570
     49 H9         24.1645    6.2720   21.5391 H         1 6WH         0.0285
     50 H10        22.7415    5.4223   20.8465 H         1 6WH         0.0285
     51 H11        25.4924   12.4152   20.7716 H         1 6WH         0.0707
     52 H12        26.8827   12.2054   18.7454 H         1 6WH         0.0556
     53 H13        27.6787   10.7117   19.3470 H         1 6WH         0.0556
     54 H14        27.9811   12.9950   22.5613 H         1 6WH         0.0802
     55 H15        27.0026   10.1500   22.1528 H         1 6WH         0.0345
     56 H16        26.1197   11.5348   22.8803 H         1 6WH         0.0345
     57 H17        30.6776    9.9346   24.0016 H         1 6WH         0.0581
     58 H18        24.3806    9.6220   22.2388 H         1 6WH         0.0899
     59 H19        21.9363    7.6931   19.7289 H         1 6WH         0.0415
     60 H20        22.5513    7.8997   22.8568 H         1 6WH         0.0285
     61 H21        21.1282    7.0500   22.1643 H         1 6WH         0.0285
     62 H22        29.1190   12.4710   24.0169 H         1 6WH         0.1857
     63 H23        29.7185   11.7010   26.3456 H         1 6WH         0.0484
     64 H24        30.6425    8.7632   26.3258 H         1 6WH         0.0291
     65 H25        30.0009    9.6500   27.7501 H         1 6WH         0.0291
     66 H26        32.5370    9.6224   27.6314 H         1 6WH         0.0267
     67 H27        31.8272   11.2725   27.6458 H         1 6WH         0.0267
     68 H28        33.6178   11.2780   26.0269 H         1 6WH         0.0266
     69 H29        33.0358    9.7532   25.2765 H         1 6WH         0.0266
     70 H30        28.4274   17.1104   17.1631 H         1 6WH         0.0541
     71 H31        28.2923   16.1715   19.4921 H         1 6WH         0.0560
     72 H32        28.6096   16.8164   14.8772 H         1 6WH         0.0965
     73 H33        28.0024   15.2457   14.2520 H         1 6WH         0.0965
     74 H34        30.0966   15.8546   13.2692 H         1 6WH         0.2007
     75 H35        30.2728   14.4873   14.1685 H         1 6WH         0.2007
     76 H36        30.8292   15.9266   14.7414 H         1 6WH         0.2007
     77 H37        29.6297   11.1635   14.5298 H         1 6WH         0.0574
     78 H38        28.6788   11.1254   16.0532 H         1 6WH         0.0574
     79 H39        30.4268   11.5368   16.0957 H         1 6WH         0.0574
@<TRIPOS>BOND
     1   17    1 1  
     2    1   31 1  
     3    2    3 ar 
     4    2    7 ar 
     5   28    2 1  
     6    3    4 ar 
     7    4    5 ar 
     8    6    5 ar 
     9    7    6 ar 
    10    8    9 1  
    11   25    8 am 
    12    8   32 2  
    13    9   10 ar 
    14    9   36 ar 
    15   10   33 ar 
    16   23   11 1  
    17   11   24 1  
    18   12   13 1  
    19   12   15 1  
    20   18   12 1  
    21   13   25 1  
    22   15   14 1  
    23   14   16 1  
    24   14   25 1  
    25   16   26 2  
    26   16   27 am 
    27   27   17 1  
    28   17   28 1  
    29   18   19 1  
    30   22   18 1  
    31   20   19 2  
    32   21   20 1  
    33   21   22 2  
    34   21   23 1  
    35   23   24 1  
    36   28   29 1  
    37   29   30 1  
    38   30   31 1  
    39   33   34 ar 
    40   33   39 1  
    41   34   35 ar 
    42   34   37 1  
    43   35   36 ar 
    44   37   38 1  
    45   39   40 1  
    46    1   41 1  
    47    1   42 1  
    48    3   43 1  
    49    4   44 1  
    50    5   45 1  
    51    6   46 1  
    52    7   47 1  
    53   10   48 1  
    54   11   49 1  
    55   11   50 1  
    56   12   51 1  
    57   13   52 1  
    58   13   53 1  
    59   14   54 1  
    60   15   55 1  
    61   15   56 1  
    62   17   57 1  
    63   22   58 1  
    64   23   59 1  
    65   24   60 1  
    66   24   61 1  
    67   27   62 1  
    68   28   63 1  
    69   29   64 1  
    70   29   65 1  
    71   30   66 1  
    72   30   67 1  
    73   31   68 1  
    74   31   69 1  
    75   35   70 1  
    76   36   71 1  
    77   37   72 1  
    78   37   73 1  
    79   38   74 1  
    80   38   75 1  
    81   38   76 1  
    82   40   77 1  
    83   40   78 1  
    84   40   79 1  
@<TRIPOS>SUBSTRUCTURE
     1 6WH         1

