### 
### Created by X-TOOL on Mon Sep 10 21:13:31 2018
### 

@<TRIPOS>MOLECULE
5lhg_ligand
   64    68     1     0     0
SMALL
GAST_HUCK


@<TRIPOS>ATOM
      1 C13         8.1730  -52.2180  -39.3670 C.ar      1 6X3         0.0589
      2 C15         7.8770  -51.9220  -41.7320 C.ar      1 6X3        -0.0707
      3 C16         8.9780  -51.0810  -41.7560 C.ar      1 6X3        -0.0278
      4 C01         5.5030  -56.3250  -37.1880 C.3       1 6X3         0.0379
      5 C17         9.6710  -50.8000  -40.5900 C.ar      1 6X3        -0.0707
      6 C19         9.4290  -50.4460  -43.0750 C.3       1 6X3         0.0953
      7 C21         8.9670  -48.1160  -42.9970 C.ar      1 6X3         0.0822
      8 N02         6.2250  -55.5490  -36.1980 N.pl3     1 6X3        -0.2716
      9 C03         6.0360  -55.6510  -34.8670 C.2       1 6X3         0.0562
     10 C04         5.1990  -56.4280  -34.0360 C.2       1 6X3        -0.0474
     11 C05         5.3400  -56.2060  -32.6850 C.2       1 6X3        -0.0148
     12 S06         6.5600  -54.9820  -32.5460 S.3       1 6X3        -0.0656
     13 C07         6.8850  -54.7700  -34.2380 C.2       1 6X3         0.0280
     14 C08         7.6040  -54.1220  -35.2490 C.2       1 6X3        -0.0416
     15 C09         7.1550  -54.6520  -36.4590 C.2       1 6X3         0.1271
     16 C10         7.6600  -54.2260  -37.8420 C.2       1 6X3         0.2416
     17 O11         7.9730  -55.0210  -38.6640 O.2       1 6X3        -0.3810
     18 N12         7.7330  -52.7990  -38.1070 N.am      1 6X3        -0.2380
     19 C14         7.4710  -52.4860  -40.5310 C.ar      1 6X3        -0.0473
     20 C18         9.2690  -51.3710  -39.3940 C.ar      1 6X3        -0.0473
     21 O20         9.8930  -49.1560  -42.7740 O.3       1 6X3        -0.3151
     22 C22         7.6000  -48.3470  -42.9120 C.ar      1 6X3        -0.0413
     23 C23         6.7000  -47.3100  -43.1310 C.ar      1 6X3        -0.0415
     24 C24         7.1670  -46.0380  -43.4300 C.ar      1 6X3         0.0801
     25 C25         8.5350  -45.8090  -43.5100 C.ar      1 6X3        -0.0415
     26 C26         9.4340  -46.8440  -43.2930 C.ar      1 6X3        -0.0413
     27 O27         6.2530  -44.9900  -43.6500 O.3       1 6X3        -0.3216
     28 C28         6.7810  -44.0860  -44.5900 C.3       1 6X3         0.0885
     29 C29         5.9580  -44.0710  -45.7700 C.3       1 6X3         0.0180
     30 C30         6.4980  -43.0780  -46.8000 C.3       1 6X3        -0.0294
     31 N31         6.7160  -41.7670  -46.2490 N.4       1 6X3         0.2332
     32 C32         7.4510  -41.7770  -45.0130 C.3       1 6X3        -0.0294
     33 C33         6.8800  -42.7740  -44.0050 C.3       1 6X3         0.0180
     34 C34         7.2940  -41.0780  -47.0590 C.3       1 6X3        -0.0431
     35 H1          7.3360  -52.1380  -42.6462 H         1 6X3         0.0521
     36 H2          4.7899  -56.9924  -36.6819 H         1 6X3         0.0564
     37 H3          6.2147  -56.9253  -37.7737 H         1 6X3         0.0564
     38 H4          4.9567  -55.6459  -37.8591 H         1 6X3         0.0564
     39 H5         10.5263  -50.1345  -40.6136 H         1 6X3         0.0521
     40 H6          8.5826  -50.3888  -43.7752 H         1 6X3         0.0745
     41 H7         10.2368  -51.0423  -43.5242 H         1 6X3         0.0745
     42 H8          4.4913  -57.1524  -34.4364 H         1 6X3         0.0411
     43 H9          4.8001  -56.6951  -31.8756 H         1 6X3         0.0703
     44 H10         8.3650  -53.3543  -35.1170 H         1 6X3         0.0373
     45 H11         7.4628  -52.1742  -37.3745 H         1 6X3         0.2223
     46 H12         6.6043  -53.1365  -40.5035 H         1 6X3         0.0487
     47 H13         9.8111  -51.1555  -38.4804 H         1 6X3         0.0487
     48 H14         7.2336  -49.3391  -42.6741 H         1 6X3         0.0516
     49 H15         5.6338  -47.4952  -43.0682 H         1 6X3         0.0516
     50 H16         8.9024  -44.8162  -43.7433 H         1 6X3         0.0516
     51 H17        10.5002  -46.6583  -43.3548 H         1 6X3         0.0516
     52 H18         7.7905  -44.4188  -44.8730 H         1 6X3         0.0649
     53 H19         4.9345  -43.7799  -45.4914 H         1 6X3         0.0346
     54 H20         5.9452  -45.0778  -46.2129 H         1 6X3         0.0346
     55 H21         5.7735  -42.9970  -47.6237 H         1 6X3         0.0815
     56 H22         7.4538  -43.4594  -47.1885 H         1 6X3         0.0815
     57 H23         5.8135  -41.3571  -46.0659 H         1 6X3         0.2030
     58 H24         7.4157  -40.7697  -44.5726 H         1 6X3         0.0815
     59 H25         8.4957  -42.0480  -45.2252 H         1 6X3         0.0815
     60 H26         7.5409  -42.8187  -43.1268 H         1 6X3         0.0346
     61 H27         5.8790  -42.4404  -43.6940 H         1 6X3         0.0346
     62 H28         6.7304  -41.0716  -48.0036 H         1 6X3         0.0777
     63 H29         8.3004  -41.4854  -47.2354 H         1 6X3         0.0777
     64 H30         7.3765  -40.0508  -46.6743 H         1 6X3         0.0777
@<TRIPOS>BOND
     1   18    1 1  
     2    1   19 ar 
     3    1   20 ar 
     4    2    3 ar 
     5   19    2 ar 
     6    5    3 ar 
     7    3    6 1  
     8    8    4 1  
     9   20    5 ar 
    10    6   21 1  
    11   21    7 1  
    12    7   22 ar 
    13    7   26 ar 
    14    8    9 1  
    15   15    8 1  
    16    9   10 1  
    17   13    9 2  
    18   10   11 2  
    19   12   11 1  
    20   13   12 1  
    21   14   13 1  
    22   15   14 2  
    23   16   15 1  
    24   16   17 2  
    25   16   18 am 
    26   22   23 ar 
    27   23   24 ar 
    28   24   25 ar 
    29   24   27 1  
    30   25   26 ar 
    31   27   28 1  
    32   28   29 1  
    33   28   33 1  
    34   29   30 1  
    35   30   31 1  
    36   31   32 1  
    37   31   34 1  
    38   32   33 1  
    39    2   35 1  
    40    4   36 1  
    41    4   37 1  
    42    4   38 1  
    43    5   39 1  
    44    6   40 1  
    45    6   41 1  
    46   10   42 1  
    47   11   43 1  
    48   14   44 1  
    49   18   45 1  
    50   19   46 1  
    51   20   47 1  
    52   22   48 1  
    53   23   49 1  
    54   25   50 1  
    55   26   51 1  
    56   28   52 1  
    57   29   53 1  
    58   29   54 1  
    59   30   55 1  
    60   30   56 1  
    61   31   57 1  
    62   32   58 1  
    63   32   59 1  
    64   33   60 1  
    65   33   61 1  
    66   34   62 1  
    67   34   63 1  
    68   34   64 1  
@<TRIPOS>SUBSTRUCTURE
     1 6X3         1

