### 
### Created by X-TOOL on Mon Sep 10 21:13:31 2018
### 

@<TRIPOS>MOLECULE
5lhh_ligand
   68    72     1     0     0
SMALL
GAST_HUCK


@<TRIPOS>ATOM
      1 C01       -65.3600  -34.7160  -37.5910 C.3       1 6X0        -0.0385
      2 C02       -66.3730  -33.8700  -36.8980 C.3       1 6X0         0.0465
      3 N03       -67.0490  -34.6620  -35.8660 N.pl3     1 6X0        -0.2691
      4 C04       -66.8150  -34.5710  -34.5700 C.2       1 6X0         0.0564
      5 C05       -65.9390  -33.7840  -33.7760 C.2       1 6X0        -0.0474
      6 C06       -66.0500  -34.0500  -32.4240 C.2       1 6X0        -0.0148
      7 S07       -67.2720  -35.2970  -32.2250 S.3       1 6X0        -0.0656
      8 C08       -67.6350  -35.4680  -33.9130 C.2       1 6X0         0.0280
      9 C09       -68.3990  -36.1260  -34.8800 C.2       1 6X0        -0.0416
     10 C10       -68.0060  -35.5820  -36.0780 C.2       1 6X0         0.1273
     11 C11       -68.5920  -36.0470  -37.4080 C.2       1 6X0         0.2414
     12 O12       -68.6280  -35.3960  -38.3390 O.2       1 6X0        -0.3810
     13 N13       -69.0990  -37.4230  -37.3750 N.am      1 6X0        -0.2387
     14 C14       -69.7050  -38.1640  -38.5460 C.ar      1 6X0         0.0639
     15 C15       -70.4090  -37.5230  -39.6150 C.ar      1 6X0        -0.0541
     16 C16       -70.9340  -38.3100  -40.6680 C.ar      1 6X0        -0.0885
     17 C17       -70.7690  -39.6910  -40.6540 C.ar      1 6X0        -0.0796
     18 C18       -70.0550  -40.3290  -39.5620 C.ar      1 6X0        -0.0262
     19 C19       -69.5290  -39.5270  -38.5220 C.ar      1 6X0         0.0119
     20 C20       -68.7460  -40.1080  -37.2880 C.3       1 6X0         0.0955
     21 O21       -67.3450  -40.1040  -37.5080 O.3       1 6X0        -0.3165
     22 C22       -66.5660  -39.5660  -36.3750 C.ar      1 6X0         0.0819
     23 C23       -66.8120  -40.0100  -35.0590 C.ar      1 6X0        -0.0413
     24 C24       -66.0470  -39.4770  -33.9600 C.ar      1 6X0        -0.0415
     25 C25       -65.0690  -38.5320  -34.1810 C.ar      1 6X0         0.0800
     26 C26       -64.8190  -38.0820  -35.5010 C.ar      1 6X0        -0.0415
     27 C27       -65.5770  -38.6100  -36.5990 C.ar      1 6X0        -0.0413
     28 O28       -64.3390  -38.0230  -33.1100 O.3       1 6X0        -0.3235
     29 C29       -63.7380  -36.8030  -33.3610 C.3       1 6X0         0.0758
     30 C30       -63.1100  -36.2150  -32.0210 C.3       1 6X0         0.0133
     31 C31       -61.8300  -35.2850  -32.3960 C.2       1 6X0        -0.0868
     32 C32       -60.9250  -35.4080  -31.4180 C.2       1 6X0        -0.0198
     33 N33       -61.2950  -36.7100  -30.6470 N.pl3     1 6X0        -0.3371
     34 C34       -62.6490  -37.2050  -31.2540 C.3       1 6X0         0.0300
     35 C35       -69.8670  -41.8400  -39.5420 C.3       1 6X0         0.0755
     36 O36       -70.6280  -42.4050  -38.4630 O.3       1 6X0        -0.3722
     37 C37       -69.8560  -43.2910  -37.5780 C.3       1 6X0         0.0388
     38 H1        -64.8532  -34.1211  -38.3651 H         1 6X0         0.0256
     39 H2        -65.8596  -35.5771  -38.0588 H         1 6X0         0.0256
     40 H3        -64.6196  -35.0740  -36.8605 H         1 6X0         0.0256
     41 H4        -67.1132  -33.5120  -37.6287 H         1 6X0         0.0598
     42 H5        -65.8732  -33.0089  -36.4303 H         1 6X0         0.0598
     43 H6        -65.2514  -33.0476  -34.1893 H         1 6X0         0.0411
     44 H7        -65.4826  -33.5729  -31.6263 H         1 6X0         0.0703
     45 H8        -69.1451  -36.9026  -34.7186 H         1 6X0         0.0373
     46 H9        -69.0389  -37.9124  -36.5050 H         1 6X0         0.2222
     47 H10       -70.5386  -36.4468  -39.6181 H         1 6X0         0.0428
     48 H11       -71.4649  -37.8361  -41.4857 H         1 6X0         0.0505
     49 H12       -71.1742  -40.2923  -41.4598 H         1 6X0         0.0415
     50 H13       -69.0762  -41.1422  -37.1107 H         1 6X0         0.0727
     51 H14       -68.9697  -39.4947  -36.4027 H         1 6X0         0.0727
     52 H15       -67.5783  -40.7540  -34.8738 H         1 6X0         0.0516
     53 H16       -66.2427  -39.8224  -32.9513 H         1 6X0         0.0516
     54 H17       -64.0529  -37.3367  -35.6819 H         1 6X0         0.0516
     55 H18       -65.3795  -38.2638  -37.6071 H         1 6X0         0.0516
     56 H19       -64.4900  -36.1002  -33.7490 H         1 6X0         0.0628
     57 H20       -62.9414  -36.9368  -34.1076 H         1 6X0         0.0628
     58 H21       -63.8674  -35.6307  -31.4780 H         1 6X0         0.0422
     59 H22       -61.7271  -34.6690  -33.2881 H         1 6X0         0.0266
     60 H23       -60.0969  -34.7339  -31.2042 H         1 6X0         0.0747
     61 H24       -60.7566  -37.1552  -29.8901 H         1 6X0         0.1730
     62 H25       -62.4852  -38.1087  -31.8593 H         1 6X0         0.0530
     63 H26       -63.3661  -37.4271  -30.4500 H         1 6X0         0.0530
     64 H27       -68.8016  -42.0747  -39.4010 H         1 6X0         0.0705
     65 H28       -70.2129  -42.2648  -40.4959 H         1 6X0         0.0705
     66 H29       -70.5116  -43.6779  -36.7840 H         1 6X0         0.0526
     67 H30       -69.0270  -42.7264  -37.1264 H         1 6X0         0.0526
     68 H31       -69.4522  -44.1313  -38.1619 H         1 6X0         0.0526
@<TRIPOS>BOND
     1    1    2 1  
     2    2    3 1  
     3    3    4 1  
     4    3   10 1  
     5    4    5 1  
     6    4    8 2  
     7    5    6 2  
     8    6    7 1  
     9    7    8 1  
    10    8    9 1  
    11    9   10 2  
    12   10   11 1  
    13   11   12 2  
    14   11   13 am 
    15   13   14 1  
    16   14   15 ar 
    17   14   19 ar 
    18   15   16 ar 
    19   16   17 ar 
    20   17   18 ar 
    21   18   19 ar 
    22   18   35 1  
    23   19   20 1  
    24   20   21 1  
    25   21   22 1  
    26   22   23 ar 
    27   22   27 ar 
    28   23   24 ar 
    29   24   25 ar 
    30   25   26 ar 
    31   25   28 1  
    32   26   27 ar 
    33   28   29 1  
    34   29   30 1  
    35   30   31 1  
    36   30   34 1  
    37   31   32 2  
    38   32   33 1  
    39   33   34 1  
    40   35   36 1  
    41   36   37 1  
    42    1   38 1  
    43    1   39 1  
    44    1   40 1  
    45    2   41 1  
    46    2   42 1  
    47    5   43 1  
    48    6   44 1  
    49    9   45 1  
    50   13   46 1  
    51   15   47 1  
    52   16   48 1  
    53   17   49 1  
    54   20   50 1  
    55   20   51 1  
    56   23   52 1  
    57   24   53 1  
    58   26   54 1  
    59   27   55 1  
    60   29   56 1  
    61   29   57 1  
    62   30   58 1  
    63   31   59 1  
    64   32   60 1  
    65   33   61 1  
    66   34   62 1  
    67   34   63 1  
    68   35   64 1  
    69   35   65 1  
    70   37   66 1  
    71   37   67 1  
    72   37   68 1  
@<TRIPOS>SUBSTRUCTURE
     1 6X0         1

