### 
### Created by X-TOOL on Mon Sep 10 21:13:33 2018
### 

@<TRIPOS>MOLECULE
5lhi_ligand
   71    75     1     0     0
SMALL
GAST_HUCK


@<TRIPOS>ATOM
      1 C01         8.3310  -45.5580  -36.8710 C.3       1 6X5        -0.0414
      2 C02         8.1530  -46.0070  -38.3320 C.3       1 6X5         0.0472
      3 O03         9.1590  -46.9170  -38.6700 O.3       1 6X5        -0.3692
      4 C04         8.8620  -47.6800  -39.8590 C.3       1 6X5         0.0758
      5 C05         9.4320  -49.1020  -39.7010 C.ar      1 6X5        -0.0262
      6 C06        10.5390  -49.5010  -40.4370 C.ar      1 6X5        -0.0796
      7 C07        11.0670  -50.8340  -40.2830 C.ar      1 6X5        -0.0885
      8 C08        10.4730  -51.7210  -39.3950 C.ar      1 6X5        -0.0541
      9 C09         9.3280  -51.3140  -38.6490 C.ar      1 6X5         0.0639
     10 C10         8.8200  -50.0070  -38.7850 C.ar      1 6X5         0.0119
     11 C11         7.5640  -49.5490  -37.9640 C.3       1 6X5         0.0955
     12 O12         7.7500  -49.8140  -36.5500 O.3       1 6X5        -0.3165
     13 C13         6.6510  -50.4510  -35.9150 C.ar      1 6X5         0.0819
     14 C14         5.8880  -51.3660  -36.5990 C.ar      1 6X5        -0.0413
     15 C15         4.7990  -52.0070  -35.9590 C.ar      1 6X5        -0.0415
     16 C16         4.4950  -51.7070  -34.6200 C.ar      1 6X5         0.0798
     17 C17         5.2560  -50.7970  -33.9350 C.ar      1 6X5        -0.0415
     18 C18         6.3470  -50.1570  -34.5780 C.ar      1 6X5        -0.0413
     19 O19         3.4230  -52.3420  -33.9930 O.3       1 6X5        -0.3247
     20 C20         2.9740  -51.6930  -32.8290 C.3       1 6X5         0.0758
     21 C21         2.6990  -52.7810  -31.7200 C.3       1 6X5         0.0313
     22 C22         2.9580  -54.2130  -32.3010 C.3       1 6X5        -0.0025
     23 C23         1.5600  -54.9600  -32.1990 C.3       1 6X5        -0.0331
     24 N24         0.8720  -54.2930  -31.2560 N.4       1 6X5         0.2272
     25 C25         1.3850  -52.7400  -31.3560 C.3       1 6X5        -0.0281
     26 N26         8.6690  -52.2250  -37.6580 N.am      1 6X5        -0.2387
     27 C27         8.6250  -53.6910  -37.6470 C.2       1 6X5         0.2414
     28 O28         9.1400  -54.3800  -38.4970 O.2       1 6X5        -0.3810
     29 C29         7.8810  -54.2930  -36.4440 C.2       1 6X5         0.1271
     30 C30         8.1350  -53.8810  -35.1130 C.2       1 6X5        -0.0416
     31 C31         7.2930  -54.6090  -34.2830 C.2       1 6X5         0.0280
     32 C32         6.5600  -55.4260  -35.1330 C.2       1 6X5         0.0562
     33 N33         6.9440  -55.2000  -36.4150 N.pl3     1 6X5        -0.2716
     34 C34         6.3860  -55.8850  -37.5830 C.3       1 6X5         0.0379
     35 C35         5.6260  -56.2630  -34.4890 C.2       1 6X5        -0.0474
     36 C36         5.5680  -56.1580  -33.1050 C.2       1 6X5        -0.0148
     37 S37         6.7460  -54.9490  -32.6590 S.3       1 6X5        -0.0656
     38 H1          7.5381  -44.8422  -36.6082 H         1 6X5         0.0252
     39 H2          9.3131  -45.0771  -36.7522 H         1 6X5         0.0252
     40 H3          8.2689  -46.4336  -36.2081 H         1 6X5         0.0252
     41 H4          8.2148  -45.1308  -38.9942 H         1 6X5         0.0559
     42 H5          7.1705  -46.4873  -38.4500 H         1 6X5         0.0559
     43 H6          9.3211  -47.1942  -40.7326 H         1 6X5         0.0705
     44 H7          7.7724  -47.7336  -39.9997 H         1 6X5         0.0705
     45 H8         11.0072  -48.8098  -41.1284 H         1 6X5         0.0415
     46 H9         11.9295  -51.1443  -40.8617 H         1 6X5         0.0505
     47 H10        10.8780  -52.7186  -39.2694 H         1 6X5         0.0428
     48 H11         6.6799  -50.0977  -38.3207 H         1 6X5         0.0727
     49 H12         7.4101  -48.4699  -38.1117 H         1 6X5         0.0727
     50 H13         6.1201  -51.5983  -37.6321 H         1 6X5         0.0516
     51 H14         4.2000  -52.7290  -36.5020 H         1 6X5         0.0516
     52 H15         5.0247  -50.5658  -32.9015 H         1 6X5         0.0516
     53 H16         6.9480  -49.4378  -34.0334 H         1 6X5         0.0516
     54 H17         2.0467  -51.1425  -33.0459 H         1 6X5         0.0614
     55 H18         3.7435  -50.9906  -32.4761 H         1 6X5         0.0614
     56 H19         3.3455  -52.5976  -30.8492 H         1 6X5         0.0380
     57 H20         3.7207  -54.7384  -31.7076 H         1 6X5         0.0322
     58 H21         3.2871  -54.1510  -33.3488 H         1 6X5         0.0322
     59 H22         1.7040  -56.0092  -31.9017 H         1 6X5         0.0814
     60 H23         1.0307  -54.9212  -33.1625 H         1 6X5         0.0814
     61 H24         1.0691  -54.6709  -30.3426 H         1 6X5         0.2013
     62 H25        -0.1181  -54.3492  -31.4364 H         1 6X5         0.2013
     63 H26         0.7996  -52.1959  -32.1118 H         1 6X5         0.0817
     64 H27         1.2776  -52.2424  -30.3809 H         1 6X5         0.0817
     65 H28         8.1955  -51.7723  -36.9025 H         1 6X5         0.2222
     66 H29         8.8585  -53.1304  -34.7981 H         1 6X5         0.0373
     67 H30         6.8752  -55.5123  -38.4950 H         1 6X5         0.0564
     68 H31         5.3050  -55.6898  -37.6408 H         1 6X5         0.0564
     69 H32         6.5588  -56.9674  -37.4905 H         1 6X5         0.0564
     70 H33         4.9885  -56.9504  -35.0431 H         1 6X5         0.0411
     71 H34         4.9184  -56.7173  -32.4333 H         1 6X5         0.0703
@<TRIPOS>BOND
     1    1    2 1  
     2    2    3 1  
     3    3    4 1  
     4    4    5 1  
     5    5    6 ar 
     6    5   10 ar 
     7    6    7 ar 
     8    7    8 ar 
     9    8    9 ar 
    10    9   10 ar 
    11    9   26 1  
    12   10   11 1  
    13   11   12 1  
    14   12   13 1  
    15   13   14 ar 
    16   13   18 ar 
    17   14   15 ar 
    18   15   16 ar 
    19   16   17 ar 
    20   16   19 1  
    21   17   18 ar 
    22   19   20 1  
    23   20   21 1  
    24   21   22 1  
    25   21   25 1  
    26   22   23 1  
    27   23   24 1  
    28   24   25 1  
    29   26   27 am 
    30   27   28 2  
    31   27   29 1  
    32   29   30 2  
    33   29   33 1  
    34   30   31 1  
    35   31   32 2  
    36   31   37 1  
    37   32   33 1  
    38   32   35 1  
    39   33   34 1  
    40   35   36 2  
    41   36   37 1  
    42    1   38 1  
    43    1   39 1  
    44    1   40 1  
    45    2   41 1  
    46    2   42 1  
    47    4   43 1  
    48    4   44 1  
    49    6   45 1  
    50    7   46 1  
    51    8   47 1  
    52   11   48 1  
    53   11   49 1  
    54   14   50 1  
    55   15   51 1  
    56   17   52 1  
    57   18   53 1  
    58   20   54 1  
    59   20   55 1  
    60   21   56 1  
    61   22   57 1  
    62   22   58 1  
    63   23   59 1  
    64   23   60 1  
    65   24   61 1  
    66   24   62 1  
    67   25   63 1  
    68   25   64 1  
    69   26   65 1  
    70   30   66 1  
    71   34   67 1  
    72   34   68 1  
    73   34   69 1  
    74   35   70 1  
    75   36   71 1  
@<TRIPOS>SUBSTRUCTURE
     1 6X5         1

