### 
### Created by X-TOOL on Mon Sep 10 21:13:29 2018
### 

@<TRIPOS>MOLECULE
5li3_ligand
   39    40     1     0     0
SMALL
GAST_HUCK


@<TRIPOS>ATOM
      1 C1        -24.5030   -2.7740   -0.8570 C.2       1 9RB         0.1067
      2 C2        -24.3650   -1.4720   -0.1360 C.2       1 9RB         0.1080
      3 C3        -24.0080    0.1660    3.1010 C.ar      1 9RB         0.0622
      4 C4        -24.3990   -0.7050    4.1040 C.ar      1 9RB        -0.0357
      5 C5        -24.1420   -0.4280    5.4400 C.ar      1 9RB        -0.0483
      6 C6        -23.4910    0.7360    5.8250 C.ar      1 9RB        -0.0148
      7 C7        -23.2490    0.8780    7.2900 C.2       1 9RB        -0.0381
      8 C8        -22.4230    1.7810    7.8180 C.2       1 9RB         0.0127
      9 C9        -22.1690    1.9030    9.2800 C.2       1 9RB         0.2147
     10 C10       -23.0960    1.6380    4.8210 C.ar      1 9RB        -0.0483
     11 C11       -23.3650    1.3570    3.4700 C.ar      1 9RB        -0.0357
     12 C12       -24.7540   -0.3850   -1.0600 C.2       1 9RB         0.0310
     13 C13       -24.2490   -4.2100   -0.4640 C.3       1 9RB         0.0087
     14 C14       -24.7710    1.0850   -0.7940 C.3       1 9RB        -0.0254
     15 O         -21.5010    2.8290    9.7080 O.2       1 9RB        -0.3909
     16 N3        -22.7270    1.2060   10.2380 N.am      1 9RB        -0.1658
     17 O1        -22.7100    1.8830   11.4600 O.3       1 9RB        -0.2725
     18 N2        -24.3170   -0.1780    1.7690 N.2       1 9RB        -0.2021
     19 N1        -23.9800   -1.2410    1.1760 N.2       1 9RB        -0.2022
     20 N4        -25.0840   -0.9960   -2.2190 N.2       1 9RB        -0.2286
     21 N         -24.9230   -2.3890   -2.0700 N.pl3     1 9RB        -0.2027
     22 C         -25.2590   -3.1550   -3.2980 C.3       1 9RB         0.0593
     23 H1        -24.9158   -1.6209    3.8410 H         1 9RB         0.0645
     24 H2        -24.4564   -1.1357    6.1985 H         1 9RB         0.0650
     25 H3        -23.7766    0.2065    7.9658 H         1 9RB         0.0742
     26 H4        -21.9073    2.4648    7.1454 H         1 9RB         0.0668
     27 H5        -22.5820    2.5537    5.0899 H         1 9RB         0.0650
     28 H6        -23.0726    2.0679    2.7056 H         1 9RB         0.0645
     29 H7        -23.9129   -4.2497    0.5826 H         1 9RB         0.0480
     30 H8        -23.4717   -4.6364   -1.1151 H         1 9RB         0.0480
     31 H9        -25.1774   -4.7898   -0.5732 H         1 9RB         0.0480
     32 H10       -25.1120    1.6166   -1.6946 H         1 9RB         0.0385
     33 H11       -23.7574    1.4218   -0.5311 H         1 9RB         0.0385
     34 H12       -25.4562    1.2989    0.0395 H         1 9RB         0.0385
     35 H13       -23.1196    0.2952   10.1098 H         1 9RB         0.2204
     36 H14       -21.8109    2.0620   11.7091 H         1 9RB         0.2490
     37 H15       -25.5680   -2.4586   -4.0914 H         1 9RB         0.0596
     38 H16       -26.0816   -3.8525   -3.0815 H         1 9RB         0.0596
     39 H17       -24.3762   -3.7209   -3.6302 H         1 9RB         0.0596
@<TRIPOS>BOND
     1    2    1 2  
     2    1   13 1  
     3    1   21 1  
     4    2   12 1  
     5   19    2 1  
     6    3    4 ar 
     7    3   11 ar 
     8   18    3 1  
     9    4    5 ar 
    10    5    6 ar 
    11    6    7 1  
    12   10    6 ar 
    13    7    8 2  
    14    8    9 1  
    15    9   15 2  
    16    9   16 am 
    17   11   10 ar 
    18   12   14 1  
    19   12   20 2  
    20   16   17 1  
    21   18   19 2  
    22   20   21 1  
    23   21   22 1  
    24    4   23 1  
    25    5   24 1  
    26    7   25 1  
    27    8   26 1  
    28   10   27 1  
    29   11   28 1  
    30   13   29 1  
    31   13   30 1  
    32   13   31 1  
    33   14   32 1  
    34   14   33 1  
    35   14   34 1  
    36   16   35 1  
    37   17   36 1  
    38   22   37 1  
    39   22   38 1  
    40   22   39 1  
@<TRIPOS>SUBSTRUCTURE
     1 9RB         1

