### 
### Created by X-TOOL on Mon Sep 10 21:13:27 2018
### 

@<TRIPOS>MOLECULE
5lj0_ligand
   74    78     1     0     0
SMALL
GAST_HUCK


@<TRIPOS>ATOM
      1 C13       -32.5520   41.7310   13.5920 C.3       1 6XX        -0.0044
      2 C22       -31.4070   42.5400    9.3150 C.3       1 6XX        -0.0172
      3 C24       -30.0250   43.1740    9.1930 C.3       1 6XX        -0.0427
      4 C01       -29.1150   42.7730   17.3260 C.3       1 6XX         0.0372
      5 O05       -29.6630   43.3770   16.1550 O.3       1 6XX        -0.3721
      6 C06       -30.3360   42.4630   15.2830 C.3       1 6XX         0.1227
      7 C08       -31.7160   42.1090   15.8280 C.3       1 6XX        -0.0044
      8 N11       -32.3780   41.1650   14.9290 N.4       1 6XX         0.2308
      9 C16       -31.2050   42.1210   12.9980 C.3       1 6XX         0.1231
     10 O18       -31.3860   42.7310   11.7180 O.3       1 6XX        -0.3686
     11 C19       -31.5520   41.8180   10.6300 C.3       1 6XX         0.0512
     12 C27       -29.8370   43.8780    7.8490 C.3       1 6XX         0.0111
     13 C30       -30.0930   42.9120    6.7330 C.3       1 6XX         0.2490
     14 F31       -29.9640   43.5580    5.5300 F         1 6XX        -0.2057
     15 F32       -29.1040   41.9590    6.7160 F         1 6XX        -0.2057
     16 C33       -31.4300   42.2400    6.7970 C.3       1 6XX         0.0111
     17 C36       -31.6250   41.5680    8.1570 C.3       1 6XX        -0.0427
     18 C39       -30.4560   43.0820   13.9030 C.3       1 6XX         0.0988
     19 N41       -29.1290   43.3260   13.3730 N.pl3     1 6XX        -0.3023
     20 C43       -28.7740   44.3440   12.5660 C.ar      1 6XX         0.1415
     21 N44       -29.7020   45.3000   12.3220 N.ar      1 6XX        -0.3003
     22 C45       -29.3940   46.3370   11.5340 C.ar      1 6XX        -0.0125
     23 C47       -28.1770   46.5320   10.9010 C.ar      1 6XX        -0.0075
     24 C48       -27.9490   47.7540   10.0770 C.ar      1 6XX        -0.0037
     25 C49       -26.9070   48.6260   10.3690 C.ar      1 6XX         0.0090
     26 N51       -26.6560   49.7440    9.6810 N.ar      1 6XX        -0.3058
     27 C52       -27.4760   50.0460    8.6690 C.ar      1 6XX         0.0101
     28 C54       -28.5590   49.2690    8.2940 C.ar      1 6XX        -0.0203
     29 C55       -29.4520   49.6650    7.1430 C.3       1 6XX        -0.0255
     30 C59       -28.7880   48.1140    9.0270 C.ar      1 6XX        -0.0369
     31 C61       -27.1760   45.5740   11.1350 C.ar      1 6XX         0.0142
     32 C62       -25.8540   45.6170   10.5650 C.2       1 6XX        -0.0428
     33 C64       -24.9320   44.6620   10.8160 C.2       1 6XX         0.0321
     34 C65       -23.5560   44.7280   10.2020 C.3       1 6XX        -0.0220
     35 C69       -25.2630   43.5440   11.6840 C.2       1 6XX         0.2214
     36 O70       -24.4950   42.6280   11.9730 O.2       1 6XX        -0.3972
     37 N71       -26.5170   43.5300   12.1840 N.am      1 6XX        -0.2259
     38 C73       -27.4930   44.4870   11.9680 C.ar      1 6XX         0.1319
     39 H1        -33.1909   42.6241   13.6574 H         1 6XX         0.0840
     40 H2        -33.0313   40.9840   12.9423 H         1 6XX         0.0840
     41 H3        -32.1669   43.3336    9.2632 H         1 6XX         0.0323
     42 H4        -29.2628   42.3871    9.2918 H         1 6XX         0.0270
     43 H5        -29.8989   43.9101   10.0006 H         1 6XX         0.0270
     44 H6        -28.6186   43.5414   17.9369 H         1 6XX         0.0524
     45 H7        -28.3819   42.0065   17.0344 H         1 6XX         0.0524
     46 H8        -29.9219   42.3056   17.9094 H         1 6XX         0.0524
     47 H9        -29.7412   41.5407   15.2090 H         1 6XX         0.0674
     48 H10       -32.3224   43.0233   15.9078 H         1 6XX         0.0840
     49 H11       -31.6092   41.6518   16.8228 H         1 6XX         0.0840
     50 H12       -31.8179   40.3298   14.8608 H         1 6XX         0.2015
     51 H13       -33.2832   40.9327   15.3068 H         1 6XX         0.2015
     52 H14       -30.6016   41.2094   12.8763 H         1 6XX         0.0674
     53 H15       -30.7875   41.0300   10.6977 H         1 6XX         0.0563
     54 H16       -32.5524   41.3642   10.6865 H         1 6XX         0.0563
     55 H17       -28.8069   44.2569    7.7756 H         1 6XX         0.0323
     56 H18       -30.5430   44.7183    7.7744 H         1 6XX         0.0323
     57 H19       -31.4915   41.4793    6.0049 H         1 6XX         0.0323
     58 H20       -32.2202   42.9903    6.6470 H         1 6XX         0.0323
     59 H21       -32.6501   41.1731    8.2136 H         1 6XX         0.0270
     60 H22       -30.9072   40.7396    8.2494 H         1 6XX         0.0270
     61 H23       -31.0063   44.0322   13.9685 H         1 6XX         0.0607
     62 H24       -28.3897   42.6595   13.6380 H         1 6XX         0.1787
     63 H25       -30.1608   47.0871   11.3779 H         1 6XX         0.0661
     64 H26       -26.2594   48.3851   11.2043 H         1 6XX         0.0760
     65 H27       -27.2813   50.9533    8.1087 H         1 6XX         0.0747
     66 H28       -30.2445   48.9124    7.0180 H         1 6XX         0.0405
     67 H29       -28.8558   49.7263    6.2206 H         1 6XX         0.0405
     68 H30       -29.9064   50.6447    7.3517 H         1 6XX         0.0405
     69 H31       -29.6331   47.4824    8.7782 H         1 6XX         0.0661
     70 H32       -25.5891   46.4461    9.9105 H         1 6XX         0.0571
     71 H33       -23.4756   45.6308    9.5786 H         1 6XX         0.0406
     72 H34       -23.3891   43.8366    9.5795 H         1 6XX         0.0406
     73 H35       -22.7998   44.7649   11.0000 H         1 6XX         0.0406
     74 H36       -26.7639   42.7548   12.7654 H         1 6XX         0.2357
@<TRIPOS>BOND
     1    1    8 1  
     2    9    1 1  
     3    2    3 1  
     4   11    2 1  
     5    2   17 1  
     6    3   12 1  
     7    5    4 1  
     8    6    5 1  
     9    6    7 1  
    10   18    6 1  
    11    8    7 1  
    12   10    9 1  
    13    9   18 1  
    14   10   11 1  
    15   12   13 1  
    16   13   14 1  
    17   13   15 1  
    18   13   16 1  
    19   16   17 1  
    20   18   19 1  
    21   19   20 1  
    22   20   21 ar 
    23   20   38 ar 
    24   21   22 ar 
    25   22   23 ar 
    26   23   24 1  
    27   23   31 ar 
    28   24   25 ar 
    29   24   30 ar 
    30   25   26 ar 
    31   26   27 ar 
    32   27   28 ar 
    33   28   29 1  
    34   28   30 ar 
    35   31   32 1  
    36   31   38 ar 
    37   32   33 2  
    38   33   34 1  
    39   33   35 1  
    40   35   36 2  
    41   35   37 am 
    42   37   38 1  
    43    1   39 1  
    44    1   40 1  
    45    2   41 1  
    46    3   42 1  
    47    3   43 1  
    48    4   44 1  
    49    4   45 1  
    50    4   46 1  
    51    6   47 1  
    52    7   48 1  
    53    7   49 1  
    54    8   50 1  
    55    8   51 1  
    56    9   52 1  
    57   11   53 1  
    58   11   54 1  
    59   12   55 1  
    60   12   56 1  
    61   16   57 1  
    62   16   58 1  
    63   17   59 1  
    64   17   60 1  
    65   18   61 1  
    66   19   62 1  
    67   22   63 1  
    68   25   64 1  
    69   27   65 1  
    70   29   66 1  
    71   29   67 1  
    72   29   68 1  
    73   30   69 1  
    74   32   70 1  
    75   34   71 1  
    76   34   72 1  
    77   34   73 1  
    78   37   74 1  
@<TRIPOS>SUBSTRUCTURE
     1 6XX         1

