### 
### Created by X-TOOL on Mon Sep 10 21:13:27 2018
### 

@<TRIPOS>MOLECULE
5lj1_ligand
   74    78     1     0     0
SMALL
GAST_HUCK


@<TRIPOS>ATOM
      1 C13       -23.5690   -4.4290    0.5420 C.3       1 6XX        -0.0044
      2 C22       -26.9970   -2.5030    2.8570 C.3       1 6XX        -0.0172
      3 C24       -27.4150   -1.2660    3.6250 C.3       1 6XX        -0.0427
      4 C01       -27.8030   -6.3490   -0.6810 C.3       1 6XX         0.0372
      5 O05       -27.0140   -5.5810    0.2190 O.3       1 6XX        -0.3721
      6 C06       -25.8650   -6.2690    0.7360 C.3       1 6XX         0.1227
      7 C08       -24.7800   -6.3220   -0.3300 C.3       1 6XX        -0.0044
      8 N11       -24.2650   -4.9890   -0.6170 N.4       1 6XX         0.2308
      9 C16       -24.5860   -4.2680    1.6610 C.3       1 6XX         0.1231
     10 O18       -25.5450   -3.3450    1.1360 O.3       1 6XX        -0.3686
     11 C19       -25.8440   -2.2090    1.9390 C.3       1 6XX         0.0512
     12 C27       -28.5140   -1.5980    4.6290 C.3       1 6XX         0.0111
     13 C30       -29.6840   -2.3190    4.0130 C.3       1 6XX         0.2490
     14 F31       -30.5290   -2.7590    4.9990 F         1 6XX        -0.2057
     15 F32       -30.4400   -1.4430    3.2700 F         1 6XX        -0.2057
     16 C33       -29.2510   -3.4740    3.1570 C.3       1 6XX         0.0111
     17 C36       -28.2060   -3.0420    2.1320 C.3       1 6XX        -0.0427
     18 C39       -25.3830   -5.5250    1.9730 C.3       1 6XX         0.0988
     19 N41       -24.6530   -6.4500    2.8220 N.pl3     1 6XX        -0.3023
     20 C43       -24.5260   -6.3100    4.1550 C.ar      1 6XX         0.1415
     21 N44       -25.2770   -5.3410    4.7510 N.ar      1 6XX        -0.3003
     22 C45       -25.1860   -5.1460    6.0700 C.ar      1 6XX        -0.0125
     23 C47       -24.3810   -5.8710    6.9320 C.ar      1 6XX        -0.0075
     24 C48       -24.3740   -5.5480    8.3910 C.ar      1 6XX        -0.0037
     25 C49       -24.6180   -6.4960    9.3820 C.ar      1 6XX         0.0090
     26 N51       -24.6410   -6.2150   10.6940 N.ar      1 6XX        -0.3058
     27 C52       -24.4200   -4.9430   11.0550 C.ar      1 6XX         0.0101
     28 C54       -24.1740   -3.9160   10.1570 C.ar      1 6XX        -0.0203
     29 C55       -23.9200   -2.5040   10.6190 C.3       1 6XX        -0.0255
     30 C59       -24.1600   -4.2440    8.8130 C.ar      1 6XX        -0.0369
     31 C61       -23.5730   -6.8720    6.3650 C.ar      1 6XX         0.0142
     32 C62       -22.6710   -7.7070    7.1130 C.2       1 6XX        -0.0428
     33 C64       -21.9360   -8.6870    6.5400 C.2       1 6XX         0.0321
     34 C65       -21.0020   -9.5350    7.3630 C.3       1 6XX        -0.0220
     35 C69       -22.0120   -8.9110    5.0960 C.2       1 6XX         0.2214
     36 O70       -21.3890   -9.7830    4.4900 O.2       1 6XX        -0.3972
     37 N71       -22.8790   -8.1070    4.4230 N.am      1 6XX        -0.2259
     38 C73       -23.6560   -7.0990    4.9800 C.ar      1 6XX         0.1319
     39 H1        -23.1390   -3.4501    0.2834 H         1 6XX         0.0840
     40 H2        -22.7659   -5.1096    0.8612 H         1 6XX         0.0840
     41 H3        -26.6623   -3.2642    3.5770 H         1 6XX         0.0323
     42 H4        -27.7889   -0.5113    2.9175 H         1 6XX         0.0270
     43 H5        -26.5440   -0.8642    4.1634 H         1 6XX         0.0270
     44 H6        -28.6569   -5.7471   -1.0254 H         1 6XX         0.0524
     45 H7        -28.1722   -7.2495   -0.1683 H         1 6XX         0.0524
     46 H8        -27.1903   -6.6444   -1.5455 H         1 6XX         0.0524
     47 H9        -26.1440   -7.2958    1.0150 H         1 6XX         0.0674
     48 H10       -25.2012   -6.7510   -1.2512 H         1 6XX         0.0840
     49 H11       -23.9557   -6.9570    0.0268 H         1 6XX         0.0840
     50 H12       -23.6219   -5.0448   -1.3912 H         1 6XX         0.2015
     51 H13       -25.0341   -4.3852   -0.8619 H         1 6XX         0.2015
     52 H14       -24.0973   -3.8912    2.5716 H         1 6XX         0.0674
     53 H15       -24.9604   -1.9475    2.5397 H         1 6XX         0.0563
     54 H16       -26.1071   -1.3635    1.2865 H         1 6XX         0.0563
     55 H17       -28.8767   -0.6593    5.0732 H         1 6XX         0.0323
     56 H18       -28.0864   -2.2354    5.4170 H         1 6XX         0.0323
     57 H19       -30.1273   -3.8764    2.6277 H         1 6XX         0.0323
     58 H20       -28.8204   -4.2555    3.8003 H         1 6XX         0.0323
     59 H21       -27.9126   -3.9065    1.5184 H         1 6XX         0.0270
     60 H22       -28.6269   -2.2587    1.4845 H         1 6XX         0.0270
     61 H23       -26.2758   -5.2005    2.5276 H         1 6XX         0.0607
     62 H24       -24.2047   -7.2634    2.3768 H         1 6XX         0.1787
     63 H25       -25.7915   -4.3562    6.4997 H         1 6XX         0.0661
     64 H26       -24.7998   -7.5198    9.0757 H         1 6XX         0.0760
     65 H27       -24.4345   -4.7033   12.1121 H         1 6XX         0.0747
     66 H28       -23.7498   -1.8574    9.7455 H         1 6XX         0.0405
     67 H29       -23.0321   -2.4846   11.2680 H         1 6XX         0.0405
     68 H30       -24.7927   -2.1393   11.1806 H         1 6XX         0.0405
     69 H31       -23.9787   -3.4688    8.0772 H         1 6XX         0.0661
     70 H32       -22.5762   -7.5430    8.1854 H         1 6XX         0.0571
     71 H33       -21.0699   -9.2358    8.4194 H         1 6XX         0.0406
     72 H34       -19.9704   -9.3948    7.0079 H         1 6XX         0.0406
     73 H35       -21.2836  -10.5936    7.2629 H         1 6XX         0.0406
     74 H36       -22.9648   -8.2551    3.4377 H         1 6XX         0.2357
@<TRIPOS>BOND
     1    1    8 1  
     2    9    1 1  
     3    2    3 1  
     4   11    2 1  
     5    2   17 1  
     6    3   12 1  
     7    5    4 1  
     8    6    5 1  
     9    6    7 1  
    10   18    6 1  
    11    8    7 1  
    12   10    9 1  
    13    9   18 1  
    14   10   11 1  
    15   12   13 1  
    16   13   14 1  
    17   13   15 1  
    18   13   16 1  
    19   16   17 1  
    20   18   19 1  
    21   19   20 1  
    22   20   21 ar 
    23   20   38 ar 
    24   21   22 ar 
    25   22   23 ar 
    26   23   24 1  
    27   23   31 ar 
    28   24   25 ar 
    29   24   30 ar 
    30   25   26 ar 
    31   26   27 ar 
    32   27   28 ar 
    33   28   29 1  
    34   28   30 ar 
    35   31   32 1  
    36   31   38 ar 
    37   32   33 2  
    38   33   34 1  
    39   33   35 1  
    40   35   36 2  
    41   35   37 am 
    42   37   38 1  
    43    1   39 1  
    44    1   40 1  
    45    2   41 1  
    46    3   42 1  
    47    3   43 1  
    48    4   44 1  
    49    4   45 1  
    50    4   46 1  
    51    6   47 1  
    52    7   48 1  
    53    7   49 1  
    54    8   50 1  
    55    8   51 1  
    56    9   52 1  
    57   11   53 1  
    58   11   54 1  
    59   12   55 1  
    60   12   56 1  
    61   16   57 1  
    62   16   58 1  
    63   17   59 1  
    64   17   60 1  
    65   18   61 1  
    66   19   62 1  
    67   22   63 1  
    68   25   64 1  
    69   27   65 1  
    70   29   66 1  
    71   29   67 1  
    72   29   68 1  
    73   30   69 1  
    74   32   70 1  
    75   34   71 1  
    76   34   72 1  
    77   34   73 1  
    78   37   74 1  
@<TRIPOS>SUBSTRUCTURE
     1 6XX         1

