### 
### Created by X-TOOL on Mon Sep 10 21:13:28 2018
### 

@<TRIPOS>MOLECULE
5lj2_ligand
   69    73     1     0     0
SMALL
GAST_HUCK


@<TRIPOS>ATOM
      1 C10        26.2770   52.2840   -2.8180 C.ar      1 6XW        -0.0126
      2 N12        25.0860   52.4500   -3.4040 N.ar      1 6XW        -0.3003
      3 C13        24.0190   51.7370   -2.9900 C.ar      1 6XW         0.1414
      4 C21        20.5380   52.0550   -5.6810 C.3       1 6XW        -0.0314
      5 C26        22.4790   50.9380   -6.5560 C.3       1 6XW        -0.0046
      6 C01        24.6220   48.0200    1.3090 C.3       1 6XW        -0.0220
      7 C05        24.4900   49.0100    0.1820 C.2       1 6XW         0.0321
      8 C06        25.5630   49.7080   -0.2260 C.2       1 6XW        -0.0428
      9 C08        25.4410   50.6530   -1.3090 C.ar      1 6XW         0.0141
     10 C09        26.5300   51.4170   -1.7670 C.ar      1 6XW        -0.0092
     11 N14        22.8510   51.9550   -3.6340 N.pl3     1 6XW        -0.3048
     12 C16        22.7740   52.7620   -4.8500 C.3       1 6XW         0.0726
     13 C18        21.3420   53.2250   -5.1520 C.3       1 6XW         0.0127
     14 N24        21.1720   51.4970   -6.8820 N.4       1 6XW         0.2289
     15 C29        23.3750   52.0590   -6.0610 C.3       1 6XW         0.1207
     16 O31        23.4400   53.0000   -7.1360 O.3       1 6XW        -0.3687
     17 C32        24.6740   53.7010   -7.2870 C.3       1 6XW         0.0513
     18 C35        24.7700   54.1790   -8.7170 C.3       1 6XW        -0.0146
     19 C37        25.3550   55.5850   -8.7830 C.3       1 6XW        -0.0286
     20 C40        25.3420   56.1640  -10.1950 C.3       1 6XW         0.0661
     21 S43        26.3350   55.1910  -11.2810 S.o2      1 6XW        -0.0310
     22 O44        27.6920   55.1950  -10.8060 O.2       1 6XW        -0.1744
     23 O45        26.0940   55.6030  -12.6360 O.2       1 6XW        -0.1744
     24 C46        25.6420   53.5890  -11.0310 C.3       1 6XW         0.0661
     25 C49        25.6300   53.2290   -9.5490 C.3       1 6XW        -0.0286
     26 C52        24.1810   50.8180   -1.9180 C.ar      1 6XW         0.1319
     27 N53        23.1050   50.0740   -1.4660 N.am      1 6XW        -0.2259
     28 C55        23.1880   49.1810   -0.4500 C.2       1 6XW         0.2214
     29 O56        22.1760   48.5700   -0.1170 O.2       1 6XW        -0.3972
     30 C57        27.9090   51.3110   -1.2060 C.ar      1 6XW        -0.0091
     31 C58        29.0010   51.1050   -2.0400 C.ar      1 6XW         0.0023
     32 N60        30.2640   51.0150   -1.6110 N.ar      1 6XW        -0.3117
     33 C61        30.4820   51.1330   -0.2970 C.ar      1 6XW         0.0259
     34 C63        29.4690   51.3460    0.6420 C.ar      1 6XW         0.0614
     35 N64        29.7310   51.4600    1.9900 N.pl3     1 6XW        -0.3313
     36 C67        28.1700   51.4390    0.1550 C.ar      1 6XW        -0.0212
     37 H1         27.1067   52.8719   -3.1935 H         1 6XW         0.0661
     38 H2         19.5235   52.3973   -5.9330 H         1 6XW         0.0814
     39 H3         20.4804   51.2757   -4.9068 H         1 6XW         0.0814
     40 H4         22.9203   50.4796   -7.4532 H         1 6XW         0.0840
     41 H5         22.3707   50.1758   -5.7703 H         1 6XW         0.0840
     42 H6         25.6606   48.0133    1.6714 H         1 6XW         0.0406
     43 H7         24.3530   47.0161    0.9487 H         1 6XW         0.0406
     44 H8         23.9490   48.3074    2.1302 H         1 6XW         0.0406
     45 H9         26.5256   49.5602    0.2613 H         1 6XW         0.0571
     46 H10        21.9878   51.5393   -3.2559 H         1 6XW         0.1786
     47 H11        23.3756   53.6650   -4.6694 H         1 6XW         0.0581
     48 H12        20.8764   53.6039   -4.2302 H         1 6XW         0.0340
     49 H13        21.3661   54.0252   -5.9064 H         1 6XW         0.0340
     50 H14        21.2851   52.2274   -7.5673 H         1 6XW         0.2014
     51 H15        20.5850   50.7698   -7.2597 H         1 6XW         0.2014
     52 H16        24.3739   51.6713   -5.8121 H         1 6XW         0.0673
     53 H17        25.5149   53.0287   -7.0614 H         1 6XW         0.0563
     54 H18        24.6996   54.5624   -6.6034 H         1 6XW         0.0563
     55 H19        23.7564   54.2003   -9.1438 H         1 6XW         0.0324
     56 H20        26.3951   55.5502   -8.4268 H         1 6XW         0.0284
     57 H21        24.7648   56.2426   -8.1279 H         1 6XW         0.0284
     58 H22        25.7372   57.1902  -10.1675 H         1 6XW         0.0500
     59 H23        24.3076   56.1793  -10.5689 H         1 6XW         0.0500
     60 H24        26.2427   52.8470  -11.5774 H         1 6XW         0.0500
     61 H25        24.6105   53.5787  -11.4129 H         1 6XW         0.0500
     62 H26        25.2346   52.2085   -9.4383 H         1 6XW         0.0284
     63 H27        26.6620   53.2656   -9.1699 H         1 6XW         0.0284
     64 H28        22.2196   50.2022   -1.9127 H         1 6XW         0.2357
     65 H29        28.8176   51.0115   -3.1043 H         1 6XW         0.0705
     66 H30        31.5028   51.0592    0.0603 H         1 6XW         0.0707
     67 H31        28.9587   51.6168    2.6533 H         1 6XW         0.1739
     68 H32        30.6991   51.3884    2.3343 H         1 6XW         0.1739
     69 H33        27.3510   51.6132    0.8434 H         1 6XW         0.0616
@<TRIPOS>BOND
     1    2    1 ar 
     2    1   10 ar 
     3    3    2 ar 
     4   11    3 1  
     5    3   26 ar 
     6   13    4 1  
     7    4   14 1  
     8   14    5 1  
     9    5   15 1  
    10    7    6 1  
    11    8    7 2  
    12    7   28 1  
    13    9    8 1  
    14    9   10 ar 
    15   26    9 ar 
    16   10   30 1  
    17   12   11 1  
    18   12   13 1  
    19   12   15 1  
    20   15   16 1  
    21   16   17 1  
    22   17   18 1  
    23   18   19 1  
    24   18   25 1  
    25   19   20 1  
    26   20   21 1  
    27   21   22 2  
    28   21   23 2  
    29   21   24 1  
    30   24   25 1  
    31   26   27 1  
    32   27   28 am 
    33   28   29 2  
    34   30   31 ar 
    35   30   36 ar 
    36   31   32 ar 
    37   32   33 ar 
    38   33   34 ar 
    39   34   35 1  
    40   34   36 ar 
    41    1   37 1  
    42    4   38 1  
    43    4   39 1  
    44    5   40 1  
    45    5   41 1  
    46    6   42 1  
    47    6   43 1  
    48    6   44 1  
    49    8   45 1  
    50   11   46 1  
    51   12   47 1  
    52   13   48 1  
    53   13   49 1  
    54   14   50 1  
    55   14   51 1  
    56   15   52 1  
    57   17   53 1  
    58   17   54 1  
    59   18   55 1  
    60   19   56 1  
    61   19   57 1  
    62   20   58 1  
    63   20   59 1  
    64   24   60 1  
    65   24   61 1  
    66   25   62 1  
    67   25   63 1  
    68   27   64 1  
    69   31   65 1  
    70   33   66 1  
    71   35   67 1  
    72   35   68 1  
    73   36   69 1  
@<TRIPOS>SUBSTRUCTURE
     1 6XW         1

