### 
### Created by X-TOOL on Mon Sep 10 21:13:29 2018
### 

@<TRIPOS>MOLECULE
5ljj_ligand
   56    60     1     0     0
SMALL
GAST_HUCK


@<TRIPOS>ATOM
      1 CAK       -37.5730  -14.8780  -13.5640 C.3       1 AD5        -0.0297
      2 CAG       -37.4730  -13.3810  -13.2890 C.3       1 AD5        -0.0509
      3 CAF       -36.1450  -12.8320  -13.7720 C.3       1 AD5        -0.0529
      4 CAH       -34.9760  -13.6100  -13.1940 C.3       1 AD5        -0.0509
      5 CAL       -35.1270  -15.1200  -13.3900 C.3       1 AD5        -0.0297
      6 CBB       -36.4570  -15.6050  -12.8460 C.3       1 AD5         0.0400
      7 N6        -36.5950  -17.0590  -12.9580 N.pl3     1 AD5        -0.3001
      8 C6        -36.0150  -17.9710  -12.1430 C.ar      1 AD5         0.1436
      9 N1        -35.2760  -17.5180  -11.1180 N.ar      1 AD5        -0.2523
     10 C5        -36.1330  -19.3630  -12.3170 C.ar      1 AD5         0.1421
     11 N7        -36.8070  -20.1360  -13.2560 N.pl3     1 AD5        -0.2467
     12 C8        -36.5320  -21.3670  -12.8930 C.2       1 AD5         0.1081
     13 N9        -35.7440  -21.4540  -11.7890 N.2       1 AD5        -0.2918
     14 C4        -35.4770  -20.1720  -11.4090 C.ar      1 AD5         0.0854
     15 N3        -34.7270  -19.7350  -10.3700 N.ar      1 AD5        -0.2866
     16 C2        -34.6610  -18.3920  -10.2780 C.ar      1 AD5         0.1690
     17 N2        -33.9020  -17.8990   -9.2600 N.pl3     1 AD5        -0.2587
     18 CAV       -33.6790  -16.5630   -8.8520 C.ar      1 AD5         0.0507
     19 CAB       -33.3710  -16.3610   -7.5120 C.ar      1 AD5        -0.0494
     20 CAD       -33.1480  -15.0980   -7.0350 C.ar      1 AD5        -0.0531
     21 CAA       -33.7410  -15.4670   -9.7110 C.ar      1 AD5        -0.0494
     22 CAC       -33.5180  -14.1990   -9.2390 C.ar      1 AD5        -0.0531
     23 CAW       -33.2080  -13.9850   -7.8890 C.ar      1 AD5         0.0292
     24 NBC       -32.9920  -12.6910   -7.3850 N.pl3     1 AD5        -0.3104
     25 CAM       -33.9870  -11.6380   -7.5360 C.3       1 AD5         0.0481
     26 CAI       -33.3130  -10.3520   -7.9450 C.3       1 AD5         0.0669
     27 OAU       -32.2720  -10.0040   -7.0390 O.3       1 AD5        -0.3759
     28 CAJ       -31.2610  -11.0090   -7.0360 C.3       1 AD5         0.0669
     29 CAN       -31.8020  -12.3540   -6.6120 C.3       1 AD5         0.0481
     30 H1        -37.4891  -15.0573  -14.6460 H         1 AD5         0.0288
     31 H2        -38.5431  -15.2516  -13.2045 H         1 AD5         0.0288
     32 H3        -37.5631  -13.2064  -12.2067 H         1 AD5         0.0266
     33 H4        -38.2894  -12.8628  -13.8132 H         1 AD5         0.0266
     34 H5        -36.0605  -11.7794  -13.4642 H         1 AD5         0.0265
     35 H6        -36.1095  -12.8971  -14.8695 H         1 AD5         0.0265
     36 H7        -34.9089  -13.3985  -12.1166 H         1 AD5         0.0266
     37 H8        -34.0517  -13.2799  -13.6907 H         1 AD5         0.0266
     38 H9        -34.3118  -15.6353  -12.8609 H         1 AD5         0.0288
     39 H10       -35.0711  -15.3514  -14.4639 H         1 AD5         0.0288
     40 H11       -36.5076  -15.3460  -11.7781 H         1 AD5         0.0559
     41 H12       -37.1841  -17.4184  -13.7227 H         1 AD5         0.1843
     42 H13       -37.3844  -19.8183  -14.0476 H         1 AD5         0.2351
     43 H14       -36.9020  -22.2402  -13.4283 H         1 AD5         0.1391
     44 H15       -33.4134  -18.6113   -8.6988 H         1 AD5         0.2116
     45 H16       -33.3070  -17.2094   -6.8403 H         1 AD5         0.0504
     46 H17       -32.9222  -14.9549   -5.9845 H         1 AD5         0.0489
     47 H18       -33.9673  -15.6182  -10.7603 H         1 AD5         0.0504
     48 H19       -33.5820  -13.3548   -9.9159 H         1 AD5         0.0489
     49 H20       -34.5084  -11.4885   -6.5791 H         1 AD5         0.0532
     50 H21       -34.7140  -11.9306   -8.3079 H         1 AD5         0.0532
     51 H22       -34.0600   -9.5447   -7.9599 H         1 AD5         0.0579
     52 H23       -32.8861  -10.4752   -8.9513 H         1 AD5         0.0579
     53 H24       -30.4652  -10.7102   -6.3379 H         1 AD5         0.0579
     54 H25       -30.8449  -11.0973   -8.0504 H         1 AD5         0.0579
     55 H26       -31.0326  -13.1225   -6.7778 H         1 AD5         0.0532
     56 H27       -32.0617  -12.3195   -5.5437 H         1 AD5         0.0532
@<TRIPOS>BOND
     1    1    2 1  
     2    1    6 1  
     3    2    3 1  
     4    3    4 1  
     5    4    5 1  
     6    5    6 1  
     7    6    7 1  
     8    7    8 1  
     9    8    9 ar 
    10    8   10 ar 
    11    9   16 ar 
    12   10   11 1  
    13   10   14 ar 
    14   11   12 1  
    15   12   13 2  
    16   13   14 1  
    17   14   15 ar 
    18   15   16 ar 
    19   16   17 1  
    20   17   18 1  
    21   18   19 ar 
    22   18   21 ar 
    23   19   20 ar 
    24   20   23 ar 
    25   21   22 ar 
    26   22   23 ar 
    27   23   24 1  
    28   24   25 1  
    29   24   29 1  
    30   25   26 1  
    31   26   27 1  
    32   27   28 1  
    33   28   29 1  
    34    1   30 1  
    35    1   31 1  
    36    2   32 1  
    37    2   33 1  
    38    3   34 1  
    39    3   35 1  
    40    4   36 1  
    41    4   37 1  
    42    5   38 1  
    43    5   39 1  
    44    6   40 1  
    45    7   41 1  
    46   11   42 1  
    47   12   43 1  
    48   17   44 1  
    49   19   45 1  
    50   20   46 1  
    51   21   47 1  
    52   22   48 1  
    53   25   49 1  
    54   25   50 1  
    55   26   51 1  
    56   26   52 1  
    57   28   53 1  
    58   28   54 1  
    59   29   55 1  
    60   29   56 1  
@<TRIPOS>SUBSTRUCTURE
     1 AD5         1

