### 
### Created by X-TOOL on Mon Sep 10 21:13:30 2018
### 

@<TRIPOS>MOLECULE
5ljq_ligand
   37    39     1     0     0
SMALL
GAST_HUCK


@<TRIPOS>ATOM
      1 C1         -0.7810    7.3030   12.2750 C.3       1 ANV         0.1056
      2 O2         -0.2600    8.1720   13.2800 O.3       1 ANV        -0.3090
      3 C4         -0.7440    9.4520   13.3890 C.ar      1 ANV         0.0932
      4 C5         -0.1750   10.2240   14.3900 C.ar      1 ANV        -0.0330
      5 C6         -0.5790   11.5390   14.5470 C.ar      1 ANV        -0.0706
      6 C7         -1.5420   12.0790   13.7190 C.ar      1 ANV        -0.0729
      7 C8         -2.1120   11.3040   12.7310 C.ar      1 ANV        -0.0706
      8 C9         -1.7200    9.9880   12.5580 C.ar      1 ANV        -0.0330
      9 C16        -1.9770    6.5980   12.8090 C.2       1 ANV         0.0698
     10 C17        -2.0590    5.4430   13.5260 C.2       1 ANV         0.0868
     11 N18        -3.3750    5.2650   13.7670 N.pl3     1 ANV        -0.1375
     12 N19        -4.0950    6.2700   13.2150 N.2       1 ANV        -0.0892
     13 N20        -3.2390    7.0790   12.6330 N.2       1 ANV        -0.2218
     14 C21        -4.0170    4.2060   14.4740 C.ar      1 ANV         0.1174
     15 C22        -3.2670    3.1410   14.9310 C.ar      1 ANV        -0.0222
     16 C23        -3.8710    2.1020   15.6090 C.ar      1 ANV        -0.0385
     17 C24        -5.2340    2.1410   15.8480 C.ar      1 ANV         0.1016
     18 C25        -6.0020    3.2050   15.3950 C.ar      1 ANV        -0.0385
     19 C26        -5.3910    4.2400   14.7020 C.ar      1 ANV        -0.0222
     20 S27        -5.9760    0.8450   16.7830 S.o2      1 ANV         0.0630
     21 O28        -5.4630    0.9530   18.1170 O.2       1 ANV        -0.1513
     22 O29        -7.3950    0.9430   16.5870 O.2       1 ANV        -0.1513
     23 N30        -5.4700   -0.5400   16.1670 N.am      1 ANV        -0.2616
     24 H1         -0.0149    6.5657   11.9931 H         1 ANV         0.0733
     25 H2         -1.0658    7.8922   11.3909 H         1 ANV         0.0733
     26 H3          0.5795    9.8019   15.0440 H         1 ANV         0.0542
     27 H4         -0.1357   12.1488   15.3259 H         1 ANV         0.0589
     28 H5         -1.8499   13.1107   13.8451 H         1 ANV         0.0523
     29 H6         -2.8723   11.7285   12.0854 H         1 ANV         0.0589
     30 H7         -2.1704    9.3809   11.7811 H         1 ANV         0.0542
     31 H8         -1.2375    4.7999   13.8384 H         1 ANV         0.0909
     32 H9         -2.1974    3.1208   14.7562 H         1 ANV         0.0593
     33 H10        -3.2814    1.2598   15.9526 H         1 ANV         0.0621
     34 H11        -7.0697    3.2270   15.5811 H         1 ANV         0.0621
     35 H12        -5.9814    5.0734   14.3387 H         1 ANV         0.0593
     36 H13        -5.7801   -1.4053   16.5608 H         1 ANV         0.1634
     37 H14        -4.8433   -0.5414   15.3877 H         1 ANV         0.1634
@<TRIPOS>BOND
     1    1    2 1  
     2    1    9 1  
     3    2    3 1  
     4    3    4 ar 
     5    3    8 ar 
     6    4    5 ar 
     7    5    6 ar 
     8    6    7 ar 
     9    7    8 ar 
    10    9   10 2  
    11    9   13 1  
    12   10   11 1  
    13   11   12 1  
    14   11   14 1  
    15   12   13 2  
    16   14   15 ar 
    17   14   19 ar 
    18   15   16 ar 
    19   16   17 ar 
    20   17   18 ar 
    21   17   20 1  
    22   18   19 ar 
    23   20   21 2  
    24   20   22 2  
    25   20   23 am 
    26    1   24 1  
    27    1   25 1  
    28    4   26 1  
    29    5   27 1  
    30    6   28 1  
    31    7   29 1  
    32    8   30 1  
    33   10   31 1  
    34   15   32 1  
    35   16   33 1  
    36   18   34 1  
    37   19   35 1  
    38   23   36 1  
    39   23   37 1  
@<TRIPOS>SUBSTRUCTURE
     1 ANV         1

