### 
### Created by X-TOOL on Mon Sep 10 21:13:30 2018
### 

@<TRIPOS>MOLECULE
5ljt_ligand
   37    39     1     0     0
SMALL
GAST_HUCK


@<TRIPOS>ATOM
      1 C1         -2.4840    5.7580   13.8660 C.3       1 A6N         0.1056
      2 O2         -3.8630    5.6570   14.2240 O.3       1 A6N        -0.3090
      3 C4         -4.3390    4.4830   14.7490 C.ar      1 A6N         0.0933
      4 C5         -5.6810    4.4490   15.0920 C.ar      1 A6N        -0.0311
      5 C6         -6.2140    3.3190   15.6890 C.ar      1 A6N        -0.0441
      6 C7         -5.3940    2.2290   15.9430 C.ar      1 A6N         0.0967
      7 C8         -4.0580    2.2520   15.5790 C.ar      1 A6N        -0.0441
      8 C9         -3.5330    3.3780   14.9720 C.ar      1 A6N        -0.0311
      9 C16        -2.1310    7.1950   13.7280 C.2       1 A6N         0.0698
     10 C17        -2.2460    8.0230   12.6520 C.2       1 A6N         0.0868
     11 N18        -1.8090    9.2250   13.0800 N.pl3     1 A6N        -0.1375
     12 N19        -1.4230    9.1520   14.3770 N.2       1 A6N        -0.0892
     13 N20        -1.6230    7.9140   14.7660 N.2       1 A6N        -0.2218
     14 C21        -1.7490   10.4640   12.3760 C.ar      1 A6N         0.1173
     15 C22        -1.9170   11.6600   13.0630 C.ar      1 A6N        -0.0240
     16 C23        -1.9040   12.8550   12.3660 C.ar      1 A6N        -0.0651
     17 C24        -1.7260   12.8630   10.9940 C.ar      1 A6N        -0.0681
     18 C25        -1.5540   11.6710   10.3140 C.ar      1 A6N        -0.0651
     19 C26        -1.5630   10.4680   10.9990 C.ar      1 A6N        -0.0240
     20 S1         -6.0280    0.8400   16.8330 S.o2      1 A6N         0.0609
     21 O3         -7.4500    0.8630   16.6790 O.2       1 A6N        -0.1519
     22 O4         -5.4800    0.9090   18.1570 O.2       1 A6N        -0.1519
     23 N5         -5.4740   -0.4890   16.1360 N.am      1 A6N        -0.2621
     24 H1         -2.3109    5.2411   12.9106 H         1 A6N         0.0733
     25 H2         -1.8636    5.2982   14.6494 H         1 A6N         0.0733
     26 H3         -6.3134    5.3066   14.8931 H         1 A6N         0.0542
     27 H4         -7.2641    3.2862   15.9559 H         1 A6N         0.0608
     28 H5         -3.4269    1.3914   15.7690 H         1 A6N         0.0608
     29 H6         -2.4918    3.3964   14.6708 H         1 A6N         0.0542
     30 H7         -2.6125    7.7685   11.6586 H         1 A6N         0.0909
     31 H8         -2.0573   11.6568   14.1379 H         1 A6N         0.0593
     32 H9         -2.0340   13.7905   12.8980 H         1 A6N         0.0602
     33 H10        -1.7214   13.8022   10.4528 H         1 A6N         0.0563
     34 H11        -1.4115   11.6788    9.2394 H         1 A6N         0.0602
     35 H12        -1.4258    9.5350   10.4645 H         1 A6N         0.0593
     36 H13        -5.7251   -1.3861   16.4995 H         1 A6N         0.1633
     37 H14        -4.8766   -0.4227   15.3368 H         1 A6N         0.1633
@<TRIPOS>BOND
     1    1    2 1  
     2    1    9 1  
     3    2    3 1  
     4    3    4 ar 
     5    3    8 ar 
     6    4    5 ar 
     7    5    6 ar 
     8    6    7 ar 
     9    6   20 1  
    10    7    8 ar 
    11    9   10 2  
    12    9   13 1  
    13   10   11 1  
    14   11   12 1  
    15   11   14 1  
    16   12   13 2  
    17   14   15 ar 
    18   14   19 ar 
    19   15   16 ar 
    20   16   17 ar 
    21   17   18 ar 
    22   18   19 ar 
    23   20   21 2  
    24   20   22 2  
    25   20   23 am 
    26    1   24 1  
    27    1   25 1  
    28    4   26 1  
    29    5   27 1  
    30    7   28 1  
    31    8   29 1  
    32   10   30 1  
    33   15   31 1  
    34   16   32 1  
    35   17   33 1  
    36   18   34 1  
    37   19   35 1  
    38   23   36 1  
    39   23   37 1  
@<TRIPOS>SUBSTRUCTURE
     1 A6N         1

