### 
### Created by X-TOOL on Mon Sep 10 21:13:28 2018
### 

@<TRIPOS>MOLECULE
5lkr_ligand
   56    58     1     0     0
SMALL
GAST_HUCK


@<TRIPOS>ATOM
      1 CAU       -39.6510   50.0760  -14.2050 C.ar      1 6YC        -0.0329
      2 CAV       -39.1140   50.2240  -15.4830 C.ar      1 6YC        -0.0116
      3 CBA       -38.5020   49.1390  -16.1060 C.ar      1 6YC        -0.0517
      4 CAZ       -37.9520   49.2980  -17.3710 C.ar      1 6YC        -0.0596
      5 CAY       -38.0260   50.5230  -18.0310 C.ar      1 6YC        -0.0598
      6 CAX       -38.6420   51.6040  -17.4130 C.ar      1 6YC        -0.0524
      7 CAW       -39.1830   51.4520  -16.1410 C.ar      1 6YC        -0.0152
      8 CAT       -39.7940   52.5360  -15.5300 C.ar      1 6YC        -0.0509
      9 CAS       -40.3320   52.3860  -14.2590 C.ar      1 6YC        -0.0432
     10 CAR       -40.2730   51.1640  -13.5940 C.ar      1 6YC         0.0505
     11 CAB       -40.8480   51.1190  -12.3240 C.2       1 6YC         0.2072
     12 OAA       -40.2330   51.5600  -11.3490 O.2       1 6YC        -0.3847
     13 NAC       -42.1200   50.6610  -12.2630 N.am      1 6YC        -0.2698
     14 CAD       -42.8620   50.1530  -13.4470 C.3       1 6YC         0.0567
     15 CAE       -43.8960   49.0990  -13.0260 C.3       1 6YC         0.0676
     16 OAF       -43.4850   47.7890  -13.4440 O.3       1 6YC        -0.3810
     17 CAG       -42.3880   47.3130  -12.6560 C.3       1 6YC         0.0365
     18 CAH       -42.8590   50.6680  -10.9920 C.3       1 6YC         0.0411
     19 CAI       -43.1800   52.1370  -10.6500 C.3       1 6YC         0.0197
     20 CAQ       -44.0030   52.2150   -9.3820 C.3       1 6YC        -0.0262
     21 CAJ       -43.9540   52.8150  -11.7770 C.3       1 6YC        -0.0387
     22 CAK       -44.2460   54.2490  -11.3910 C.3       1 6YC        -0.0120
     23 CAL       -45.0580   54.2500  -10.1090 C.3       1 6YC        -0.0310
     24 NAM       -44.3070   53.6110   -9.0180 N.4       1 6YC         0.2443
     25 CAN       -43.0800   54.3850   -8.7570 C.3       1 6YC         0.0307
     26 CAO       -42.1490   53.6390   -7.9290 C.1       1 6YC        -0.0562
     27 CAP       -41.4330   53.0540   -7.2990 C.1       1 6YC        -0.1140
     28 H1        -39.5856   49.1238  -13.6911 H         1 6YC         0.0695
     29 H2        -38.4554   48.1777  -15.6071 H         1 6YC         0.0636
     30 H3        -37.4595   48.4598  -17.8505 H         1 6YC         0.0622
     31 H4        -37.6042   50.6321  -19.0236 H         1 6YC         0.0630
     32 H5        -38.7006   52.5606  -17.9195 H         1 6YC         0.0626
     33 H6        -39.8511   53.4911  -16.0395 H         1 6YC         0.0627
     34 H7        -40.8055   53.2335  -13.7767 H         1 6YC         0.0652
     35 H8        -42.1502   49.6993  -14.1523 H         1 6YC         0.0544
     36 H9        -43.3793   50.9914  -13.9364 H         1 6YC         0.0544
     37 H10       -44.8646   49.3383  -13.4892 H         1 6YC         0.0580
     38 H11       -43.9999   49.1124  -11.9310 H         1 6YC         0.0580
     39 H12       -42.0975   46.3095  -13.0003 H         1 6YC         0.0523
     40 H13       -42.6893   47.2650  -11.5992 H         1 6YC         0.0523
     41 H14       -41.5346   47.9987  -12.7633 H         1 6YC         0.0523
     42 H15       -42.2426   50.2235  -10.1968 H         1 6YC         0.0526
     43 H16       -43.7918   50.0945  -11.0968 H         1 6YC         0.0526
     44 H17       -42.2327   52.6746  -10.4966 H         1 6YC         0.0372
     45 H18       -43.4399   51.7466   -8.5614 H         1 6YC         0.0818
     46 H19       -44.9474   51.6722   -9.5353 H         1 6YC         0.0818
     47 H20       -44.9002   52.2802  -11.9465 H         1 6YC         0.0272
     48 H21       -43.3528   52.7976  -12.6980 H         1 6YC         0.0272
     49 H22       -44.8183   54.7392  -12.1923 H         1 6YC         0.0317
     50 H23       -43.3013   54.7895  -11.2316 H         1 6YC         0.0317
     51 H24       -45.9948   53.6977  -10.2744 H         1 6YC         0.0815
     52 H25       -45.2890   55.2883   -9.8286 H         1 6YC         0.0815
     53 H26       -44.8724   53.6106   -8.1835 H         1 6YC         0.2043
     54 H27       -43.3487   55.3187   -8.2412 H         1 6YC         0.0959
     55 H28       -42.5956   54.6220   -9.7157 H         1 6YC         0.0959
     56 H29       -40.7572   52.5019   -6.7044 H         1 6YC         0.1230
@<TRIPOS>BOND
     1    1    2 ar 
     2    1   10 ar 
     3    2    3 ar 
     4    2    7 ar 
     5    3    4 ar 
     6    4    5 ar 
     7    5    6 ar 
     8    6    7 ar 
     9    7    8 ar 
    10    8    9 ar 
    11    9   10 ar 
    12   10   11 1  
    13   11   12 2  
    14   11   13 am 
    15   13   14 1  
    16   13   18 1  
    17   14   15 1  
    18   15   16 1  
    19   16   17 1  
    20   18   19 1  
    21   19   20 1  
    22   19   21 1  
    23   20   24 1  
    24   21   22 1  
    25   22   23 1  
    26   23   24 1  
    27   24   25 1  
    28   25   26 1  
    29   26   27 3  
    30    1   28 1  
    31    3   29 1  
    32    4   30 1  
    33    5   31 1  
    34    6   32 1  
    35    8   33 1  
    36    9   34 1  
    37   14   35 1  
    38   14   36 1  
    39   15   37 1  
    40   15   38 1  
    41   17   39 1  
    42   17   40 1  
    43   17   41 1  
    44   18   42 1  
    45   18   43 1  
    46   19   44 1  
    47   20   45 1  
    48   20   46 1  
    49   21   47 1  
    50   21   48 1  
    51   22   49 1  
    52   22   50 1  
    53   23   51 1  
    54   23   52 1  
    55   24   53 1  
    56   25   54 1  
    57   25   55 1  
    58   27   56 1  
@<TRIPOS>SUBSTRUCTURE
     1 6YC         1

