### 
### Created by X-TOOL on Mon Sep 10 21:13:30 2018
### 

@<TRIPOS>MOLECULE
5ll4_ligand
   35    37     1     0     0
SMALL
GAST_HUCK


@<TRIPOS>ATOM
      1 O12         5.8350    8.0710   -2.5550 O.2       1 6YH        -0.3755
      2 C11         6.5420    7.0970   -2.2830 C.2       1 6YH         0.1626
      3 C4          6.0160    5.9750   -1.4800 C.ar      1 6YH         0.0355
      4 C3          4.6810    6.0390   -1.0900 C.ar      1 6YH        -0.0411
      5 C2          4.1960    4.9920   -0.2940 C.ar      1 6YH        -0.0292
      6 C5          6.8360    4.9300   -1.0520 C.ar      1 6YH        -0.0411
      7 C6          6.3430    3.9060   -0.2750 C.ar      1 6YH        -0.0292
      8 C1          4.9820    3.9130    0.0600 C.ar      1 6YH         0.1125
      9 S7          4.3100    2.5880    1.0180 S.o2      1 6YH         0.0678
     10 O9          4.9060    2.7670    2.3420 O.2       1 6YH        -0.1499
     11 N10         4.8220    1.2170    0.3690 N.am      1 6YH        -0.2605
     12 O8          2.9070    2.6870    0.9120 O.2       1 6YH        -0.1499
     13 C13         8.0380    7.1060   -2.4150 C.3       1 6YH         0.1315
     14 N14         8.4070    8.3400   -3.1350 N.pl3     1 6YH        -0.2192
     15 C18         8.6740    9.5130   -2.4800 C.ar      1 6YH         0.0884
     16 C20         8.7440    9.7690   -1.1660 C.ar      1 6YH        -0.0388
     17 C21         9.1050   11.0430   -0.7500 C.ar      1 6YH        -0.0742
     18 C22         9.3320   12.0510   -1.6730 C.ar      1 6YH        -0.0759
     19 C23         9.2790   11.7960   -3.0300 C.ar      1 6YH        -0.0611
     20 C19         8.9510   10.4710   -3.4020 C.ar      1 6YH         0.0337
     21 N17         8.8280    9.9420   -4.6430 N.2       1 6YH        -0.3059
     22 C16         8.4050    8.6520   -4.4400 C.2       1 6YH         0.1081
     23 H1          4.0438    6.8633   -1.3891 H         1 6YH         0.0672
     24 H2          3.1705    5.0305    0.0551 H         1 6YH         0.0649
     25 H3          7.8819    4.9245   -1.3370 H         1 6YH         0.0672
     26 H4          6.9938    3.1109    0.0705 H         1 6YH         0.0649
     27 H5          4.5494    0.3420    0.7691 H         1 6YH         0.1635
     28 H6          5.4144    1.2356   -0.4364 H         1 6YH         0.1635
     29 H7          8.3712    6.2248   -2.9829 H         1 6YH         0.0834
     30 H8          8.5040    7.0978   -1.4186 H         1 6YH         0.0834
     31 H9          8.5225    8.9943   -0.4408 H         1 6YH         0.0550
     32 H10         9.2105   11.2516    0.3085 H         1 6YH         0.0545
     33 H11         9.5543   13.0536   -1.3258 H         1 6YH         0.0524
     34 H12         9.4772   12.5662   -3.7666 H         1 6YH         0.0556
     35 H13         8.1065    7.9702   -5.2350 H         1 6YH         0.1355
@<TRIPOS>BOND
     1    1    2 2  
     2    2    3 1  
     3    2   13 1  
     4    3    4 ar 
     5    3    6 ar 
     6    4    5 ar 
     7    5    8 ar 
     8    6    7 ar 
     9    7    8 ar 
    10    8    9 1  
    11    9   10 2  
    12    9   11 am 
    13    9   12 2  
    14   13   14 1  
    15   14   15 1  
    16   14   22 1  
    17   15   16 ar 
    18   15   20 ar 
    19   16   17 ar 
    20   17   18 ar 
    21   18   19 ar 
    22   19   20 ar 
    23   20   21 1  
    24   21   22 2  
    25    4   23 1  
    26    5   24 1  
    27    6   25 1  
    28    7   26 1  
    29   11   27 1  
    30   11   28 1  
    31   13   29 1  
    32   13   30 1  
    33   16   31 1  
    34   17   32 1  
    35   18   33 1  
    36   19   34 1  
    37   22   35 1  
@<TRIPOS>SUBSTRUCTURE
     1 6YH         1

