### 
### Created by X-TOOL on Mon Sep 10 21:13:31 2018
### 

@<TRIPOS>MOLECULE
5ll5_ligand
   35    37     1     0     0
SMALL
GAST_HUCK


@<TRIPOS>ATOM
      1 O12        27.6040    7.5220   11.0450 O.2       1 6YH        -0.3755
      2 C11        26.3900    7.5430   11.0600 C.2       1 6YH         0.1626
      3 C4         25.7030    6.2610   10.8420 C.ar      1 6YH         0.0355
      4 C3         24.3050    6.1770   10.8560 C.ar      1 6YH        -0.0411
      5 C2         23.6780    4.9350   10.6310 C.ar      1 6YH        -0.0292
      6 C5         26.5040    5.1560   10.4770 C.ar      1 6YH        -0.0411
      7 C6         25.8700    3.9200   10.2470 C.ar      1 6YH        -0.0292
      8 C1         24.4540    3.8830   10.2910 C.ar      1 6YH         0.1125
      9 S7         23.5830    2.3540    9.9390 S.o2      1 6YH         0.0678
     10 O9         22.8970    2.4960    8.6020 O.2       1 6YH        -0.1499
     11 N10        22.6040    2.1460   11.1290 N.am      1 6YH        -0.2605
     12 O8         24.6360    1.2600    9.9510 O.2       1 6YH        -0.1499
     13 C13        25.6070    8.8300   11.1820 C.3       1 6YH         0.1315
     14 N14        26.4430   10.0440   11.3300 N.pl3     1 6YH        -0.2192
     15 C18        26.8910   10.8140   10.2930 C.ar      1 6YH         0.0884
     16 C20        26.7110   10.6710    8.9200 C.ar      1 6YH        -0.0388
     17 C21        27.2690   11.6560    8.0610 C.ar      1 6YH        -0.0742
     18 C22        28.0490   12.7110    8.5710 C.ar      1 6YH        -0.0759
     19 C23        28.2280   12.8360    9.9610 C.ar      1 6YH        -0.0611
     20 C19        27.6280   11.8720   10.8170 C.ar      1 6YH         0.0337
     21 N17        27.6610   11.7860   12.1920 N.2       1 6YH        -0.3059
     22 C16        26.9210   10.6550   12.4760 C.2       1 6YH         0.1081
     23 H1         23.7080    7.0631   11.0390 H         1 6YH         0.0672
     24 H2         22.6038    4.8271   10.7280 H         1 6YH         0.0649
     25 H3         27.5786    5.2570   10.3766 H         1 6YH         0.0672
     26 H4         26.4467    3.0251   10.0428 H         1 6YH         0.0649
     27 H5         22.0053    1.3453   11.1498 H         1 6YH         0.1635
     28 H6         22.5731    2.8129   11.8735 H         1 6YH         0.1635
     29 H7         24.9537    8.7528   12.0636 H         1 6YH         0.0834
     30 H8         24.9910    8.9448   10.2779 H         1 6YH         0.0834
     31 H9         26.1593    9.8297    8.5164 H         1 6YH         0.0550
     32 H10        27.0907   11.5938    6.9936 H         1 6YH         0.0545
     33 H11        28.5094   13.4236    7.8962 H         1 6YH         0.0524
     34 H12        28.8122   13.6516   10.3715 H         1 6YH         0.0556
     35 H13        26.7353   10.2870   13.4840 H         1 6YH         0.1355
@<TRIPOS>BOND
     1    1    2 2  
     2    2    3 1  
     3    2   13 1  
     4    3    4 ar 
     5    3    6 ar 
     6    4    5 ar 
     7    5    8 ar 
     8    6    7 ar 
     9    7    8 ar 
    10    8    9 1  
    11    9   10 2  
    12    9   11 am 
    13    9   12 2  
    14   13   14 1  
    15   14   15 1  
    16   14   22 1  
    17   15   16 ar 
    18   15   20 ar 
    19   16   17 ar 
    20   17   18 ar 
    21   18   19 ar 
    22   19   20 ar 
    23   20   21 1  
    24   21   22 2  
    25    4   23 1  
    26    5   24 1  
    27    6   25 1  
    28    7   26 1  
    29   11   27 1  
    30   11   28 1  
    31   13   29 1  
    32   13   30 1  
    33   16   31 1  
    34   17   32 1  
    35   18   33 1  
    36   19   34 1  
    37   22   35 1  
@<TRIPOS>SUBSTRUCTURE
     1 6YH         1

