### 
### Created by X-TOOL on Mon Sep 10 21:13:31 2018
### 

@<TRIPOS>MOLECULE
5ll9_ligand
   35    37     1     0     0
SMALL
GAST_HUCK


@<TRIPOS>ATOM
      1 CL1        26.0000    3.2550    7.6100 Cl        1 6YQ        -0.0674
      2 C6         25.7370    4.1070    9.0800 C.ar      1 6YQ         0.0727
      3 C1         24.7000    3.7490   10.0080 C.ar      1 6YQ         0.1264
      4 S7         23.6780    2.2950    9.7310 S.o2      1 6YQ         0.0683
      5 O9         22.9160    2.4840    8.5010 O.2       1 6YQ        -0.1499
      6 N10        22.7620    2.1840   10.9880 N.am      1 6YQ        -0.2605
      7 O8         24.6490    1.1140    9.7720 O.2       1 6YQ        -0.1499
      8 C5         26.5840    5.2290    9.4160 C.ar      1 6YQ        -0.0270
      9 C4         26.3880    5.9080   10.5560 C.ar      1 6YQ         0.0360
     10 C3         25.3770    5.6060   11.4880 C.ar      1 6YQ        -0.0410
     11 C2         24.5300    4.4920   11.2430 C.ar      1 6YQ        -0.0287
     12 C11        27.2950    7.0770   10.7190 C.2       1 6YQ         0.1626
     13 O12        28.2300    7.1590    9.9220 O.2       1 6YQ        -0.3754
     14 C13        26.9040    8.1390   11.6940 C.3       1 6YQ         0.1315
     15 N14        27.6690    9.3610   11.5260 N.pl3     1 6YQ        -0.2192
     16 C18        27.6320   10.2970   10.5420 C.ar      1 6YQ         0.0884
     17 C20        26.8070   10.4480    9.3980 C.ar      1 6YQ        -0.0388
     18 C21        27.0040   11.5520    8.5520 C.ar      1 6YQ        -0.0742
     19 C22        27.9990   12.5100    8.8360 C.ar      1 6YQ        -0.0759
     20 C23        28.8180   12.3540    9.9750 C.ar      1 6YQ        -0.0611
     21 C19        28.6200   11.2340   10.8220 C.ar      1 6YQ         0.0337
     22 N17        29.3010   10.8960   11.9540 N.2       1 6YQ        -0.3059
     23 C16        28.6950    9.7360   12.3810 C.2       1 6YQ         0.1081
     24 H1         22.0987    1.4390   11.0591 H         1 6YQ         0.1635
     25 H2         22.8379    2.8578   11.7230 H         1 6YQ         0.1635
     26 H3         27.3815    5.5232    8.7434 H         1 6YQ         0.0679
     27 H4         25.2471    6.2127   12.3769 H         1 6YQ         0.0673
     28 H5         23.7730    4.2032   11.9631 H         1 6YQ         0.0649
     29 H6         27.0672    7.7587   12.7132 H         1 6YQ         0.0834
     30 H7         25.8374    8.3694   11.5549 H         1 6YQ         0.0834
     31 H8         26.0339    9.7203    9.1793 H         1 6YQ         0.0550
     32 H9         26.3839   11.6688    7.6706 H         1 6YQ         0.0545
     33 H10        28.1345   13.3636    8.1817 H         1 6YQ         0.0524
     34 H11        29.5893   13.0818   10.1996 H         1 6YQ         0.0556
     35 H12        28.9837    9.1842   13.2744 H         1 6YQ         0.1355
@<TRIPOS>BOND
     1    1    2 1  
     2    2    3 ar 
     3    2    8 ar 
     4    3    4 1  
     5    3   11 ar 
     6    4    5 2  
     7    4    6 am 
     8    4    7 2  
     9    8    9 ar 
    10    9   10 ar 
    11    9   12 1  
    12   10   11 ar 
    13   12   13 2  
    14   12   14 1  
    15   14   15 1  
    16   15   16 1  
    17   15   23 1  
    18   16   17 ar 
    19   16   21 ar 
    20   17   18 ar 
    21   18   19 ar 
    22   19   20 ar 
    23   20   21 ar 
    24   21   22 1  
    25   22   23 2  
    26    6   24 1  
    27    6   25 1  
    28    8   26 1  
    29   10   27 1  
    30   11   28 1  
    31   14   29 1  
    32   14   30 1  
    33   17   31 1  
    34   18   32 1  
    35   19   33 1  
    36   20   34 1  
    37   23   35 1  
@<TRIPOS>SUBSTRUCTURE
     1 6YQ         1

