### 
### Created by X-TOOL on Mon Sep 10 21:13:32 2018
### 

@<TRIPOS>MOLECULE
5lla_ligand
   35    37     1     0     0
SMALL
GAST_HUCK


@<TRIPOS>ATOM
      1 CL1        -6.6740   -5.0570   19.2040 Cl        1 6YQ        -0.0674
      2 C6         -6.7470   -3.4660   18.4610 C.ar      1 6YQ         0.0727
      3 C1         -6.3340   -3.3080   17.1160 C.ar      1 6YQ         0.1264
      4 S7         -5.6670   -4.5940   16.0780 S.o2      1 6YQ         0.0683
      5 O9         -4.4720   -5.3250   16.5680 O.2       1 6YQ        -0.1499
      6 N10        -5.4410   -3.8270   14.4210 N.am      1 6YQ        -0.2605
      7 O8         -6.8260   -5.3580   15.6090 O.2       1 6YQ        -0.1499
      8 C5         -7.2370   -2.3810   19.2160 C.ar      1 6YQ        -0.0270
      9 C4         -7.3020   -1.1080   18.6660 C.ar      1 6YQ         0.0360
     10 C3         -6.8790   -1.0020   17.3350 C.ar      1 6YQ        -0.0410
     11 C2         -6.4140   -2.0470   16.5640 C.ar      1 6YQ        -0.0287
     12 C11        -7.7720    0.0640   19.4390 C.2       1 6YQ         0.1626
     13 O12        -8.7110   -0.0730   20.2260 O.2       1 6YQ        -0.3754
     14 C13        -7.0740    1.4270   19.3070 C.3       1 6YQ         0.1315
     15 N14        -7.3900    2.3290   20.4560 N.pl3     1 6YQ        -0.2192
     16 C18        -6.9050    2.2200   21.7370 C.ar      1 6YQ         0.0884
     17 C20        -5.9840    1.3000   22.2830 C.ar      1 6YQ        -0.0388
     18 C21        -5.6780    1.4370   23.6680 C.ar      1 6YQ        -0.0742
     19 C22        -6.2490    2.4880   24.4650 C.ar      1 6YQ        -0.0759
     20 C23        -7.1580    3.4040   23.8770 C.ar      1 6YQ        -0.0611
     21 C19        -7.4600    3.2300   22.5080 C.ar      1 6YQ         0.0337
     22 N17        -8.2990    3.9790   21.7350 N.2       1 6YQ        -0.3059
     23 C16        -8.2500    3.4040   20.4920 C.2       1 6YQ         0.1081
     24 H1         -5.0728   -4.3686   13.6653 H         1 6YQ         0.1635
     25 H2         -5.6864   -2.8685   14.2760 H         1 6YQ         0.1635
     26 H3         -7.5663   -2.5423   20.2361 H         1 6YQ         0.0679
     27 H4         -6.9203   -0.0215   16.8745 H         1 6YQ         0.0673
     28 H5         -6.1148   -1.8788   15.5358 H         1 6YQ         0.0649
     29 H6         -7.4067    1.9081   18.3754 H         1 6YQ         0.0834
     30 H7         -5.9863    1.2673   19.2691 H         1 6YQ         0.0834
     31 H8         -5.5302    0.5247   21.6764 H         1 6YQ         0.0550
     32 H9         -4.9981    0.7315   24.1317 H         1 6YQ         0.0545
     33 H10        -5.9856    2.5802   25.5125 H         1 6YQ         0.0524
     34 H11        -7.6033    4.2057   24.4550 H         1 6YQ         0.0556
     35 H12        -8.8228    3.7552   19.6350 H         1 6YQ         0.1355
@<TRIPOS>BOND
     1    1    2 1  
     2    2    3 ar 
     3    2    8 ar 
     4    3    4 1  
     5    3   11 ar 
     6    4    5 2  
     7    4    6 am 
     8    4    7 2  
     9    8    9 ar 
    10    9   10 ar 
    11    9   12 1  
    12   10   11 ar 
    13   12   13 2  
    14   12   14 1  
    15   14   15 1  
    16   15   16 1  
    17   15   23 1  
    18   16   17 ar 
    19   16   21 ar 
    20   17   18 ar 
    21   18   19 ar 
    22   19   20 ar 
    23   20   21 ar 
    24   21   22 1  
    25   22   23 2  
    26    6   24 1  
    27    6   25 1  
    28    8   26 1  
    29   10   27 1  
    30   11   28 1  
    31   14   29 1  
    32   14   30 1  
    33   17   31 1  
    34   18   32 1  
    35   19   33 1  
    36   20   34 1  
    37   23   35 1  
@<TRIPOS>SUBSTRUCTURE
     1 6YQ         1

