### 
### Created by X-TOOL on Wed Jan  1 15:39:34 2020
### 

@<TRIPOS>MOLECULE
5llc_ligand
   41    42     1     0     0
SMALL
GAST_HUCK


@<TRIPOS>ATOM
      1 O16        -3.3580    6.4880   12.8080 O.2       1 V26        -0.1718
      2 S14        -2.5100    5.6090   13.6470 S.o2      1 V26        -0.0056
      3 O15        -1.7430    6.3010   14.6720 O.2       1 V26        -0.1718
      4 C8         -3.5210    4.3840   14.4390 C.ar      1 V26         0.1355
      5 C7         -2.8460    3.4430   15.2340 C.ar      1 V26         0.1761
      6 F12        -1.5340    3.5140   15.4000 F         1 V26        -0.1890
      7 C6         -3.5500    2.3900   15.8300 C.ar      1 V26         0.1773
      8 F11        -2.8390    1.4740   16.5060 F         1 V26        -0.1943
      9 C9         -4.9180    4.2640   14.2720 C.ar      1 V26         0.0931
     10 N25        -5.6480    5.1460   13.5040 N.pl3     1 V26        -0.3271
     11 C26        -6.7750    4.7220   12.6630 C.3       1 V26         0.0110
     12 C10        -5.5650    3.2280   14.9960 C.ar      1 V26         0.1707
     13 F13        -6.8900    3.2540   14.9420 F         1 V26        -0.1949
     14 C5         -4.9490    2.2680   15.7770 C.ar      1 V26         0.1616
     15 S1         -5.7320    0.9550   16.7090 S.o2      1 V26         0.0636
     16 O3         -5.1870    1.1800   18.0420 O.2       1 V26        -0.1519
     17 N4         -5.2810   -0.4340   16.1090 N.am      1 V26        -0.2621
     18 O2         -7.1420    1.1230   16.5090 O.2       1 V26        -0.1519
     19 C17        -1.3850    4.7120   12.6080 C.3       1 V26         0.0778
     20 C18        -2.0140    4.1800   11.3240 C.3       1 V26         0.0004
     21 C19        -2.9170    3.0220   11.4620 C.ar      1 V26        -0.0415
     22 C24        -2.7740    1.9620   12.4000 C.ar      1 V26        -0.0603
     23 C23        -3.6560    0.9350   12.5190 C.ar      1 V26        -0.0686
     24 C22        -4.7380    0.9100   11.6170 C.ar      1 V26        -0.0687
     25 C21        -4.9310    2.0070   10.7630 C.ar      1 V26        -0.0686
     26 C20        -4.0690    3.0750   10.7300 C.ar      1 V26        -0.0603
     27 H1         -5.3925    6.1437   13.5207 H         1 V26         0.1729
     28 H2         -7.1977    5.5972   12.1479 H         1 V26         0.0472
     29 H3         -7.5485    4.2583   13.2929 H         1 V26         0.0472
     30 H4         -6.4229    3.9930   11.9183 H         1 V26         0.0472
     31 H5         -5.6225   -1.2853   16.5073 H         1 V26         0.1633
     32 H6         -4.6538   -0.4625   15.3306 H         1 V26         0.1633
     33 H7         -0.9922    3.8584   13.1798 H         1 V26         0.0524
     34 H8         -0.5570    5.3827   12.3351 H         1 V26         0.0524
     35 H9         -1.1968    3.8874   10.6483 H         1 V26         0.0442
     36 H10        -2.5897    4.9999   10.8697 H         1 V26         0.0442
     37 H11        -1.9122    1.9742   13.0574 H         1 V26         0.0557
     38 H12        -3.5324    0.1682   13.2752 H         1 V26         0.0599
     39 H13        -5.4090    0.0593   11.5832 H         1 V26         0.0559
     40 H14        -5.7926    2.0111   10.1052 H         1 V26         0.0599
     41 H15        -4.2995    3.9486   10.1311 H         1 V26         0.0557
@<TRIPOS>BOND
     1    1    2 2  
     2    2    3 2  
     3    2    4 1  
     4    2   19 1  
     5    4    5 ar 
     6    4    9 ar 
     7    5    6 1  
     8    5    7 ar 
     9    7    8 1  
    10    7   14 ar 
    11    9   10 1  
    12    9   12 ar 
    13   10   11 1  
    14   12   13 1  
    15   12   14 ar 
    16   14   15 1  
    17   15   16 2  
    18   15   17 am 
    19   15   18 2  
    20   19   20 1  
    21   20   21 1  
    22   21   22 ar 
    23   21   26 ar 
    24   22   23 ar 
    25   23   24 ar 
    26   24   25 ar 
    27   25   26 ar 
    28   10   27 1  
    29   11   28 1  
    30   11   29 1  
    31   11   30 1  
    32   17   31 1  
    33   17   32 1  
    34   19   33 1  
    35   19   34 1  
    36   20   35 1  
    37   20   36 1  
    38   22   37 1  
    39   23   38 1  
    40   24   39 1  
    41   25   40 1  
    42   26   41 1  
@<TRIPOS>SUBSTRUCTURE
     1 V26         1

