### 
### Created by X-TOOL on Wed Jan  1 15:39:34 2020
### 

@<TRIPOS>MOLECULE
5lle_ligand
   43    46     1     0     0
SMALL
GAST_HUCK


@<TRIPOS>ATOM
      1 F14        -6.6900    3.5700   16.6240 F         1 V51        -0.1901
      2 C4         -5.8650    3.2710   15.5950 C.ar      1 V51         0.1745
      3 C5         -5.3330    2.0150   15.5190 C.ar      1 V51         0.1577
      4 S7         -5.8570    0.7900   16.7340 S.o2      1 V51         0.0599
      5 O9         -5.2980    1.0110   18.1270 O.2       1 V51        -0.1534
      6 N10        -5.2290   -0.7110   16.0980 N.am      1 V51        -0.2633
      7 O8         -7.3840    0.9580   16.8520 O.2       1 V51        -0.1534
      8 C6         -4.4930    1.7200   14.4230 C.ar      1 V51         0.1745
      9 F12        -3.9510    0.5100   14.1920 F         1 V51        -0.1901
     10 C1         -4.1330    2.7060   13.4870 C.ar      1 V51         0.1767
     11 F11        -3.2830    2.3080   12.5100 F         1 V51        -0.1983
     12 C3         -5.4950    4.2550   14.6820 C.ar      1 V51         0.1767
     13 F13        -6.0180    5.4560   14.8560 F         1 V51        -0.1983
     14 C2         -4.6410    4.0260   13.6030 C.ar      1 V51         0.1032
     15 N25        -4.3320    5.1210   12.7010 N.pl3     1 V51        -0.3188
     16 C19        -3.1170    5.9340   12.8020 C.3       1 V51         0.0457
     17 C18        -3.0490    6.6930   14.1570 C.3       1 V51        -0.0251
     18 C20        -3.1440    6.9510   11.6140 C.3       1 V51        -0.0251
     19 C24        -1.8040    5.1100   12.7010 C.3       1 V51        -0.0251
     20 C23        -0.5730    6.0750   12.7120 C.3       1 V51        -0.0383
     21 C21        -0.6250    7.1030   11.5430 C.3       1 V51        -0.0472
     22 C15        -1.9170    7.9270   11.6490 C.3       1 V51        -0.0383
     23 C22        -0.5400    6.8740   14.0330 C.3       1 V51        -0.0472
     24 C17        -1.8400    7.6740   14.1920 C.3       1 V51        -0.0383
     25 C16        -1.8980    8.6810   13.0010 C.3       1 V51        -0.0472
     26 H1         -5.3830   -1.5667   16.5920 H         1 V51         0.1632
     27 H2         -4.7155   -0.7145   15.2399 H         1 V51         0.1632
     28 H3         -5.0027    5.3380   11.9500 H         1 V51         0.1736
     29 H4         -2.9423    5.9627   14.9726 H         1 V51         0.0292
     30 H5         -3.9788    7.2642   14.2956 H         1 V51         0.0292
     31 H6         -4.0698    7.5421   11.6733 H         1 V51         0.0292
     32 H7         -3.1260    6.3916   10.6670 H         1 V51         0.0292
     33 H8         -1.8065    4.5315   11.7654 H         1 V51         0.0292
     34 H9         -1.7371    4.4225   13.5571 H         1 V51         0.0292
     35 H10         0.3444    5.4747   12.6228 H         1 V51         0.0302
     36 H11        -0.6082    6.5679   10.5821 H         1 V51         0.0271
     37 H12         0.2447    7.7737   11.6045 H         1 V51         0.0271
     38 H13        -1.9817    8.6432   10.8166 H         1 V51         0.0302
     39 H14         0.3148    7.5661   14.0194 H         1 V51         0.0271
     40 H15        -0.4346    6.1777   14.8780 H         1 V51         0.0271
     41 H16        -1.8386    8.2211   15.1463 H         1 V51         0.0302
     42 H17        -2.8094    9.2908   13.0875 H         1 V51         0.0271
     43 H18        -1.0144    9.3351   13.0376 H         1 V51         0.0271
@<TRIPOS>BOND
     1    1    2 1  
     2    2    3 ar 
     3    2   12 ar 
     4    3    4 1  
     5    3    8 ar 
     6    4    5 2  
     7    4    6 am 
     8    4    7 2  
     9    8    9 1  
    10    8   10 ar 
    11   10   11 1  
    12   10   14 ar 
    13   12   13 1  
    14   12   14 ar 
    15   14   15 1  
    16   15   16 1  
    17   16   17 1  
    18   16   18 1  
    19   16   19 1  
    20   17   24 1  
    21   18   22 1  
    22   19   20 1  
    23   20   21 1  
    24   20   23 1  
    25   21   22 1  
    26   22   25 1  
    27   23   24 1  
    28   24   25 1  
    29    6   26 1  
    30    6   27 1  
    31   15   28 1  
    32   17   29 1  
    33   17   30 1  
    34   18   31 1  
    35   18   32 1  
    36   19   33 1  
    37   19   34 1  
    38   20   35 1  
    39   21   36 1  
    40   21   37 1  
    41   22   38 1  
    42   23   39 1  
    43   23   40 1  
    44   24   41 1  
    45   25   42 1  
    46   25   43 1  
@<TRIPOS>SUBSTRUCTURE
     1 V51         1

