### 
### Created by X-TOOL on Wed Jan  1 15:39:34 2020
### 

@<TRIPOS>MOLECULE
5llg_ligand
   27    27     1     0     0
SMALL
GAST_HUCK


@<TRIPOS>ATOM
      1 O4         -5.3750    0.9020   18.1090 O.2       1 VD9        -0.1514
      2 S2         -5.9240    0.7870   16.8000 S.o2      1 VD9         0.0628
      3 O1         -7.3640    0.8430   16.6840 O.2       1 VD9        -0.1514
      4 N3         -5.4010   -0.5830   16.0810 N.am      1 VD9        -0.2617
      5 C5         -5.3610    2.1980   15.9020 C.ar      1 VD9         0.1010
      6 C10        -4.0210    2.2330   15.5340 C.ar      1 VD9        -0.0412
      7 C9         -3.5610    3.3850   14.8480 C.ar      1 VD9        -0.0480
      8 C8         -4.4450    4.4220   14.5210 C.ar      1 VD9         0.0154
      9 C7         -5.7950    4.3700   14.8720 C.ar      1 VD9        -0.0480
     10 C6         -6.2630    3.2490   15.5940 C.ar      1 VD9        -0.0412
     11 S11        -3.9420    5.8600   13.6220 S.3       1 VD9        -0.1017
     12 C12        -2.0640    5.8330   13.6550 C.3       1 VD9         0.0068
     13 C13        -1.5380    7.2170   13.2970 C.3       1 VD9        -0.0447
     14 C14        -1.6540    7.9300   14.6450 C.3       1 VD9        -0.0644
     15 H1         -4.4241   -0.7957   16.0612 H         1 VD9         0.1634
     16 H2         -6.0577   -1.2091   15.6606 H         1 VD9         0.1634
     17 H3         -3.3531    1.4105   15.7630 H         1 VD9         0.0619
     18 H4         -2.5153    3.4646   14.5737 H         1 VD9         0.0565
     19 H5         -6.4699    5.1723   14.5966 H         1 VD9         0.0565
     20 H6         -7.2988    3.1927   15.9088 H         1 VD9         0.0619
     21 H7         -1.6935    5.0983   12.9250 H         1 VD9         0.0401
     22 H8         -1.7174    5.5566   14.6617 H         1 VD9         0.0401
     23 H9         -2.1607    7.6999   12.5296 H         1 VD9         0.0272
     24 H10        -0.4949    7.1757   12.9502 H         1 VD9         0.0272
     25 H11        -1.3018    8.9671   14.5427 H         1 VD9         0.0230
     26 H12        -1.0389    7.4058   15.3912 H         1 VD9         0.0230
     27 H13        -2.7047    7.9301   14.9706 H         1 VD9         0.0230
@<TRIPOS>BOND
     1    1    2 2  
     2    2    3 2  
     3    2    4 am 
     4    2    5 1  
     5    5    6 ar 
     6    5   10 ar 
     7    6    7 ar 
     8    7    8 ar 
     9    8    9 ar 
    10    8   11 1  
    11    9   10 ar 
    12   11   12 1  
    13   12   13 1  
    14   13   14 1  
    15    4   15 1  
    16    4   16 1  
    17    6   17 1  
    18    7   18 1  
    19    9   19 1  
    20   10   20 1  
    21   12   21 1  
    22   12   22 1  
    23   13   23 1  
    24   13   24 1  
    25   14   25 1  
    26   14   26 1  
    27   14   27 1  
@<TRIPOS>SUBSTRUCTURE
     1 VD9         1

