### 
### Created by X-TOOL on Wed Jan  1 15:39:34 2020
### 

@<TRIPOS>MOLECULE
5llh_ligand
   30    32     1     0     0
SMALL
GAST_HUCK


@<TRIPOS>ATOM
      1 F14        -3.9720    0.3420   14.5320 F         1 V49        -0.1883
      2 C4         -4.5520    1.5610   14.5780 C.ar      1 V49         0.1809
      3 C5         -5.4120    1.9740   15.6070 C.ar      1 V49         0.1648
      4 S7         -5.8750    0.8720   16.9330 S.o2      1 V49         0.0629
      5 O9         -5.3500    1.2100   18.2990 O.2       1 V49        -0.1525
      6 N10        -5.3450   -0.7700   16.5680 N.am      1 V49        -0.2626
      7 O8         -7.4150    1.0000   16.9110 O.2       1 V49        -0.1525
      8 C6         -6.0120    3.2360   15.5550 C.ar      1 V49         0.1809
      9 F12        -6.8360    3.6590   16.5360 F         1 V49        -0.1883
     10 C1         -5.7050    4.1070   14.5280 C.ar      1 V49         0.1760
     11 F11        -6.2570    5.3250   14.5850 F         1 V49        -0.1928
     12 C3         -4.2590    2.4780   13.5570 C.ar      1 V49         0.1760
     13 F13        -3.4590    2.1430   12.5610 F         1 V49        -0.1928
     14 C2         -4.8400    3.7220   13.5050 C.ar      1 V49         0.1050
     15 S15        -4.3280    4.7180   12.0640 S.3       1 V49         0.0131
     16 C16        -3.3410    5.9240   12.8670 C.2       1 V49         0.1726
     17 N20        -2.8750    6.9690   12.1350 N.2       1 V49        -0.2965
     18 C19        -2.1460    7.7830   12.9490 C.ar      1 V49         0.0234
     19 C21        -1.5890    8.9720   12.4780 C.ar      1 V49        -0.0587
     20 C22        -0.8440    9.7450   13.4170 C.ar      1 V49        -0.0729
     21 C23        -0.7110    9.3070   14.7810 C.ar      1 V49        -0.0722
     22 C24        -1.3270    8.1230   15.2240 C.ar      1 V49        -0.0503
     23 C18        -2.0440    7.3780   14.3010 C.ar      1 V49         0.0537
     24 S17        -2.8580    5.9380   14.4720 S.3       1 V49         0.0217
     25 H1         -5.5289   -1.5102   17.2148 H         1 V49         0.1633
     26 H2         -4.8606   -0.9609   15.7142 H         1 V49         0.1633
     27 H3         -1.7160    9.2923   11.4502 H         1 V49         0.0558
     28 H4         -0.3745   10.6694   13.1006 H         1 V49         0.0553
     29 H5         -0.1274    9.8983   15.4773 H         1 V49         0.0552
     30 H6         -1.2436    7.8027   16.2562 H         1 V49         0.0565
@<TRIPOS>BOND
     1    1    2 1  
     2    2    3 ar 
     3    2   12 ar 
     4    3    4 1  
     5    3    8 ar 
     6    4    5 2  
     7    4    6 am 
     8    4    7 2  
     9    8    9 1  
    10    8   10 ar 
    11   10   11 1  
    12   10   14 ar 
    13   12   13 1  
    14   12   14 ar 
    15   14   15 1  
    16   15   16 1  
    17   16   17 2  
    18   16   24 1  
    19   17   18 1  
    20   18   19 ar 
    21   18   23 ar 
    22   19   20 ar 
    23   20   21 ar 
    24   21   22 ar 
    25   22   23 ar 
    26   23   24 1  
    27    6   25 1  
    28    6   26 1  
    29   19   27 1  
    30   20   28 1  
    31   21   29 1  
    32   22   30 1  
@<TRIPOS>SUBSTRUCTURE
     1 V49         1

