### 
### Created by X-TOOL on Mon Sep 10 21:13:28 2018
### 

@<TRIPOS>MOLECULE
5lli_ligand
   70    73     1     0     0
SMALL
GAST_HUCK


@<TRIPOS>ATOM
      1 CAP        10.3760   57.5870   97.6990 C.3       1 6Z3        -0.0149
      2 CAQ         9.9170   58.3050   96.4330 C.3       1 6Z3        -0.0149
      3 CBK        10.2660   56.8510   96.3760 C.3       1 6Z3         0.1726
      4 CAJ         9.2190   56.0370   96.2680 C.1       1 6Z3         0.1016
      5 NAE         8.4820   55.4740   96.1840 N.1       1 6Z3        -0.3045
      6 CAZ        11.5640   56.3750   95.7090 C.2       1 6Z3         0.2301
      7 OAG        12.6020   56.9910   95.9240 O.2       1 6Z3        -0.3418
      8 NAW        11.4880   55.2620   94.9670 N.am      1 6Z3        -0.2622
      9 CBH        12.6440   54.6940   94.2740 C.3       1 6Z3         0.1361
     10 CBJ        12.8740   53.2600   94.7870 C.3       1 6Z3         0.0027
     11 CAD        11.5640   52.4460   94.8670 C.3       1 6Z3        -0.0558
     12 CAB        13.4270   53.3560   96.2110 C.3       1 6Z3        -0.0558
     13 CAC        13.9000   52.4980   93.9130 C.3       1 6Z3        -0.0558
     14 CBA        12.2890   54.7310   92.7800 C.2       1 6Z3         0.2072
     15 OAH        11.1320   54.5270   92.4450 O.2       1 6Z3        -0.3941
     16 N          13.2660   55.0160   91.9010 N.am      1 6Z3        -0.2472
     17 CD2        14.6840   55.3170   92.1970 C.3       1 6Z3         0.0629
     18 CG         15.1540   56.0940   90.9830 C.3       1 6Z3         0.0799
     19 OD1        14.7850   57.4770   91.0790 O.3       1 6Z3        -0.3896
     20 CB         14.4030   55.4690   89.8420 C.3       1 6Z3         0.0158
     21 CA         13.0450   55.1110   90.4150 C.3       1 6Z3         0.1362
     22 C          12.6330   53.8980   89.8240 C.2       1 6Z3         0.2037
     23 O          13.1110   52.8260   90.2010 O.2       1 6Z3        -0.3944
     24 NAV        11.7580   54.0290   88.7960 N.am      1 6Z3        -0.2741
     25 CAR        11.2750   52.8900   87.9710 C.3       1 6Z3         0.0631
     26 CBC        12.0740   52.6680   86.7960 C.ar      1 6Z3        -0.0241
     27 CAK        12.9080   53.6480   86.2430 C.ar      1 6Z3        -0.0617
     28 CAM        13.6780   53.3930   85.0920 C.ar      1 6Z3        -0.0654
     29 CAL        12.0400   51.4320   86.1410 C.ar      1 6Z3        -0.0617
     30 CAN        12.8140   51.1830   85.0020 C.ar      1 6Z3        -0.0654
     31 CBD        13.6380   52.1700   84.4470 C.ar      1 6Z3        -0.0244
     32 CBE        14.3800   51.9620   83.3480 C.2       1 6Z3         0.0479
     33 SAX        15.9870   52.4050   83.1140 S.3       1 6Z3        -0.0127
     34 CAO        16.0970   51.7980   81.5870 C.2       1 6Z3         0.0738
     35 NAU        14.9160   51.2780   81.2440 N.2       1 6Z3        -0.3006
     36 CBB        13.9880   51.3760   82.2060 C.2       1 6Z3         0.0119
     37 CAA        12.6050   50.8260   81.9580 C.3       1 6Z3        -0.0271
     38 H1          9.6600   57.3803   98.5080 H         1 6Z3         0.0277
     39 H2         11.3642   57.8041   98.1305 H         1 6Z3         0.0277
     40 H3         10.5731   59.0464   95.9536 H         1 6Z3         0.0277
     41 H4          8.8688   58.6226   96.3311 H         1 6Z3         0.0277
     42 H5         10.6047   54.8007   94.8836 H         1 6Z3         0.1889
     43 H6         13.5448   55.2969   94.4611 H         1 6Z3         0.0807
     44 H7         11.7834   51.4338   95.2375 H         1 6Z3         0.0237
     45 H8         11.1115   52.3802   93.8666 H         1 6Z3         0.0237
     46 H9         10.8641   52.9442   95.5540 H         1 6Z3         0.0237
     47 H10        14.3650   53.9306   96.2021 H         1 6Z3         0.0237
     48 H11        13.6202   52.3447   96.5983 H         1 6Z3         0.0237
     49 H12        12.6933   53.8617   96.8560 H         1 6Z3         0.0237
     50 H13        13.5185   52.4194   92.8843 H         1 6Z3         0.0237
     51 H14        14.0552   51.4898   94.3246 H         1 6Z3         0.0237
     52 H15        14.8552   53.0435   93.9091 H         1 6Z3         0.0237
     53 H16        15.2640   54.3900   92.3167 H         1 6Z3         0.0550
     54 H17        14.7726   55.9254   93.1091 H         1 6Z3         0.0550
     55 H18        16.2420   56.0011   90.8502 H         1 6Z3         0.0616
     56 H19        15.1812   57.8562   91.8548 H         1 6Z3         0.2099
     57 H20        14.9220   54.5671   89.4854 H         1 6Z3         0.0338
     58 H21        14.2963   56.1830   89.0121 H         1 6Z3         0.0338
     59 H22        12.3034   55.8932   90.1958 H         1 6Z3         0.0803
     60 H23        11.4180   54.9444   88.5804 H         1 6Z3         0.1878
     61 H24        10.2413   53.0978   87.6577 H         1 6Z3         0.0679
     62 H25        11.2955   51.9783   88.5861 H         1 6Z3         0.0679
     63 H26        12.9619   54.6241   86.7113 H         1 6Z3         0.0550
     64 H27        14.3186   54.1753   84.7013 H         1 6Z3         0.0568
     65 H28        11.3980   50.6477   86.5255 H         1 6Z3         0.0550
     66 H29        12.7748   50.2038   84.5387 H         1 6Z3         0.0568
     67 H30        16.9871   51.8175   80.9598 H         1 6Z3         0.1176
     68 H31        12.5552   50.4028   80.9439 H         1 6Z3         0.0382
     69 H32        11.8659   51.6350   82.0544 H         1 6Z3         0.0382
     70 H33        12.3857   50.0392   82.6948 H         1 6Z3         0.0382
@<TRIPOS>BOND
     1    1    2 1  
     2    1    3 1  
     3    2    3 1  
     4    3    4 1  
     5    3    6 1  
     6    4    5 3  
     7    6    7 2  
     8    6    8 am 
     9    8    9 1  
    10    9   10 1  
    11    9   14 1  
    12   10   11 1  
    13   10   12 1  
    14   10   13 1  
    15   14   15 2  
    16   14   16 am 
    17   16   17 1  
    18   16   21 1  
    19   17   18 1  
    20   18   19 1  
    21   18   20 1  
    22   20   21 1  
    23   21   22 1  
    24   22   23 2  
    25   22   24 am 
    26   24   25 1  
    27   25   26 1  
    28   26   27 ar 
    29   26   29 ar 
    30   27   28 ar 
    31   28   31 ar 
    32   29   30 ar 
    33   30   31 ar 
    34   31   32 1  
    35   32   33 1  
    36   32   36 2  
    37   33   34 1  
    38   34   35 2  
    39   35   36 1  
    40   36   37 1  
    41    1   38 1  
    42    1   39 1  
    43    2   40 1  
    44    2   41 1  
    45    8   42 1  
    46    9   43 1  
    47   11   44 1  
    48   11   45 1  
    49   11   46 1  
    50   12   47 1  
    51   12   48 1  
    52   12   49 1  
    53   13   50 1  
    54   13   51 1  
    55   13   52 1  
    56   17   53 1  
    57   17   54 1  
    58   18   55 1  
    59   19   56 1  
    60   20   57 1  
    61   20   58 1  
    62   21   59 1  
    63   24   60 1  
    64   25   61 1  
    65   25   62 1  
    66   27   63 1  
    67   28   64 1  
    68   29   65 1  
    69   30   66 1  
    70   34   67 1  
    71   37   68 1  
    72   37   69 1  
    73   37   70 1  
@<TRIPOS>SUBSTRUCTURE
     1 6Z3         1

