### 
### Created by X-TOOL on Wed Jan  1 15:39:34 2020
### 

@<TRIPOS>MOLECULE
5llo_ligand
   46    48     1     0     0
SMALL
GAST_HUCK


@<TRIPOS>ATOM
      1 O19        23.6930    8.7640   13.0280 O.3       1 5EF        -0.3934
      2 C17        24.2650    8.2170   15.2190 C.3       1 5EF         0.0913
      3 C6         23.4720    4.0110   12.7990 C.ar      1 5EF         0.1773
      4 F11        22.4340    3.2100   13.1950 F         1 5EF        -0.1943
      5 C5         24.0510    3.9100   11.5350 C.ar      1 5EF         0.1616
      6 F12        23.3330    4.9510   14.9900 F         1 5EF        -0.1890
      7 F13        25.7300    4.6530   10.1450 F         1 5EF        -0.1949
      8 O16        26.8040    7.6400   14.4120 O.2       1 5EF        -0.1719
      9 S14        25.4400    6.9420   14.7330 S.o2      1 5EF        -0.0053
     10 O15        25.7980    6.1220   15.9700 O.2       1 5EF        -0.1719
     11 C18        24.2740    9.3060   14.1780 C.3       1 5EF         0.0637
     12 C8         24.9600    5.7520   13.4720 C.ar      1 5EF         0.1356
     13 C7         23.8840    4.9040   13.7680 C.ar      1 5EF         0.1761
     14 C9         25.5840    5.6870   12.2270 C.ar      1 5EF         0.0952
     15 C10        25.1270    4.7830   11.2960 C.ar      1 5EF         0.1708
     16 S1         23.5410    2.7030   10.3280 S.o2      1 5EF         0.0636
     17 O3         24.6720    1.7820    9.9910 O.2       1 5EF        -0.1519
     18 N4         22.2670    1.8030   10.8650 N.am      1 5EF        -0.2621
     19 O2         23.1130    3.4270    9.0570 O.2       1 5EF        -0.1519
     20 N20        26.6510    6.5750   11.8280 N.pl3     1 5EF        -0.3112
     21 C21        26.6460    7.2390   10.4980 C.3       1 5EF         0.0667
     22 C25        25.9580    8.6220   10.5740 C.3       1 5EF        -0.0132
     23 C24        26.7080    9.5200    9.5460 C.3       1 5EF        -0.0179
     24 C23        28.0590    8.9550    9.7330 C.ar      1 5EF        -0.0387
     25 C29        29.2970    9.5840    9.4430 C.ar      1 5EF        -0.0668
     26 C28        30.5270    8.9280    9.7140 C.ar      1 5EF        -0.0755
     27 C27        30.5050    7.6110   10.2760 C.ar      1 5EF        -0.0754
     28 C26        29.2410    7.0200   10.5350 C.ar      1 5EF        -0.0647
     29 C22        28.0440    7.6830   10.2410 C.ar      1 5EF        -0.0168
     30 H1         23.6785    9.4211   12.3421 H         1 5EF         0.2095
     31 H2         24.5551    8.6351   16.1942 H         1 5EF         0.0524
     32 H3         23.2569    7.7829   15.2914 H         1 5EF         0.0524
     33 H4         23.6896   10.1699   14.5275 H         1 5EF         0.0573
     34 H5         25.3065    9.6223   13.9686 H         1 5EF         0.0573
     35 H6         21.8805    1.0869   10.2838 H         1 5EF         0.1633
     36 H7         21.8812    1.9736   11.7717 H         1 5EF         0.1633
     37 H8         27.4305    6.7516   12.4777 H         1 5EF         0.1760
     38 H9         26.2280    6.5874    9.7166 H         1 5EF         0.0695
     39 H10        26.0483    9.0406   11.5872 H         1 5EF         0.0328
     40 H11        24.8946    8.5371   10.3057 H         1 5EF         0.0328
     41 H12        26.6613   10.5865    9.8113 H         1 5EF         0.0413
     42 H13        26.3357    9.3806    8.5204 H         1 5EF         0.0413
     43 H14        29.3042   10.5774    9.0093 H         1 5EF         0.0537
     44 H15        31.4698    9.4175    9.4984 H         1 5EF         0.0541
     45 H16        31.4251    7.0820   10.4967 H         1 5EF         0.0541
     46 H17        29.2016    6.0288   10.9721 H         1 5EF         0.0538
@<TRIPOS>BOND
     1   11    1 1  
     2    9    2 1  
     3    2   11 1  
     4    3    4 1  
     5    3    5 ar 
     6   13    3 ar 
     7    5   15 ar 
     8    5   16 1  
     9   13    6 1  
    10   15    7 1  
    11    9    8 2  
    12    9   10 2  
    13   12    9 1  
    14   12   13 ar 
    15   12   14 ar 
    16   14   15 ar 
    17   14   20 1  
    18   16   17 2  
    19   16   18 am 
    20   16   19 2  
    21   20   21 1  
    22   21   22 1  
    23   21   29 1  
    24   22   23 1  
    25   23   24 1  
    26   24   25 ar 
    27   24   29 ar 
    28   25   26 ar 
    29   26   27 ar 
    30   27   28 ar 
    31   28   29 ar 
    32    1   30 1  
    33    2   31 1  
    34    2   32 1  
    35   11   33 1  
    36   11   34 1  
    37   18   35 1  
    38   18   36 1  
    39   20   37 1  
    40   21   38 1  
    41   22   39 1  
    42   22   40 1  
    43   23   41 1  
    44   23   42 1  
    45   25   43 1  
    46   26   44 1  
    47   27   45 1  
    48   28   46 1  
@<TRIPOS>SUBSTRUCTURE
     1 5EF         1

