### 
### Created by X-TOOL on Wed Jan  1 15:39:34 2020
### 

@<TRIPOS>MOLECULE
5llp_ligand
   49    51     1     0     0
SMALL
GAST_HUCK


@<TRIPOS>ATOM
      1 C3         24.1210    3.7750   11.4910 C.ar      1 6Z9         0.1616
      2 C4         23.5520    3.9310   12.7470 C.ar      1 6Z9         0.1773
      3 C8         25.0750    5.7560   13.3330 C.ar      1 6Z9         0.1356
      4 C6         24.0000    4.8920   13.6480 C.ar      1 6Z9         0.1761
      5 C11        25.7190    6.3220   16.2240 C.3       1 6Z9         0.0913
      6 C12        26.7960    5.2580   16.1360 C.3       1 6Z9         0.0637
      7 C15        25.6890    5.5590   12.1080 C.ar      1 6Z9         0.0952
      8 C17        26.5940    7.2760   10.4950 C.3       1 6Z9         0.0652
      9 C18        25.6020    8.4400   10.6860 C.3       1 6Z9        -0.0203
     10 C19        26.2990    9.6860   11.2060 C.3       1 6Z9        -0.0406
     11 C20        27.3920   10.1070   10.2170 C.3       1 6Z9        -0.0213
     12 C21        28.3710    8.9940    9.9640 C.ar      1 6Z9        -0.0389
     13 C22        27.9790    7.6440   10.0710 C.ar      1 6Z9        -0.0170
     14 C23        28.8790    6.6070    9.8290 C.ar      1 6Z9        -0.0647
     15 C24        30.1920    6.9110    9.4590 C.ar      1 6Z9        -0.0754
     16 C25        30.5890    8.2480    9.3540 C.ar      1 6Z9        -0.0755
     17 C26        29.6910    9.2880    9.6070 C.ar      1 6Z9        -0.0668
     18 C27        25.1910    4.6090   11.2240 C.ar      1 6Z9         0.1708
     19 O30        24.7300    1.6810    9.9500 O.2       1 6Z9        -0.1519
     20 S2         23.5990    2.5490   10.2750 S.o2      1 6Z9         0.0636
     21 O1         23.0640    3.2340    9.0670 O.2       1 6Z9        -0.1519
     22 N29        22.3660    1.6770   10.9110 N.am      1 6Z9        -0.2621
     23 F28        25.8210    4.4210   10.0640 F         1 6Z9        -0.1949
     24 S9         25.5160    6.9890   14.5840 S.o2      1 6Z9        -0.0053
     25 O14        26.7540    7.8800   14.2790 O.2       1 6Z9        -0.1719
     26 O13        26.2340    4.0330   15.8850 O.3       1 6Z9        -0.3934
     27 O10        24.5190    8.1920   14.5650 O.2       1 6Z9        -0.1719
     28 F7         23.4120    5.0280   14.8740 F         1 6Z9        -0.1890
     29 F5         22.4980    3.1960   13.1590 F         1 6Z9        -0.1943
     30 N16        26.7520    6.3890   11.6660 N.pl3     1 6Z9        -0.3113
     31 H1         26.0276    7.1161   16.9199 H         1 6Z9         0.0524
     32 H2         24.7748    5.8769   16.5709 H         1 6Z9         0.0524
     33 H3         27.3448    5.2173   17.0884 H         1 6Z9         0.0573
     34 H4         27.4915    5.5118   15.3225 H         1 6Z9         0.0573
     35 H5         26.1658    6.6671    9.6851 H         1 6Z9         0.0693
     36 H6         24.8287    8.1360   11.4068 H         1 6Z9         0.0309
     37 H7         25.1315    8.6710    9.7189 H         1 6Z9         0.0309
     38 H8         26.7525    9.4716   12.1849 H         1 6Z9         0.0288
     39 H9         25.5663   10.4996   11.3116 H         1 6Z9         0.0288
     40 H10        27.9333   10.9709   10.6302 H         1 6Z9         0.0411
     41 H11        26.9209   10.3908    9.2644 H         1 6Z9         0.0411
     42 H12        28.5633    5.5746    9.9269 H         1 6Z9         0.0538
     43 H13        30.8988    6.1150    9.2545 H         1 6Z9         0.0541
     44 H14        31.6094    8.4810    9.0719 H         1 6Z9         0.0541
     45 H15        30.0161   10.3190    9.5269 H         1 6Z9         0.0537
     46 H16        21.9439    0.9446   10.3767 H         1 6Z9         0.1633
     47 H17        22.0357    1.8772   11.8334 H         1 6Z9         0.1633
     48 H18        26.9187    3.3765   15.8324 H         1 6Z9         0.2095
     49 H19        27.6498    6.3727   12.1706 H         1 6Z9         0.1760
@<TRIPOS>BOND
     1    1    2 ar 
     2   18    1 ar 
     3    1   20 1  
     4    4    2 ar 
     5    2   29 1  
     6    3    4 ar 
     7    7    3 ar 
     8    3   24 1  
     9    4   28 1  
    10    5    6 1  
    11   24    5 1  
    12    6   26 1  
    13    7   18 ar 
    14   30    7 1  
    15    8    9 1  
    16    8   13 1  
    17    8   30 1  
    18    9   10 1  
    19   10   11 1  
    20   11   12 1  
    21   12   13 ar 
    22   12   17 ar 
    23   13   14 ar 
    24   14   15 ar 
    25   15   16 ar 
    26   16   17 ar 
    27   18   23 1  
    28   20   19 2  
    29   20   21 2  
    30   20   22 am 
    31   24   25 2  
    32   24   27 2  
    33    5   31 1  
    34    5   32 1  
    35    6   33 1  
    36    6   34 1  
    37    8   35 1  
    38    9   36 1  
    39    9   37 1  
    40   10   38 1  
    41   10   39 1  
    42   11   40 1  
    43   11   41 1  
    44   14   42 1  
    45   15   43 1  
    46   16   44 1  
    47   17   45 1  
    48   22   46 1  
    49   22   47 1  
    50   26   48 1  
    51   30   49 1  
@<TRIPOS>SUBSTRUCTURE
     1 6Z9         1

