### 
### Created by X-TOOL on Mon Sep 10 21:13:32 2018
### 

@<TRIPOS>MOLECULE
5lm6_ligand
   30    32     1     0     0
SMALL
GAST_HUCK


@<TRIPOS>ATOM
      1 C01       -25.2120    1.2090   60.5920 C.ar      1 H32        -0.0606
      2 C02       -25.8900    0.0020   60.7330 C.ar      1 H32        -0.0495
      3 C03       -25.3180   -1.0390   61.4430 C.ar      1 H32         0.0084
      4 C04       -24.0470   -0.9010   62.0330 C.ar      1 H32         0.0731
      5 C05       -23.3670    0.3150   61.8810 C.ar      1 H32         0.0236
      6 C06       -23.9470    1.3650   61.1730 C.ar      1 H32        -0.0491
      7 C07       -21.9970    0.5400   62.5190 C.2       1 H32         0.0650
      8 O08       -20.9190    0.2450   61.9390 O.co2     1 H32        -0.5596
      9 O09       -21.9640    1.0630   63.6610 O.co2     1 H32        -0.5596
     10 C10       -23.7800   -2.1950   62.6850 C.2       1 H32         0.2316
     11 O11       -22.7660   -2.3830   63.2810 O.2       1 H32        -0.3770
     12 N12       -24.7510   -3.1610   62.5880 N.am      1 H32        -0.2144
     13 C13       -25.8100   -2.5510   61.7910 C.3       1 H32         0.0904
     14 C14       -24.8060   -4.5330   63.0740 C.ar      1 H32         0.0585
     15 C15       -25.7250   -5.3920   62.4890 C.ar      1 H32        -0.0527
     16 C16       -25.8190   -6.7160   62.8750 C.ar      1 H32        -0.0475
     17 C17       -24.9860   -7.1990   63.8760 C.ar      1 H32         0.1058
     18 C18       -24.0550   -6.3410   64.4550 C.ar      1 H32         0.1472
     19 C19       -23.9610   -5.0150   64.0590 C.ar      1 H32        -0.0153
     20 F20       -23.2240   -6.7890   65.4340 F         1 H32        -0.1938
     21 O21       -25.0780   -8.5530   64.2720 O.3       1 H32        -0.3425
     22 H1        -25.6604    2.0241   60.0356 H         1 H32         0.0641
     23 H2        -26.8693   -0.1232   60.2853 H         1 H32         0.0590
     24 H3        -23.4179    2.3056   61.0713 H         1 H32         0.0606
     25 H4        -25.9645   -3.1227   60.8640 H         1 H32         0.0760
     26 H5        -26.7481   -2.5223   62.3647 H         1 H32         0.0760
     27 H6        -26.3829   -5.0172   61.7133 H         1 H32         0.0445
     28 H7        -26.5382   -7.3731   62.3995 H         1 H32         0.0496
     29 H8        -23.2298   -4.3597   64.5183 H         1 H32         0.0463
     30 H9        -24.2483   -8.9864   64.1096 H         1 H32         0.2420
@<TRIPOS>BOND
     1    1    2 ar 
     2    1    6 ar 
     3    2    3 ar 
     4    3    4 ar 
     5    3   13 1  
     6    4    5 ar 
     7    4   10 1  
     8    5    6 ar 
     9    5    7 1  
    10    7    8 ar 
    11    7    9 ar 
    12   10   11 2  
    13   10   12 am 
    14   12   13 1  
    15   12   14 1  
    16   14   15 ar 
    17   14   19 ar 
    18   15   16 ar 
    19   16   17 ar 
    20   17   18 ar 
    21   17   21 1  
    22   18   19 ar 
    23   18   20 1  
    24    1   22 1  
    25    2   23 1  
    26    6   24 1  
    27   13   25 1  
    28   13   26 1  
    29   15   27 1  
    30   16   28 1  
    31   19   29 1  
    32   21   30 1  
@<TRIPOS>SUBSTRUCTURE
     1 H32         1

