### 
### Created by X-TOOL on Mon Sep 10 21:13:26 2018
### 

@<TRIPOS>MOLECULE
5lma_ligand
   45    47     1     0     0
SMALL
GAST_HUCK


@<TRIPOS>ATOM
      1 C10        26.9780  -43.1740   34.9940 C.ar      1 6ZG         0.0776
      2 C13        26.7620  -42.0330   32.5740 C.ar      1 6ZG         0.0463
      3 C15        25.9050  -42.3170   34.6660 C.ar      1 6ZG         0.1272
      4 C20        23.6810  -38.4980   36.8320 C.3       1 6ZG        -0.0108
      5 C21        24.4640  -37.5530   37.7080 C.3       1 6ZG        -0.0353
      6 C01        26.2040  -45.3790   42.6820 C.3       1 6ZG        -0.0297
      7 C02        26.1680  -44.8920   41.2540 C.ar      1 6ZG        -0.0432
      8 C03        27.0500  -45.3870   40.3080 C.ar      1 6ZG        -0.0571
      9 C04        27.0240  -44.9430   38.9970 C.ar      1 6ZG        -0.0568
     10 C05        26.0960  -43.9890   38.5860 C.ar      1 6ZG        -0.0108
     11 C06        25.2180  -43.4880   39.5440 C.ar      1 6ZG        -0.0568
     12 C07        25.2580  -43.9320   40.8500 C.ar      1 6ZG        -0.0571
     13 C08        26.0750  -43.4700   37.1960 C.ar      1 6ZG         0.0336
     14 C09        27.0620  -43.7380   36.2840 C.ar      1 6ZG        -0.0220
     15 N11        27.9560  -43.4390   34.0770 N.ar      1 6ZG        -0.2695
     16 C12        27.8250  -42.8620   32.8930 C.ar      1 6ZG         0.0437
     17 N14        25.7970  -41.7500   33.4340 N.ar      1 6ZG        -0.2597
     18 C16        24.9290  -42.0770   35.6910 C.ar      1 6ZG         0.1487
     19 N17        23.8770  -41.2870   35.4630 N.pl3     1 6ZG        -0.2975
     20 C18        22.9340  -40.8890   36.4940 C.3       1 6ZG         0.0309
     21 C19        23.5180  -39.8730   37.4530 C.3       1 6ZG        -0.0274
     22 N22        24.5170  -36.2050   37.1370 N.4       1 6ZG         0.2185
     23 N23        25.0420  -42.6410   36.9080 N.ar      1 6ZG        -0.2754
     24 H1         26.7191  -41.5993   31.5814 H         1 6ZG         0.0933
     25 H2         24.2072  -38.6056   35.8720 H         1 6ZG         0.0317
     26 H3         22.6828  -38.0703   36.6571 H         1 6ZG         0.0317
     27 H4         25.4898  -37.9348   37.8169 H         1 6ZG         0.0813
     28 H5         23.9844  -37.5029   38.6967 H         1 6ZG         0.0813
     29 H6         26.9945  -46.1361   42.7914 H         1 6ZG         0.0398
     30 H7         25.2321  -45.8235   42.9425 H         1 6ZG         0.0398
     31 H8         26.4117  -44.5325   43.3530 H         1 6ZG         0.0398
     32 H9         27.7756  -46.1375   40.6000 H         1 6ZG         0.0566
     33 H10        27.7341  -45.3424   38.2820 H         1 6ZG         0.0626
     34 H11        24.4907  -42.7364   39.2589 H         1 6ZG         0.0626
     35 H12        24.5630  -43.5205   41.5730 H         1 6ZG         0.0566
     36 H13        27.8971  -44.3756   36.5507 H         1 6ZG         0.0592
     37 H14        28.5827  -43.0462   32.1400 H         1 6ZG         0.0975
     38 H15        23.7259  -40.9412   34.5046 H         1 6ZG         0.1873
     39 H16        22.6367  -41.7817   37.0638 H         1 6ZG         0.0528
     40 H17        22.0482  -40.4501   36.0115 H         1 6ZG         0.0528
     41 H18        22.8504  -39.7879   38.3231 H         1 6ZG         0.0287
     42 H19        24.5056  -40.2286   37.7819 H         1 6ZG         0.0287
     43 H20        25.0465  -35.6022   37.7472 H         1 6ZG         0.1994
     44 H21        23.5808  -35.8447   37.0386 H         1 6ZG         0.1994
     45 H22        24.9603  -36.2404   36.2324 H         1 6ZG         0.1994
@<TRIPOS>BOND
     1    3    1 ar 
     2    1   14 ar 
     3    1   15 ar 
     4    2   16 ar 
     5   17    2 ar 
     6    3   17 ar 
     7   18    3 ar 
     8    4    5 1  
     9   21    4 1  
    10    5   22 1  
    11    7    6 1  
    12    8    7 ar 
    13   12    7 ar 
    14    9    8 ar 
    15   10    9 ar 
    16   10   11 ar 
    17   13   10 1  
    18   11   12 ar 
    19   13   14 ar 
    20   23   13 ar 
    21   15   16 ar 
    22   19   18 1  
    23   18   23 ar 
    24   20   19 1  
    25   20   21 1  
    26    2   24 1  
    27    4   25 1  
    28    4   26 1  
    29    5   27 1  
    30    5   28 1  
    31    6   29 1  
    32    6   30 1  
    33    6   31 1  
    34    8   32 1  
    35    9   33 1  
    36   11   34 1  
    37   12   35 1  
    38   14   36 1  
    39   16   37 1  
    40   19   38 1  
    41   20   39 1  
    42   20   40 1  
    43   21   41 1  
    44   21   42 1  
    45   22   43 1  
    46   22   44 1  
    47   22   45 1  
@<TRIPOS>SUBSTRUCTURE
     1 6ZG         1

