### 
### Created by X-TOOL on Mon Sep 10 21:13:27 2018
### 

@<TRIPOS>MOLECULE
5lmb_ligand
   53    56     1     0     0
SMALL
GAST_HUCK


@<TRIPOS>ATOM
      1 N1          5.9840    1.7270  -30.6700 N.pl3     1 6ZF        -0.2985
      2 N3         -2.6800    1.7680  -29.2570 N.ar      1 6ZF        -0.2696
      3 C4          3.6390    2.2700  -30.8290 C.ar      1 6ZF        -0.0129
      4 C5          2.3200    1.9770  -30.5280 C.ar      1 6ZF        -0.0429
      5 C6          2.0400    0.8100  -29.8190 C.ar      1 6ZF         0.0097
      6 C7          3.1090    0.0160  -29.4150 C.ar      1 6ZF         0.0082
      7 C8          0.6710    0.4440  -29.3970 C.ar      1 6ZF         0.0366
      8 C10        -1.6330    0.9430  -29.1000 C.ar      1 6ZF         0.0775
      9 C13        -1.8180   -0.2980  -28.4480 C.ar      1 6ZF         0.1271
     10 C15         0.4640   -3.0470  -27.3330 C.3       1 6ZF         0.0384
     11 C17         1.5470   -4.4080  -25.5190 C.3       1 6ZF        -0.0387
     12 C20         0.8360   -2.1080  -25.0200 C.3       1 6ZF        -0.0288
     13 C2          6.3570    2.8250  -31.5560 C.3       1 6ZF         0.0188
     14 C1          7.0360    0.9970  -29.9690 C.3       1 6ZF         0.0188
     15 C3          4.6700    1.4220  -30.4110 C.ar      1 6ZF         0.1165
     16 N2          4.3840    0.2980  -29.6960 N.ar      1 6ZF        -0.2806
     17 N7          0.5310   -0.7200  -28.7440 N.ar      1 6ZF        -0.2753
     18 C14        -0.6440   -1.1150  -28.2870 C.ar      1 6ZF         0.1487
     19 N4         -3.0270   -0.6710  -28.0020 N.ar      1 6ZF        -0.2597
     20 C12        -4.0500    0.1640  -28.1720 C.ar      1 6ZF         0.0462
     21 C11        -3.8780    1.3830  -28.8030 C.ar      1 6ZF         0.0437
     22 C9         -0.3760    1.3070  -29.5510 C.ar      1 6ZF        -0.0219
     23 N5         -0.7320   -2.2940  -27.6530 N.pl3     1 6ZF        -0.2970
     24 C16         0.5010   -3.3420  -25.8380 C.3       1 6ZF         0.0200
     25 N6          0.8710   -2.3750  -23.5930 N.4       1 6ZF         0.2272
     26 C19         1.6640   -3.5030  -23.1580 C.3       1 6ZF        -0.0337
     27 C18         1.5330   -4.7410  -24.0290 C.3       1 6ZF        -0.0121
     28 H1          3.8751    3.1647  -31.3937 H         1 6ZF         0.0618
     29 H2          1.5213    2.6414  -30.8373 H         1 6ZF         0.0722
     30 H3          2.8957   -0.8790  -28.8418 H         1 6ZF         0.0812
     31 H4          1.3513   -2.4597  -27.6118 H         1 6ZF         0.0532
     32 H5          0.4604   -3.9941  -27.8925 H         1 6ZF         0.0532
     33 H6          2.5430   -4.0326  -25.7968 H         1 6ZF         0.0272
     34 H7          1.3242   -5.3180  -26.0955 H         1 6ZF         0.0272
     35 H8          0.0746   -1.3386  -25.2156 H         1 6ZF         0.0817
     36 H9          1.8226   -1.7355  -25.3327 H         1 6ZF         0.0817
     37 H10         7.4533    2.8890  -31.6191 H         1 6ZF         0.0486
     38 H11         5.9569    3.7693  -31.1582 H         1 6ZF         0.0486
     39 H12         5.9420    2.6444  -32.5586 H         1 6ZF         0.0486
     40 H13         6.5844    0.2087  -29.3487 H         1 6ZF         0.0486
     41 H14         7.5989    1.6909  -29.3275 H         1 6ZF         0.0486
     42 H15         7.7173    0.5412  -30.7025 H         1 6ZF         0.0486
     43 H16        -5.0329   -0.1157  -27.8104 H         1 6ZF         0.0933
     44 H17        -4.7310    2.0393  -28.9321 H         1 6ZF         0.0975
     45 H18        -0.2237    2.2707  -30.0233 H         1 6ZF         0.0590
     46 H19        -1.6561   -2.6666  -27.3919 H         1 6ZF         0.1874
     47 H20        -0.4907   -3.7097  -25.5358 H         1 6ZF         0.0373
     48 H21        -0.0770   -2.5341  -23.2896 H         1 6ZF         0.2013
     49 H22         1.2359   -1.5528  -23.1382 H         1 6ZF         0.2013
     50 H23         1.3531   -3.7676  -22.1366 H         1 6ZF         0.0814
     51 H24         2.7208   -3.1978  -23.1522 H         1 6ZF         0.0814
     52 H25         2.3724   -5.4173  -23.8102 H         1 6ZF         0.0317
     53 H26         0.5847   -5.2437  -23.7882 H         1 6ZF         0.0317
@<TRIPOS>BOND
     1    1   13 1  
     2    1   14 1  
     3   15    1 1  
     4    8    2 ar 
     5    2   21 ar 
     6    4    3 ar 
     7    3   15 ar 
     8    5    4 ar 
     9    5    6 ar 
    10    7    5 1  
    11    6   16 ar 
    12   17    7 ar 
    13    7   22 ar 
    14    9    8 ar 
    15    8   22 ar 
    16   18    9 ar 
    17    9   19 ar 
    18   23   10 1  
    19   10   24 1  
    20   24   11 1  
    21   11   27 1  
    22   24   12 1  
    23   12   25 1  
    24   16   15 ar 
    25   18   17 ar 
    26   18   23 1  
    27   19   20 ar 
    28   20   21 ar 
    29   25   26 1  
    30   26   27 1  
    31    3   28 1  
    32    4   29 1  
    33    6   30 1  
    34   10   31 1  
    35   10   32 1  
    36   11   33 1  
    37   11   34 1  
    38   12   35 1  
    39   12   36 1  
    40   13   37 1  
    41   13   38 1  
    42   13   39 1  
    43   14   40 1  
    44   14   41 1  
    45   14   42 1  
    46   20   43 1  
    47   21   44 1  
    48   22   45 1  
    49   23   46 1  
    50   24   47 1  
    51   25   48 1  
    52   25   49 1  
    53   26   50 1  
    54   26   51 1  
    55   27   52 1  
    56   27   53 1  
@<TRIPOS>SUBSTRUCTURE
     1 6ZF         1

