### 
### Created by X-TOOL on Mon Sep 10 21:13:33 2018
### 

@<TRIPOS>MOLECULE
5lmk_ligand
   52    56     1     0     0
SMALL
GAST_HUCK


@<TRIPOS>ATOM
      1 O32         2.6020   20.9700  -15.9470 O.2       1 6ZK        -0.3850
      2 C31         2.6020   21.8890  -16.7510 C.2       1 6ZK         0.2023
      3 N33         3.5550   22.8200  -16.7270 N.am      1 6ZK        -0.3002
      4 C28         1.4900   21.9780  -17.7660 C.ar      1 6ZK         0.0496
      5 C29         1.7090   22.4240  -19.0860 C.ar      1 6ZK        -0.0412
      6 C30         0.6440   22.4950  -20.0040 C.ar      1 6ZK        -0.0480
      7 C27         0.2060   21.6010  -17.3640 C.ar      1 6ZK        -0.0412
      8 C26        -0.8450   21.6730  -18.2750 C.ar      1 6ZK        -0.0480
      9 C25        -0.6370   22.0950  -19.5930 C.ar      1 6ZK        -0.0116
     10 C22        -1.8640   22.1550  -20.4330 C.ar      1 6ZK        -0.0117
     11 C21        -2.3580   23.4300  -20.7290 C.ar      1 6ZK        -0.0484
     12 C20        -3.5290   23.5690  -21.4690 C.ar      1 6ZK        -0.0464
     13 C23        -2.5710   21.0140  -20.8450 C.ar      1 6ZK        -0.0484
     14 C24        -3.7510   21.1510  -21.5940 C.ar      1 6ZK        -0.0464
     15 C19        -4.2190   22.4350  -21.9210 C.ar      1 6ZK         0.0015
     16 C3         -5.4890   22.6610  -22.6710 C.2       1 6ZK         0.0294
     17 N4         -6.5510   21.8310  -22.4730 N.2       1 6ZK        -0.2909
     18 C5         -7.6920   22.1210  -23.1490 C.2       1 6ZK         0.1559
     19 C9         -9.0140   21.4670  -23.2080 C.2       1 6ZK         0.0269
     20 BR1        -9.5400   19.8150  -22.2080 Br        1 6ZK        -0.0939
     21 C2         -5.6360   23.7820  -23.5010 C.2       1 6ZK         0.0236
     22 C1         -6.8420   24.0240  -24.1760 C.2       1 6ZK         0.2242
     23 N6         -7.8570   23.1600  -23.9650 N.pl3     1 6ZK        -0.1109
     24 N7         -9.1400   23.2310  -24.5360 N.2       1 6ZK        -0.2116
     25 C8         -9.8630   22.1730  -24.0530 C.2       1 6ZK        -0.0129
     26 N11        -6.9820   25.0950  -25.0180 N.pl3     1 6ZK        -0.2577
     27 C12        -5.9320   26.0840  -25.2750 C.3       1 6ZK         0.0757
     28 C13        -5.2530   25.9370  -26.6140 C.ar      1 6ZK         0.0083
     29 C18        -5.9940   25.8010  -27.7950 C.ar      1 6ZK        -0.0384
     30 C17        -5.3180   25.6680  -29.0110 C.ar      1 6ZK        -0.0404
     31 C16        -3.9180   25.6900  -29.0100 C.ar      1 6ZK         0.0042
     32 N15        -3.2300   25.8330  -27.8550 N.ar      1 6ZK        -0.3043
     33 C14        -3.8550   25.9610  -26.6700 C.ar      1 6ZK         0.0146
     34 H1          3.5415   23.5666  -17.3921 H         1 6ZK         0.1808
     35 H2          4.2837   22.7721  -16.0439 H         1 6ZK         0.1808
     36 H3          2.7061   22.7147  -19.3964 H         1 6ZK         0.0669
     37 H4          0.8109   22.8533  -21.0134 H         1 6ZK         0.0638
     38 H5          0.0294   21.2555  -16.3518 H         1 6ZK         0.0669
     39 H6         -1.8438   21.3967  -17.9569 H         1 6ZK         0.0638
     40 H7         -1.8287   24.3101  -20.3820 H         1 6ZK         0.0638
     41 H8         -3.9091   24.5583  -21.6968 H         1 6ZK         0.0663
     42 H9         -2.2059   20.0271  -20.5848 H         1 6ZK         0.0638
     43 H10        -4.2971   20.2723  -21.9177 H         1 6ZK         0.0663
     44 H11        -4.8035   24.4734  -23.6231 H         1 6ZK         0.0422
     45 H12       -10.8993   21.9320  -24.2851 H         1 6ZK         0.0652
     46 H13        -7.8836   25.2128  -25.5018 H         1 6ZK         0.1973
     47 H14        -5.1682   25.9872  -24.4893 H         1 6ZK         0.0714
     48 H15        -6.3834   27.0859  -25.2262 H         1 6ZK         0.0714
     49 H16        -7.0776   25.7989  -27.7661 H         1 6ZK         0.0679
     50 H17        -5.8675   25.5500  -29.9379 H         1 6ZK         0.0693
     51 H18        -3.3798   25.5913  -29.9457 H         1 6ZK         0.0767
     52 H19        -3.2768   26.0824  -25.7611 H         1 6ZK         0.0766
@<TRIPOS>BOND
     1    1    2 2  
     2    2    3 am 
     3    2    4 1  
     4    4    5 ar 
     5    4    7 ar 
     6    5    6 ar 
     7    6    9 ar 
     8    7    8 ar 
     9    8    9 ar 
    10    9   10 1  
    11   10   11 ar 
    12   10   13 ar 
    13   11   12 ar 
    14   12   15 ar 
    15   13   14 ar 
    16   14   15 ar 
    17   15   16 1  
    18   16   17 2  
    19   16   21 1  
    20   17   18 1  
    21   18   19 2  
    22   18   23 1  
    23   19   20 1  
    24   19   25 1  
    25   21   22 2  
    26   22   23 1  
    27   22   26 1  
    28   23   24 1  
    29   24   25 2  
    30   26   27 1  
    31   27   28 1  
    32   28   29 ar 
    33   28   33 ar 
    34   29   30 ar 
    35   30   31 ar 
    36   31   32 ar 
    37   32   33 ar 
    38    3   34 1  
    39    3   35 1  
    40    5   36 1  
    41    6   37 1  
    42    7   38 1  
    43    8   39 1  
    44   11   40 1  
    45   12   41 1  
    46   13   42 1  
    47   14   43 1  
    48   21   44 1  
    49   25   45 1  
    50   26   46 1  
    51   27   47 1  
    52   27   48 1  
    53   29   49 1  
    54   30   50 1  
    55   31   51 1  
    56   33   52 1  
@<TRIPOS>SUBSTRUCTURE
     1 6ZK         1

