### 
### Created by X-TOOL on Mon Sep 10 21:13:27 2018
### 

@<TRIPOS>MOLECULE
5lne_ligand
   51    52     1     0     0
SMALL
GAST_HUCK


@<TRIPOS>ATOM
      1 O         -17.2050  -17.2540   38.0730 O.3       1 A2G        -0.3410
      2 C1        -16.2910  -17.8500   38.9970 C.3       1 A2G         0.1823
      3 O1        -15.3620  -16.8410   39.3600 O.3       1 A2G        -0.3651
      4 C2        -15.4900  -18.9980   38.3550 C.3       1 A2G         0.1211
      5 N2        -14.4970  -19.5380   39.2510 N.am      1 A2G        -0.2766
      6 C3        -14.7230  -18.5200   37.0940 C.3       1 A2G         0.1176
      7 O3        -14.0600  -19.6130   36.3620 O.3       1 A2G        -0.3403
      8 C4        -15.7030  -17.8020   36.1930 C.3       1 A2G         0.1120
      9 O4        -16.5510  -18.8130   35.6280 O.3       1 A2G        -0.3865
     10 C5        -16.5170  -16.7210   36.9120 C.3       1 A2G         0.1130
     11 C6        -17.4950  -16.0380   35.9560 C.3       1 A2G         0.0730
     12 O6        -17.9970  -14.8850   36.6520 O.3       1 A2G        -0.3924
     13 C7        -14.4900  -20.7810   39.6960 C.2       1 A2G         0.1733
     14 O7        -15.3510  -21.5740   39.3230 O.2       1 A2G        -0.3974
     15 C8        -13.3430  -21.1100   40.6370 C.3       1 A2G         0.0257
     16 C1        -12.7380  -19.6760   36.2100 C.3       1 GAL         0.1884
     17 C2        -12.2580  -21.1000   35.8770 C.3       1 GAL         0.1341
     18 C3        -10.7590  -21.1210   35.7490 C.3       1 GAL         0.1141
     19 C4        -10.2180  -20.0380   34.8170 C.3       1 GAL         0.1119
     20 C5        -10.6520  -18.6640   35.3730 C.3       1 GAL         0.1130
     21 C6        -10.1990  -17.4980   34.4650 C.3       1 GAL         0.0730
     22 O2        -12.6810  -21.9160   36.9910 O.3       1 GAL        -0.3841
     23 O3        -10.4050  -22.4110   35.3230 O.3       1 GAL        -0.3864
     24 O4        -10.7130  -20.2350   33.4850 O.3       1 GAL        -0.3865
     25 O5        -12.0730  -18.6020   35.4880 O.3       1 GAL        -0.3405
     26 O6        -10.9530  -17.4470   33.2730 O.3       1 GAL        -0.3924
     27 H1        -16.8348  -18.2201   39.8786 H         1 A2G         0.0932
     28 H2        -15.8251  -16.1156   39.7623 H         1 A2G         0.2126
     29 H3        -16.1952  -19.7938   38.0735 H         1 A2G         0.0633
     30 H4        -13.7642  -18.9297   39.5558 H         1 A2G         0.1857
     31 H5        -13.9463  -17.8091   37.4124 H         1 A2G         0.0649
     32 H6        -15.1416  -17.3122   35.3837 H         1 A2G         0.0647
     33 H7        -16.0222  -19.4284   35.1340 H         1 A2G         0.2100
     34 H8        -15.8107  -15.9563   37.2676 H         1 A2G         0.0647
     35 H9        -18.3202  -16.7200   35.7032 H         1 A2G         0.0584
     36 H10       -16.9771  -15.7319   35.0351 H         1 A2G         0.0584
     37 H11       -18.4344  -15.1627   37.4483 H         1 A2G         0.2095
     38 H12       -13.4189  -22.1605   40.9543 H         1 A2G         0.0467
     39 H13       -13.3938  -20.4558   41.5198 H         1 A2G         0.0467
     40 H14       -12.3861  -20.9520   40.1180 H         1 A2G         0.0467
     41 H15       -12.3710  -19.5220   37.2355 H         1 A2G         0.0938
     42 H16       -12.7147  -21.4554   34.9415 H         1 A2G         0.0671
     43 H17       -10.3226  -20.9469   36.7436 H         1 A2G         0.0648
     44 H18        -9.1194  -20.0895   34.7974 H         1 A2G         0.0647
     45 H19       -10.2021  -18.5350   36.3684 H         1 A2G         0.0647
     46 H20        -9.1375  -17.6346   34.2108 H         1 A2G         0.0584
     47 H21       -10.3267  -16.5507   35.0094 H         1 A2G         0.0584
     48 H22       -12.3947  -22.8113   36.8530 H         1 A2G         0.2101
     49 H23        -9.4583  -22.4868   35.2992 H         1 A2G         0.2100
     50 H24       -10.3706  -19.5546   32.9173 H         1 A2G         0.2100
     51 H25       -10.8434  -18.2608   32.7952 H         1 A2G         0.2095
@<TRIPOS>BOND
     1    1    2 1  
     2    1   10 1  
     3    2    3 1  
     4    2    4 1  
     5    4    5 1  
     6    4    6 1  
     7    5   13 am 
     8    6    7 1  
     9    6    8 1  
    10    7   16 1  
    11    8    9 1  
    12    8   10 1  
    13   10   11 1  
    14   11   12 1  
    15   13   14 2  
    16   13   15 1  
    17   16   17 1  
    18   16   25 1  
    19   17   18 1  
    20   17   22 1  
    21   18   19 1  
    22   18   23 1  
    23   19   20 1  
    24   19   24 1  
    25   20   21 1  
    26   20   25 1  
    27   21   26 1  
    28    2   27 1  
    29    3   28 1  
    30    4   29 1  
    31    5   30 1  
    32    6   31 1  
    33    8   32 1  
    34    9   33 1  
    35   10   34 1  
    36   11   35 1  
    37   11   36 1  
    38   12   37 1  
    39   15   38 1  
    40   15   39 1  
    41   15   40 1  
    42   16   41 1  
    43   17   42 1  
    44   18   43 1  
    45   19   44 1  
    46   20   45 1  
    47   21   46 1  
    48   21   47 1  
    49   22   48 1  
    50   23   49 1  
    51   24   50 1  
    52   26   51 1  
@<TRIPOS>SUBSTRUCTURE
     1 A2G         1

