### 
### Created by X-TOOL on Wed Jan  1 15:39:34 2020
### 

@<TRIPOS>MOLECULE
5lny_ligand
   63    67     1     0     0
SMALL
GAST_HUCK


@<TRIPOS>ATOM
      1 C1         -0.7850   10.5300   27.0760 C.2       1 70K         0.2214
      2 C7         -1.8310   11.5030   25.0170 C.ar      1 70K         0.1016
      3 C9         -0.5520   12.4360   23.1940 C.ar      1 70K         0.0875
      4 C10         0.6410   12.1150   23.9110 C.ar      1 70K         0.0254
      5 C11         1.7110   12.5670   23.0140 C.2       1 70K         0.1304
      6 C14         3.1560   12.3810   23.2680 C.2       1 70K         0.2160
      7 C16         0.5780    8.6330   26.3080 C.ar      1 70K         0.0555
      8 C19         0.8090    7.4990   24.1530 C.ar      1 70K        -0.0566
      9 C20         2.7390    7.8850   25.5850 C.ar      1 70K        -0.0566
     10 C21         0.0260    8.1460   25.1070 C.ar      1 70K        -0.0516
     11 C22        -0.3720    8.5440   28.5420 C.3       1 70K         0.0411
     12 N23         3.0840    6.7290   23.4790 N.pl3     1 70K        -0.3122
     13 C24         2.4920    6.1710   22.2290 C.3       1 70K         0.0475
     14 C27         5.1710    5.4600   23.0670 C.3       1 70K         0.0668
     15 C31         5.3810   12.8940   24.1640 C.3       1 70K         0.0333
     16 C32         6.0420   13.4860   25.4180 C.3       1 70K        -0.0325
     17 C33         5.6930   14.9800   25.4940 C.3       1 70K        -0.0494
     18 C34         4.1760   15.1350   25.7210 C.3       1 70K        -0.0325
     19 N2         -0.2150    9.2900   27.2800 N.am      1 70K        -0.2322
     20 O3         -1.5100   11.0400   27.9280 O.2       1 70K        -0.3833
     21 C4         -0.6570   11.2510   25.7730 C.ar      1 70K         0.0770
     22 C5          0.5990   11.5480   25.1840 C.ar      1 70K        -0.0451
     23 C6         -1.7860   12.1140   23.7670 C.ar      1 70K        -0.0025
     24 O8         -3.0360   11.1990   25.5540 O.3       1 70K        -0.3312
     25 N12         1.1330   13.0290   21.9160 N.2       1 70K        -0.1815
     26 N13        -0.1530   12.9890   21.9910 N.pl3     1 70K        -0.2083
     27 O15         3.6290   11.3750   22.7580 O.2       1 70K        -0.3856
     28 C17         1.9600    8.5060   26.5450 C.ar      1 70K        -0.0516
     29 C18         2.2010    7.3670   24.3940 C.ar      1 70K         0.0258
     30 C25         3.5930    5.6840   21.2640 C.3       1 70K         0.0668
     31 O26         4.4450    4.8050   22.0130 O.3       1 70K        -0.3760
     32 C28         4.1470    5.9040   24.1250 C.3       1 70K         0.0475
     33 C29         3.3510   14.4570   24.6110 C.3       1 70K         0.0333
     34 N30         3.9220   13.2030   24.0450 N.am      1 70K        -0.2723
     35 H1          0.3642    7.1050   23.2463 H         1 70K         0.0481
     36 H2          3.8053    7.7944   25.7579 H         1 70K         0.0481
     37 H3         -1.0337    8.2777   24.9204 H         1 70K         0.0474
     38 H4         -0.9986    9.1242   29.2354 H         1 70K         0.0543
     39 H5          0.6166    8.3761   28.9942 H         1 70K         0.0543
     40 H6         -0.8512    7.5751   28.3381 H         1 70K         0.0543
     41 H7          1.8985    6.9526   21.7322 H         1 70K         0.0531
     42 H8          1.8397    5.3237   22.4871 H         1 70K         0.0531
     43 H9          5.7034    6.3361   22.6684 H         1 70K         0.0579
     44 H10         5.8951    4.7630   23.5141 H         1 70K         0.0579
     45 H11         5.5025   11.8011   24.1915 H         1 70K         0.0522
     46 H12         5.8939   13.2978   23.2786 H         1 70K         0.0522
     47 H13         7.1333   13.3627   25.3555 H         1 70K         0.0285
     48 H14         5.6655   12.9710   26.3141 H         1 70K         0.0285
     49 H15         5.9763   15.4724   24.5521 H         1 70K         0.0267
     50 H16         6.2392   15.4435   26.3288 H         1 70K         0.0267
     51 H17         3.9284   16.2065   25.7425 H         1 70K         0.0285
     52 H18         3.9135   14.6786   26.6868 H         1 70K         0.0285
     53 H19         1.5177   11.3360   25.7189 H         1 70K         0.0641
     54 H20        -2.7055   12.3396   23.2391 H         1 70K         0.0470
     55 H21        -2.9094   10.7900   26.4021 H         1 70K         0.2501
     56 H22        -0.7942   13.3225   21.2571 H         1 70K         0.2490
     57 H23         2.4033    8.8859   27.4583 H         1 70K         0.0474
     58 H24         4.1712    6.5403   20.8867 H         1 70K         0.0579
     59 H25         3.1428    5.1441   20.4179 H         1 70K         0.0579
     60 H26         3.6908    5.0165   24.5878 H         1 70K         0.0531
     61 H27         4.6543    6.5005   24.8975 H         1 70K         0.0531
     62 H28         3.2393   15.1774   23.7873 H         1 70K         0.0522
     63 H29         2.3607   14.2182   25.0261 H         1 70K         0.0522
@<TRIPOS>BOND
     1    1   19 am 
     2    1   20 2  
     3   21    1 1  
     4    2   21 ar 
     5   23    2 ar 
     6    2   24 1  
     7    4    3 ar 
     8    3   23 ar 
     9    3   26 1  
    10    5    4 1  
    11    4   22 ar 
    12    6    5 1  
    13    5   25 2  
    14    6   27 2  
    15   34    6 am 
    16    7   10 ar 
    17   19    7 1  
    18    7   28 ar 
    19   10    8 ar 
    20    8   29 ar 
    21   28    9 ar 
    22    9   29 ar 
    23   19   11 1  
    24   12   13 1  
    25   29   12 1  
    26   12   32 1  
    27   13   30 1  
    28   14   31 1  
    29   32   14 1  
    30   15   16 1  
    31   15   34 1  
    32   16   17 1  
    33   17   18 1  
    34   18   33 1  
    35   21   22 ar 
    36   25   26 1  
    37   30   31 1  
    38   33   34 1  
    39    8   35 1  
    40    9   36 1  
    41   10   37 1  
    42   11   38 1  
    43   11   39 1  
    44   11   40 1  
    45   13   41 1  
    46   13   42 1  
    47   14   43 1  
    48   14   44 1  
    49   15   45 1  
    50   15   46 1  
    51   16   47 1  
    52   16   48 1  
    53   17   49 1  
    54   17   50 1  
    55   18   51 1  
    56   18   52 1  
    57   22   53 1  
    58   23   54 1  
    59   24   55 1  
    60   26   56 1  
    61   28   57 1  
    62   30   58 1  
    63   30   59 1  
    64   32   60 1  
    65   32   61 1  
    66   33   62 1  
    67   33   63 1  
@<TRIPOS>SUBSTRUCTURE
     1 70K         1

