### 
### Created by X-TOOL on Fri Nov  2 10:58:07 2018
### 

@<TRIPOS>MOLECULE
5lo5_ligand
   56    59     1     0     0
SMALL
GAST_HUCK


@<TRIPOS>ATOM
      1 C1          0.5100   33.7950   25.3510 C.ar      1 MOL        -0.0166
      2 C2         -0.6870   33.4170   26.0550 C.ar      1 MOL         0.0597
      3 C3          1.6270   33.4200   26.2310 C.2       1 MOL        -0.0486
      4 C7          1.0540   32.8550   27.3720 C.2       1 MOL         0.0134
      5 C8          3.1190   33.6010   25.9780 C.3       1 MOL        -0.0367
      6 C9         -0.8540   34.6200   23.4870 C.ar      1 MOL         0.1104
      7 C10        -2.0390   34.2480   24.2000 C.ar      1 MOL         0.1098
      8 C11         3.5660   32.9680   24.6450 C.3       1 MOL        -0.0438
      9 C12        -0.9630   35.2150   22.1870 C.1       1 MOL         0.0834
     10 C14         3.5350   31.4380   24.7380 C.3       1 MOL        -0.0114
     11 C16         4.2280   30.8200   23.5120 C.3       1 MOL        -0.0317
     12 C19         6.4120   30.3520   24.5190 C.3       1 MOL        -0.0113
     13 C20         7.7130   31.3930   22.1280 C.3       1 MOL         0.0692
     14 C21         7.8740   30.8140   24.5420 C.3       1 MOL         0.0692
     15 C24        10.6490   31.1530   24.2650 C.ar      1 MOL        -0.0320
     16 C27        11.9530   30.7140   21.7920 C.ar      1 MOL        -0.0383
     17 C4          0.4180   34.3960   24.0660 C.ar      1 MOL        -0.0408
     18 N5         -0.3110   32.8600   27.2560 N.pl3     1 MOL        -0.2899
     19 C6         -1.9520   33.6540   25.4670 C.ar      1 MOL        -0.0072
     20 O13        -3.2550   34.4690   23.6440 O.3       1 MOL        -0.3309
     21 N15        -1.0640   35.6660   21.1500 N.1       1 MOL        -0.3436
     22 N17         5.6700   31.1410   23.5010 N.4       1 MOL         0.2381
     23 C18         6.2370   30.9450   22.1400 C.3       1 MOL        -0.0113
     24 N22         8.4620   30.6430   23.1780 N.pl3     1 MOL        -0.2929
     25 C23         9.8800   30.7960   23.1100 C.ar      1 MOL         0.0515
     26 C25        10.5600   30.5800   21.8710 C.ar      1 MOL        -0.0320
     27 C26        12.0390   31.2850   24.1840 C.ar      1 MOL        -0.0383
     28 C28        12.7040   31.0650   22.9480 C.ar      1 MOL         0.0814
     29 C29        14.1280   31.1880   22.8760 C.1       1 MOL         0.0864
     30 N30        15.2590   31.2660   22.8340 N.1       1 MOL        -0.3392
     31 H1          1.6087   32.4685   28.2257 H         1 MOL         0.0757
     32 H2          3.6773   33.1279   26.7993 H         1 MOL         0.0351
     33 H3          3.3458   34.6771   25.9525 H         1 MOL         0.0351
     34 H4          4.5905   33.2956   24.4146 H         1 MOL         0.0281
     35 H5          2.8874   33.2954   23.8436 H         1 MOL         0.0281
     36 H6          2.4899   31.0968   24.7756 H         1 MOL         0.0318
     37 H7          4.0582   31.1183   25.6513 H         1 MOL         0.0318
     38 H8          3.7639   31.2183   22.5977 H         1 MOL         0.0814
     39 H9          4.1030   29.7275   23.5408 H         1 MOL         0.0814
     40 H10         5.9598   30.5101   25.5092 H         1 MOL         0.0834
     41 H11         6.3671   29.2835   24.2617 H         1 MOL         0.0834
     42 H12         7.7717   32.4719   22.3341 H         1 MOL         0.0572
     43 H13         8.1530   31.1836   21.1419 H         1 MOL         0.0572
     44 H14         8.4402   30.2093   25.2657 H         1 MOL         0.0572
     45 H15         7.9210   31.8737   24.8333 H         1 MOL         0.0572
     46 H16        10.1483   31.3225   25.2114 H         1 MOL         0.0545
     47 H17        12.4593   30.5498   20.8477 H         1 MOL         0.0685
     48 H18         1.3174   34.6813   23.5323 H         1 MOL         0.0654
     49 H19        -0.9631   32.4983   27.9665 H         1 MOL         0.2216
     50 H20        -2.8556   33.3758   25.9972 H         1 MOL         0.0462
     51 H21        -3.7118   33.6420   23.5452 H         1 MOL         0.2500
     52 H22         5.7702   32.1154   23.7387 H         1 MOL         0.2035
     53 H23         6.1745   29.8814   21.8666 H         1 MOL         0.0834
     54 H24         5.6661   31.5441   21.4153 H         1 MOL         0.0834
     55 H25         9.9942   30.3107   20.9864 H         1 MOL         0.0545
     56 H26        12.6095   31.5554   25.0652 H         1 MOL         0.0685
@<TRIPOS>BOND
     1    1    2 ar 
     2    3    1 1  
     3    1   17 ar 
     4   18    2 1  
     5    2   19 ar 
     6    3    4 2  
     7    5    3 1  
     8    4   18 1  
     9    8    5 1  
    10    6    7 ar 
    11    6    9 1  
    12   17    6 ar 
    13   19    7 ar 
    14    7   20 1  
    15   10    8 1  
    16    9   21 3  
    17   11   10 1  
    18   22   11 1  
    19   14   12 1  
    20   12   22 1  
    21   13   23 1  
    22   24   13 1  
    23   24   14 1  
    24   25   15 ar 
    25   15   27 ar 
    26   26   16 ar 
    27   16   28 ar 
    28   23   22 1  
    29   25   24 1  
    30   25   26 ar 
    31   27   28 ar 
    32   28   29 1  
    33   29   30 3  
    34    4   31 1  
    35    5   32 1  
    36    5   33 1  
    37    8   34 1  
    38    8   35 1  
    39   10   36 1  
    40   10   37 1  
    41   11   38 1  
    42   11   39 1  
    43   12   40 1  
    44   12   41 1  
    45   13   42 1  
    46   13   43 1  
    47   14   44 1  
    48   14   45 1  
    49   15   46 1  
    50   16   47 1  
    51   17   48 1  
    52   18   49 1  
    53   19   50 1  
    54   20   51 1  
    55   22   52 1  
    56   23   53 1  
    57   23   54 1  
    58   26   55 1  
    59   27   56 1  
@<TRIPOS>SUBSTRUCTURE
     1 MOL         1

