### 
### Created by X-TOOL on Fri Nov  2 10:58:07 2018
### 

@<TRIPOS>MOLECULE
5lo6_ligand
   70    73     1     0     0
SMALL
GAST_HUCK


@<TRIPOS>ATOM
      1 C1          1.4890    8.3780   26.6840 C.ar      1 MOL        -0.0472
      2 C2          0.1340    8.7010   26.4590 C.ar      1 MOL         0.0615
      3 C3         -0.4820    8.2820   25.2730 C.ar      1 MOL        -0.0472
      4 C7          2.2320    6.4010   23.4750 C.3       1 MOL        -0.0046
      5 C9         -0.8320    8.7460   28.7150 C.3       1 MOL         0.0423
      6 C10        -1.2080   10.6330   27.1890 C.2       1 MOL         0.2223
      7 C12        -1.0620   11.3410   25.8850 C.ar      1 MOL         0.0769
      8 C13         0.2120   11.6930   25.4110 C.ar      1 MOL        -0.0461
      9 C14        -2.0820   12.1730   23.8220 C.ar      1 MOL        -0.0049
     10 C15        -2.2020   11.5970   25.0750 C.ar      1 MOL         0.1009
     11 C19         1.4780   12.7010   23.3410 C.2       1 MOL         0.0296
     12 C22         2.9260   12.6630   23.7760 C.3       1 MOL        -0.0110
     13 C24         4.7330   14.0110   25.1720 C.3       1 MOL        -0.0360
     14 C30         3.8660    3.8420   20.6660 C.3       1 MOL        -0.0431
     15 C31         5.8230   13.7670   24.1080 C.3       1 MOL        -0.0599
     16 C32         5.0240   15.4130   25.7290 C.3       1 MOL        -0.0599
     17 C33         4.9090   13.0020   26.3260 C.3       1 MOL        -0.0599
     18 C4          0.2300    7.5690   24.3260 C.ar      1 MOL        -0.0729
     19 C5          1.5640    7.2530   24.5400 C.ar      1 MOL        -0.0541
     20 C6          2.1930    7.6470   25.7320 C.ar      1 MOL        -0.0729
     21 N8         -0.6310    9.4090   27.4180 N.am      1 MOL        -0.2288
     22 O11        -1.8630   11.1510   28.0730 O.2       1 MOL        -0.3830
     23 O16        -3.4450   11.3380   25.5400 O.3       1 MOL        -0.3312
     24 C17        -0.8160   12.4980   23.3250 C.ar      1 MOL         0.0782
     25 C18         0.3340   12.2520   24.1280 C.ar      1 MOL         0.0125
     26 N20         1.0030   13.1440   22.2060 N.2       1 MOL        -0.2247
     27 N21        -0.3890   13.0420   22.1370 N.pl3     1 MOL        -0.2278
     28 C23         3.2810   13.9320   24.6000 C.3       1 MOL        -0.0384
     29 C25         3.6850    6.7500   23.1160 C.3       1 MOL        -0.0017
     30 C26         4.0790    5.9200   21.8810 C.3       1 MOL        -0.0303
     31 N27         3.7910    4.4620   22.0000 N.4       1 MOL         0.2333
     32 C28         2.5100    4.0600   22.6300 C.3       1 MOL        -0.0303
     33 C29         2.1690    4.9110   23.8610 C.3       1 MOL        -0.0017
     34 H1          1.9801    8.6984   27.5957 H         1 MOL         0.0487
     35 H2         -1.5250    8.5185   25.0961 H         1 MOL         0.0487
     36 H3          1.6408    6.5373   22.5575 H         1 MOL         0.0437
     37 H4         -0.3013    7.7825   28.7204 H         1 MOL         0.0546
     38 H5         -1.9064    8.5736   28.8761 H         1 MOL         0.0546
     39 H6         -0.4387    9.3858   29.5187 H         1 MOL         0.0546
     40 H7          1.0899   11.5355   26.0270 H         1 MOL         0.0649
     41 H8         -2.9667   12.3715   23.2279 H         1 MOL         0.0462
     42 H9          3.5703   12.6178   22.8856 H         1 MOL         0.0423
     43 H10         3.0943   11.7702   24.3961 H         1 MOL         0.0423
     44 H11         4.8109    4.1285   20.1811 H         1 MOL         0.0777
     45 H12         3.0201    4.1870   20.0532 H         1 MOL         0.0777
     46 H13         3.8231    2.7475   20.7674 H         1 MOL         0.0777
     47 H14         6.8155   13.8369   24.5771 H         1 MOL         0.0235
     48 H15         5.7380   14.5250   23.3154 H         1 MOL         0.0235
     49 H16         5.6929   12.7652   23.6728 H         1 MOL         0.0235
     50 H17         4.2814   15.6621   26.5014 H         1 MOL         0.0235
     51 H18         4.9673   16.1502   24.9146 H         1 MOL         0.0235
     52 H19         6.0316   15.4305   26.1699 H         1 MOL         0.0235
     53 H20         4.7069   11.9853   25.9581 H         1 MOL         0.0235
     54 H21         4.2059   13.2452   27.1362 H         1 MOL         0.0235
     55 H22         5.9397   13.0561   26.7064 H         1 MOL         0.0235
     56 H23        -0.2574    7.2548   23.4101 H         1 MOL         0.0520
     57 H24         3.2286    7.3813   25.9109 H         1 MOL         0.0520
     58 H25        -3.3837   10.9465   26.4034 H         1 MOL         0.2502
     59 H26        -0.9839   13.3221   21.3442 H         1 MOL         0.2378
     60 H27         2.5843   13.9840   25.4497 H         1 MOL         0.0291
     61 H28         3.1309   14.8057   23.9487 H         1 MOL         0.0291
     62 H29         4.3478    6.5039   23.9587 H         1 MOL         0.0339
     63 H30         3.7661    7.8228   22.8868 H         1 MOL         0.0339
     64 H31         5.1590    6.0445   21.7133 H         1 MOL         0.0816
     65 H32         3.5259    6.3100   21.0139 H         1 MOL         0.0816
     66 H33         4.5255    4.0732   22.5705 H         1 MOL         0.2031
     67 H34         2.5836    3.0067   22.9385 H         1 MOL         0.0816
     68 H35         1.7032    4.1700   21.8905 H         1 MOL         0.0816
     69 H36         1.1560    4.6634   24.2111 H         1 MOL         0.0339
     70 H37         2.8941    4.7069   24.6625 H         1 MOL         0.0339
@<TRIPOS>BOND
     1    1    2 ar 
     2   20    1 ar 
     3    3    2 ar 
     4    2   21 1  
     5   18    3 ar 
     6    4   19 1  
     7   29    4 1  
     8    4   33 1  
     9   21    5 1  
    10    6    7 1  
    11   21    6 am 
    12    6   22 2  
    13    7    8 ar 
    14    7   10 ar 
    15    8   25 ar 
    16   10    9 ar 
    17    9   24 ar 
    18   10   23 1  
    19   11   12 1  
    20   25   11 1  
    21   11   26 2  
    22   12   28 1  
    23   13   15 1  
    24   13   16 1  
    25   13   17 1  
    26   28   13 1  
    27   31   14 1  
    28   19   18 ar 
    29   19   20 ar 
    30   25   24 ar 
    31   24   27 1  
    32   27   26 1  
    33   30   29 1  
    34   30   31 1  
    35   31   32 1  
    36   32   33 1  
    37    1   34 1  
    38    3   35 1  
    39    4   36 1  
    40    5   37 1  
    41    5   38 1  
    42    5   39 1  
    43    8   40 1  
    44    9   41 1  
    45   12   42 1  
    46   12   43 1  
    47   14   44 1  
    48   14   45 1  
    49   14   46 1  
    50   15   47 1  
    51   15   48 1  
    52   15   49 1  
    53   16   50 1  
    54   16   51 1  
    55   16   52 1  
    56   17   53 1  
    57   17   54 1  
    58   17   55 1  
    59   18   56 1  
    60   20   57 1  
    61   23   58 1  
    62   27   59 1  
    63   28   60 1  
    64   28   61 1  
    65   29   62 1  
    66   29   63 1  
    67   30   64 1  
    68   30   65 1  
    69   31   66 1  
    70   32   67 1  
    71   32   68 1  
    72   33   69 1  
    73   33   70 1  
@<TRIPOS>SUBSTRUCTURE
     1 MOL         1

