### 
### Created by X-TOOL on Mon Sep 10 21:13:29 2018
### 

@<TRIPOS>MOLECULE
5loh_ligand
   62    69     1     0     0
SMALL
GAST_HUCK


@<TRIPOS>ATOM
      1 O4        -20.3860  -12.1090  -10.6900 O.3       1 STU        -0.3149
      2 C25       -20.6010  -12.0440   -9.3150 C.3       1 STU         0.1668
      3 C24       -21.2290  -10.7630   -8.8280 C.3       1 STU         0.0455
      4 C23       -21.6190   -9.8700  -10.0030 C.3       1 STU         0.0141
      5 C22       -20.3260   -9.6350  -10.8300 C.3       1 STU         0.1556
      6 C21       -19.8990  -11.0280  -11.4320 C.3       1 STU         0.2020
      7 C26       -20.6190  -11.3000  -12.7360 C.3       1 STU        -0.0059
      8 N2        -18.4170  -11.1570  -11.4820 N.pl3     1 STU        -0.2292
      9 C18       -17.6580  -11.7280  -10.4450 C.ar      1 STU         0.0978
     10 C19       -18.0660  -12.2580   -9.2030 C.ar      1 STU         0.0952
     11 C6        -17.1120  -12.7380   -8.2840 C.ar      1 STU        -0.0018
     12 C7        -15.7610  -12.6820   -8.6580 C.ar      1 STU         0.0320
     13 C10       -15.3400  -12.1700   -9.8800 C.ar      1 STU        -0.0168
     14 C11       -16.2910  -11.6780  -10.7850 C.ar      1 STU         0.0011
     15 C12       -16.2020  -11.0420  -12.0940 C.ar      1 STU        -0.0075
     16 C17       -17.5140  -10.7340  -12.4920 C.ar      1 STU         0.0695
     17 C16       -17.7620  -10.0900  -13.6980 C.ar      1 STU        -0.0408
     18 C15       -16.6910   -9.7520  -14.5110 C.ar      1 STU        -0.0739
     19 C14       -15.3970  -10.0510  -14.1310 C.ar      1 STU        -0.0759
     20 C13       -15.1450  -10.6940  -12.9310 C.ar      1 STU        -0.0696
     21 C9        -13.8460  -12.2400  -10.0070 C.3       1 STU         0.0603
     22 N1        -13.4530  -12.8380   -8.7140 N.am      1 STU        -0.2790
     23 C8        -14.5600  -13.1060   -7.9090 C.2       1 STU         0.1871
     24 O5        -14.4870  -13.6000   -6.7870 O.2       1 STU        -0.3964
     25 C5        -17.8520  -13.1650   -7.1060 C.ar      1 STU        -0.0072
     26 C20       -19.2070  -12.9260   -7.3740 C.ar      1 STU         0.0681
     27 C1        -20.1910  -13.2120   -6.4370 C.ar      1 STU        -0.0404
     28 C2        -19.8100  -13.7430   -5.2150 C.ar      1 STU        -0.0732
     29 C3        -18.4780  -13.9850   -4.9360 C.ar      1 STU        -0.0750
     30 C4        -17.4970  -13.7020   -5.8730 C.ar      1 STU        -0.0685
     31 N3        -19.3230  -12.3830   -8.6590 N.pl3     1 STU        -0.2376
     32 O6        -19.3210   -9.1910   -9.9270 O.3       1 STU        -0.3686
     33 C27       -18.5660   -8.0780  -10.3840 C.3       1 STU         0.0373
     34 N4        -22.1690   -8.5560   -9.6340 N.4       1 STU         0.2291
     35 C28       -23.6130   -8.5320   -9.4310 C.3       1 STU        -0.0445
     36 H1        -21.3169  -12.8401   -9.0626 H         1 STU         0.0933
     37 H2        -20.5092  -10.2276   -8.1915 H         1 STU         0.0372
     38 H3        -22.1290  -11.0023   -8.2426 H         1 STU         0.0372
     39 H4        -22.3661  -10.3988  -10.6130 H         1 STU         0.0880
     40 H5        -20.4909   -8.8960  -11.6279 H         1 STU         0.0710
     41 H6        -20.3519  -10.5261  -13.4707 H         1 STU         0.0284
     42 H7        -21.7055  -11.2840  -12.5652 H         1 STU         0.0284
     43 H8        -20.3226  -12.2874  -13.1195 H         1 STU         0.0284
     44 H9        -18.7768   -9.8556  -13.9985 H         1 STU         0.0538
     45 H10       -16.8708   -9.2483  -15.4539 H         1 STU         0.0561
     46 H11       -14.5710   -9.7796  -14.7785 H         1 STU         0.0516
     47 H12       -14.1260  -10.9263  -12.6434 H         1 STU         0.0566
     48 H13       -13.4086  -11.2386  -10.1331 H         1 STU         0.0679
     49 H14       -13.5465  -12.8798  -10.8502 H         1 STU         0.0679
     50 H15       -12.5077  -13.0276   -8.4484 H         1 STU         0.1863
     51 H16       -21.2357  -13.0238   -6.6568 H         1 STU         0.0539
     52 H17       -20.5642  -13.9709   -4.4704 H         1 STU         0.0568
     53 H18       -18.1980  -14.4003   -3.9747 H         1 STU         0.0516
     54 H19       -16.4555  -13.8987   -5.6456 H         1 STU         0.0576
     55 H20       -17.8174   -7.8064   -9.6252 H         1 STU         0.0524
     56 H21       -19.2385   -7.2250  -10.5573 H         1 STU         0.0524
     57 H22       -18.0574   -8.3407  -11.3233 H         1 STU         0.0524
     58 H23       -21.9451   -7.9045  -10.3699 H         1 STU         0.2014
     59 H24       -21.7271   -8.2605   -8.7776 H         1 STU         0.2014
     60 H25       -23.9283   -7.5135   -9.1602 H         1 STU         0.0777
     61 H26       -23.8810   -9.2263   -8.6210 H         1 STU         0.0777
     62 H27       -24.1188   -8.8379  -10.3586 H         1 STU         0.0777
@<TRIPOS>BOND
     1    1    2 1  
     2    1    6 1  
     3    2    3 1  
     4    2   31 1  
     5    3    4 1  
     6    4    5 1  
     7    4   34 1  
     8    5    6 1  
     9    5   32 1  
    10    6    7 1  
    11    6    8 1  
    12    8    9 1  
    13    8   16 1  
    14    9   10 ar 
    15    9   14 ar 
    16   10   11 ar 
    17   10   31 1  
    18   11   12 ar 
    19   11   25 1  
    20   12   13 ar 
    21   12   23 1  
    22   13   14 ar 
    23   13   21 1  
    24   14   15 1  
    25   15   16 ar 
    26   15   20 ar 
    27   16   17 ar 
    28   17   18 ar 
    29   18   19 ar 
    30   19   20 ar 
    31   21   22 1  
    32   22   23 am 
    33   23   24 2  
    34   25   26 ar 
    35   25   30 ar 
    36   26   27 ar 
    37   26   31 1  
    38   27   28 ar 
    39   28   29 ar 
    40   29   30 ar 
    41   32   33 1  
    42   34   35 1  
    43    2   36 1  
    44    3   37 1  
    45    3   38 1  
    46    4   39 1  
    47    5   40 1  
    48    7   41 1  
    49    7   42 1  
    50    7   43 1  
    51   17   44 1  
    52   18   45 1  
    53   19   46 1  
    54   20   47 1  
    55   21   48 1  
    56   21   49 1  
    57   22   50 1  
    58   27   51 1  
    59   28   52 1  
    60   29   53 1  
    61   30   54 1  
    62   33   55 1  
    63   33   56 1  
    64   33   57 1  
    65   34   58 1  
    66   34   59 1  
    67   35   60 1  
    68   35   61 1  
    69   35   62 1  
@<TRIPOS>SUBSTRUCTURE
     1 STU         1

