### 
### Created by X-TOOL on Mon Sep 10 21:13:28 2018
### 

@<TRIPOS>MOLECULE
5lom_ligand
   41    41     1     0     0
SMALL
GAST_HUCK


@<TRIPOS>ATOM
      1 OAB        39.5530  -64.3620   32.5440 O.3       1 SNW        -0.3836
      2 CAF        40.8780  -64.3320   33.1140 C.3       1 SNW         0.1422
      3 CAG        40.9740  -63.4760   34.2920 C.3       1 SNW         0.1142
      4 OAC        40.5500  -62.1030   33.8660 O.3       1 SNW        -0.3864
      5 CAH        42.2980  -63.4210   34.8770 C.3       1 SNW         0.1070
      6 OAI        43.2310  -62.7010   34.0500 O.3       1 SNW        -0.3869
      7 CAO        42.8410  -64.8390   35.1320 C.3       1 SNW         0.0796
      8 OAN        42.7710  -65.6300   33.9420 O.3       1 SNW        -0.3399
      9 CAM        41.4390  -65.7220   33.4240 C.3       1 SNW         0.2378
     10 OAQ        40.5890  -66.2780   34.3420 O.3       1 SNW        -0.3587
     11 CAL        41.5150  -66.5720   32.1550 C.3       1 SNW         0.0259
     12 N          42.1390  -67.8860   32.4250 N.4       1 SNW         0.2449
     13 CA         42.0070  -68.7950   31.2730 C.3       1 SNW         0.0324
     14 C          40.7110  -69.5570   31.3980 C.2       1 SNW         0.0846
     15 O          40.3300  -70.3360   30.4690 O.co2     1 SNW        -0.5643
     16 CB         43.1280  -69.8350   31.2700 C.3       1 SNW         0.0193
     17 CG         43.3500  -70.5340   32.5910 C.3       1 SNW         0.0437
     18 CD         44.4480  -71.5550   32.6350 C.2       1 SNW         0.1738
     19 OE1        44.9040  -72.0020   31.6030 O.2       1 SNW        -0.3973
     20 NE2        44.9560  -72.0140   33.8770 N.am      1 SNW        -0.3009
     21 OXT        40.0380  -69.4200   32.4440 O.co2     1 SNW        -0.5643
     22 H1         38.9388  -64.6902   33.1902 H         1 SNW         0.2101
     23 H2         41.5314  -63.8911   32.3467 H         1 SNW         0.0676
     24 H3         40.2795  -63.8532   35.0571 H         1 SNW         0.0648
     25 H4         39.6571  -62.1344   33.5434 H         1 SNW         0.2100
     26 H5         42.2195  -62.8984   35.8417 H         1 SNW         0.0643
     27 H6         44.0826  -62.6901   34.4709 H         1 SNW         0.2100
     28 H7         42.2417  -65.3187   35.9199 H         1 SNW         0.0587
     29 H8         43.8891  -64.7708   35.4588 H         1 SNW         0.0587
     30 H9         40.8903  -67.1515   34.5625 H         1 SNW         0.2130
     31 H10        42.1139  -66.0389   31.4019 H         1 SNW         0.0868
     32 H11        40.4974  -66.7312   31.7688 H         1 SNW         0.0868
     33 H12        41.6894  -68.3037   33.2246 H         1 SNW         0.2032
     34 H13        43.1178  -67.7490   32.6233 H         1 SNW         0.2032
     35 H14        42.0255  -68.2150   30.3385 H         1 SNW         0.1026
     36 H15        44.0634  -69.3285   30.9899 H         1 SNW         0.0363
     37 H16        42.8843  -70.5982   30.5162 H         1 SNW         0.0363
     38 H17        42.4121  -71.0409   32.8620 H         1 SNW         0.0505
     39 H18        43.5806  -69.7636   33.3415 H         1 SNW         0.0505
     40 H19        45.6881  -72.6949   33.8969 H         1 SNW         0.1814
     41 H20        44.5821  -71.6568   34.7329 H         1 SNW         0.1814
@<TRIPOS>BOND
     1    1    2 1  
     2    2    3 1  
     3    2    9 1  
     4    3    4 1  
     5    3    5 1  
     6    5    6 1  
     7    5    7 1  
     8    7    8 1  
     9    8    9 1  
    10    9   10 1  
    11    9   11 1  
    12   11   12 1  
    13   12   13 1  
    14   13   14 1  
    15   13   16 1  
    16   14   15 ar 
    17   14   21 ar 
    18   16   17 1  
    19   17   18 1  
    20   18   19 2  
    21   18   20 am 
    22    1   22 1  
    23    2   23 1  
    24    3   24 1  
    25    4   25 1  
    26    5   26 1  
    27    6   27 1  
    28    7   28 1  
    29    7   29 1  
    30   10   30 1  
    31   11   31 1  
    32   11   32 1  
    33   12   33 1  
    34   12   34 1  
    35   13   35 1  
    36   16   36 1  
    37   16   37 1  
    38   17   38 1  
    39   17   39 1  
    40   20   40 1  
    41   20   41 1  
@<TRIPOS>SUBSTRUCTURE
     1 SNW         1

