### 
### Created by X-TOOL on Mon Sep 10 21:13:30 2018
### 

@<TRIPOS>MOLECULE
5lp6_ligand
   54    56     1     0     0
SMALL
GAST_HUCK


@<TRIPOS>ATOM
      1 CBA        14.4080   63.9760   42.1930 C.3       1 71P         0.0576
      2 OAW        15.6980   63.4350   41.7060 O.3       1 71P        -0.3259
      3 CAP        16.5450   64.5050   41.6960 C.ar      1 71P         0.1193
      4 CAQ        17.3120   64.9340   42.8500 C.ar      1 71P         0.0044
      5 CAR        17.3050   64.2370   44.1370 C.2       1 71P        -0.0092
      6 CAX        16.6940   62.9660   44.0630 C.2       1 71P        -0.0499
      7 CAY        16.4310   61.9790   45.0060 C.2       1 71P        -0.0323
      8 CAZ        16.8010   61.8700   46.3330 C.2       1 71P         0.0705
      9 SBB        16.2400   60.3930   47.1440 S.3       1 71P        -0.0884
     10 CBC        17.7130   59.7200   47.8810 C.3       1 71P        -0.0014
     11 CAU        17.5140   62.8100   47.0560 C.2       1 71P         0.1163
     12 OAV        17.7500   62.6080   48.2480 O.2       1 71P        -0.4391
     13 CAT        18.0050   64.0150   46.5920 C.2       1 71P        -0.0121
     14 CAS        17.9450   64.6470   45.3330 C.2       1 71P         0.0027
     15 CAH        18.7140   65.8200   45.6100 C.3       1 71P         0.0843
     16 NAI        17.9380   66.9510   46.2320 N.am      1 71P        -0.2703
     17 CAJ        16.6060   66.9710   46.5020 C.2       1 71P         0.1753
     18 OAK        15.7860   66.1200   46.1710 O.2       1 71P        -0.3972
     19 CAL        16.1090   68.1850   47.2660 C.3       1 71P         0.0258
     20 CAG        19.6190   66.1010   44.4300 C.3       1 71P        -0.0090
     21 CAF        18.9090   66.8730   43.4510 C.3       1 71P        -0.0218
     22 CAE        18.0900   66.1080   42.5880 C.ar      1 71P        -0.0557
     23 CAD        18.0630   66.7690   41.3380 C.ar      1 71P        -0.0456
     24 CAC        17.3110   66.3000   40.2780 C.ar      1 71P         0.1090
     25 OAB        17.2780   66.8890   39.0510 O.3       1 71P        -0.3270
     26 CAA        18.3840   66.4860   38.2250 C.3       1 71P         0.0574
     27 CAO        16.5450   65.1780   40.4680 C.ar      1 71P         0.1438
     28 OAN        15.8190   64.6900   39.4090 O.3       1 71P        -0.3336
     29 CAM        14.4890   65.1470   39.1760 C.3       1 71P         0.0526
     30 H1         13.6625   63.1681   42.2309 H         1 71P         0.0576
     31 H2         14.0597   64.7645   41.5097 H         1 71P         0.0576
     32 H3         14.5438   64.3971   43.2001 H         1 71P         0.0576
     33 H4         16.3598   62.7051   43.0599 H         1 71P         0.0649
     34 H5         15.8305   61.1495   44.6355 H         1 71P         0.0628
     35 H6         17.4645   58.7903   48.4138 H         1 71P         0.0372
     36 H7         18.1335   60.4479   48.5904 H         1 71P         0.0372
     37 H8         18.4515   59.5057   47.0945 H         1 71P         0.0372
     38 H9         18.5432   64.5884   47.3453 H         1 71P         0.0532
     39 H10        19.4053   65.5242   46.4128 H         1 71P         0.0756
     40 H11        18.4563   67.7721   46.4711 H         1 71P         0.1885
     41 H12        15.0246   68.0972   47.4286 H         1 71P         0.0467
     42 H13        16.3202   69.0952   46.6856 H         1 71P         0.0467
     43 H14        16.6219   68.2422   48.2374 H         1 71P         0.0467
     44 H15        19.9420   65.1498   43.9819 H         1 71P         0.0335
     45 H16        20.5005   66.6639   44.7708 H         1 71P         0.0335
     46 H17        19.6455   67.4129   42.8378 H         1 71P         0.0416
     47 H18        18.2710   67.5966   43.9795 H         1 71P         0.0416
     48 H19        18.6501   67.6709   41.2076 H         1 71P         0.0381
     49 H20        18.3134   66.9864   37.2480 H         1 71P         0.0575
     50 H21        18.3563   65.3958   38.0814 H         1 71P         0.0575
     51 H22        19.3284   66.7676   38.7137 H         1 71P         0.0575
     52 H23        14.0783   64.6429   38.2888 H         1 71P         0.0565
     53 H24        14.4989   66.2341   39.0083 H         1 71P         0.0565
     54 H25        13.8635   64.9166   40.0510 H         1 71P         0.0565
@<TRIPOS>BOND
     1    1    2 1  
     2    2    3 1  
     3    3    4 ar 
     4    3   27 ar 
     5    4    5 1  
     6    4   22 ar 
     7    5    6 2  
     8    5   14 1  
     9    6    7 1  
    10    7    8 2  
    11    8    9 1  
    12    8   11 1  
    13    9   10 1  
    14   11   12 2  
    15   11   13 1  
    16   13   14 2  
    17   14   15 1  
    18   15   16 1  
    19   15   20 1  
    20   16   17 am 
    21   17   18 2  
    22   17   19 1  
    23   20   21 1  
    24   21   22 1  
    25   22   23 ar 
    26   23   24 ar 
    27   24   25 1  
    28   24   27 ar 
    29   25   26 1  
    30   27   28 1  
    31   28   29 1  
    32    1   30 1  
    33    1   31 1  
    34    1   32 1  
    35    6   33 1  
    36    7   34 1  
    37   10   35 1  
    38   10   36 1  
    39   10   37 1  
    40   13   38 1  
    41   15   39 1  
    42   16   40 1  
    43   19   41 1  
    44   19   42 1  
    45   19   43 1  
    46   20   44 1  
    47   20   45 1  
    48   21   46 1  
    49   21   47 1  
    50   23   48 1  
    51   26   49 1  
    52   26   50 1  
    53   26   51 1  
    54   29   52 1  
    55   29   53 1  
    56   29   54 1  
@<TRIPOS>SUBSTRUCTURE
     1 71P         1

