### 
### Created by X-TOOL on Fri Nov  2 10:26:07 2018
### 

@<TRIPOS>MOLECULE
5lpd_ligand
   64    66     1     0     0
SMALL
GAST_HUCK


@<TRIPOS>ATOM
      1 C4         20.9830  -12.4960   26.0640 C.3       1 MOL        -0.0528
      2 C5         22.1140  -13.3560   25.5120 C.3       1 MOL        -0.0530
      3 C6         21.8210  -13.7780   24.0850 C.3       1 MOL        -0.0528
      4 N1         17.8480  -12.7030   21.4060 N.am      1 MOL        -0.2471
      5 C7         20.4790  -14.4940   23.9860 C.3       1 MOL        -0.0499
      6 C8         17.0990  -13.1600   22.4210 C.2       1 MOL         0.2292
      7 N2         15.4490  -10.1450   20.7530 N.am      1 MOL        -0.2749
      8 C9         19.0200  -13.3520   20.7940 C.3       1 MOL         0.0371
      9 C10        19.6030  -12.2670   19.9150 C.3       1 MOL        -0.0281
     10 C11        18.3960  -11.4280   19.5090 C.3       1 MOL        -0.0104
     11 C12        17.5320  -11.4150   20.7770 C.3       1 MOL         0.1339
     12 N3         13.0340  -13.4180   21.8520 N.4       1 MOL         0.2299
     13 C13        16.0460  -11.3000   20.4360 C.2       1 MOL         0.2035
     14 C14        14.0410   -9.9210   20.4470 C.3       1 MOL         0.0624
     15 C15        13.1590   -9.9230   21.6670 C.ar      1 MOL        -0.0134
     16 O1         16.1410  -12.5260   22.8420 O.2       1 MOL        -0.3905
     17 C          17.4480  -14.5460   23.0420 C.3       1 MOL         0.0655
     18 C1         18.0020  -14.3510   24.4540 C.3       1 MOL         0.0107
     19 C2         19.3420  -13.6250   24.5130 C.3       1 MOL        -0.0338
     20 C3         19.6470  -13.2160   25.9420 C.3       1 MOL        -0.0499
     21 N          16.2110  -15.3310   23.1360 N.4       1 MOL         0.2379
     22 O          15.4480  -12.2330   19.8920 O.2       1 MOL        -0.3944
     23 C20        12.3370  -11.0260   21.9580 C.ar      1 MOL         0.0054
     24 C21        12.3980  -12.2940   21.1630 C.3       1 MOL        -0.0037
     25 C19        11.4670  -10.9580   23.0420 C.ar      1 MOL        -0.0611
     26 C18        11.4050   -9.8290   23.8360 C.ar      1 MOL        -0.0614
     27 C17        12.2440   -8.7740   23.5580 C.ar      1 MOL         0.0264
     28 CL         12.2200   -7.3600   24.5760 Cl        1 MOL        -0.0789
     29 C16        13.1120   -8.8110   22.4960 C.ar      1 MOL        -0.0509
     30 H1         20.9376  -11.5536   25.4985 H         1 MOL         0.0265
     31 H2         21.1798  -12.2784   27.1241 H         1 MOL         0.0265
     32 H3         22.2236  -14.2536   26.1384 H         1 MOL         0.0265
     33 H4         23.0497  -12.7781   25.5324 H         1 MOL         0.0265
     34 H5         22.6157  -14.4564   23.7412 H         1 MOL         0.0265
     35 H6         21.7989  -12.8844   23.4440 H         1 MOL         0.0265
     36 H7         20.5238  -15.4208   24.5767 H         1 MOL         0.0268
     37 H8         20.2819  -14.7400   22.9321 H         1 MOL         0.0268
     38 H9         15.9757   -9.4257   21.2059 H         1 MOL         0.1876
     39 H10        18.7189  -14.2242   20.1951 H         1 MOL         0.0524
     40 H11        19.7418  -13.6662   21.5623 H         1 MOL         0.0524
     41 H12        20.0916  -12.7016   19.0305 H         1 MOL         0.0287
     42 H13        20.3300  -11.6599   20.4744 H         1 MOL         0.0287
     43 H14        17.8574  -11.8927   18.6700 H         1 MOL         0.0313
     44 H15        18.7007  -10.4087   19.2295 H         1 MOL         0.0313
     45 H16        17.8158  -10.5804   21.4349 H         1 MOL         0.0802
     46 H17        13.0326  -14.2258   21.2491 H         1 MOL         0.2007
     47 H18        12.5235  -13.6274   22.6955 H         1 MOL         0.2007
     48 H19        13.9839  -13.1748   22.0857 H         1 MOL         0.2007
     49 H20        13.7002  -10.7169   19.7685 H         1 MOL         0.0668
     50 H21        13.9431   -8.9461   19.9470 H         1 MOL         0.0668
     51 H22        18.1861  -15.0671   22.4146 H         1 MOL         0.1098
     52 H23        18.1279  -15.3424   24.9136 H         1 MOL         0.0348
     53 H24        17.2700  -13.7687   25.0329 H         1 MOL         0.0348
     54 H25        19.2749  -12.7209   23.8901 H         1 MOL         0.0304
     55 H26        18.8501  -12.5454   26.2958 H         1 MOL         0.0268
     56 H27        19.6727  -14.1184   26.5704 H         1 MOL         0.0268
     57 H28        15.8304  -15.4701   22.2130 H         1 MOL         0.2015
     58 H29        15.5415  -14.8364   23.7045 H         1 MOL         0.2015
     59 H30        16.4117  -16.2256   23.5549 H         1 MOL         0.2015
     60 H31        11.3694  -12.5872   20.9063 H         1 MOL         0.0964
     61 H32        12.9631  -12.0933   20.2408 H         1 MOL         0.0964
     62 H33        10.8279  -11.8042   23.2670 H         1 MOL         0.0540
     63 H34        10.7073   -9.7751   24.6639 H         1 MOL         0.0548
     64 H35        13.7646   -7.9671   22.3035 H         1 MOL         0.0544
@<TRIPOS>BOND
     1    1    2 1  
     2   20    1 1  
     3    3    2 1  
     4    5    3 1  
     5    4    6 am 
     6    4    8 1  
     7   11    4 1  
     8   19    5 1  
     9    6   16 2  
    10    6   17 1  
    11    7   13 am 
    12   14    7 1  
    13    9    8 1  
    14   10    9 1  
    15   11   10 1  
    16   13   11 1  
    17   24   12 1  
    18   13   22 2  
    19   15   14 1  
    20   23   15 ar 
    21   15   29 ar 
    22   17   18 1  
    23   17   21 1  
    24   18   19 1  
    25   19   20 1  
    26   23   24 1  
    27   23   25 ar 
    28   25   26 ar 
    29   26   27 ar 
    30   27   28 1  
    31   27   29 ar 
    32    1   30 1  
    33    1   31 1  
    34    2   32 1  
    35    2   33 1  
    36    3   34 1  
    37    3   35 1  
    38    5   36 1  
    39    5   37 1  
    40    7   38 1  
    41    8   39 1  
    42    8   40 1  
    43    9   41 1  
    44    9   42 1  
    45   10   43 1  
    46   10   44 1  
    47   11   45 1  
    48   12   46 1  
    49   12   47 1  
    50   12   48 1  
    51   14   49 1  
    52   14   50 1  
    53   17   51 1  
    54   18   52 1  
    55   18   53 1  
    56   19   54 1  
    57   20   55 1  
    58   20   56 1  
    59   21   57 1  
    60   21   58 1  
    61   21   59 1  
    62   24   60 1  
    63   24   61 1  
    64   25   62 1  
    65   26   63 1  
    66   29   64 1  
@<TRIPOS>SUBSTRUCTURE
     1 MOL         1

