### 
### Created by X-TOOL on Mon Sep 10 21:13:31 2018
### 

@<TRIPOS>MOLECULE
5lpj_ligand
   41    42     1     0     0
SMALL
GAST_HUCK


@<TRIPOS>ATOM
      1 N1        -33.4060   50.7990   -2.7230 N.am      1 XDM        -0.2795
      2 C2        -28.9400   50.8870   -3.1380 C.2       1 XDM         0.0277
      3 C3        -27.7650   50.9160   -4.0180 C.2       1 XDM         0.0977
      4 C4        -27.7900   50.2640   -5.3650 C.3       1 XDM         0.0031
      5 C5        -30.3390   50.7960   -3.4820 C.2       1 XDM        -0.0333
      6 C6        -30.9120   50.6850   -4.8680 C.3       1 XDM        -0.0345
      7 C9        -32.4400   50.7220   -1.8080 C.2       1 XDM         0.2022
      8 C8        -31.0370   50.8000   -2.2630 C.2       1 XDM         0.1162
      9 C10       -34.8100   50.8820   -2.3500 C.3       1 XDM         0.0629
     10 C11       -35.1460   52.1420   -1.5880 C.ar      1 XDM        -0.0208
     11 C12       -36.0510   52.1070   -0.5390 C.ar      1 XDM        -0.0583
     12 C13       -36.3500   53.2520    0.1790 C.ar      1 XDM        -0.0680
     13 C14       -35.7540   54.4570   -0.1450 C.ar      1 XDM        -0.0548
     14 C15       -34.8630   54.4900   -1.1940 C.ar      1 XDM         0.0338
     15 O1        -32.6860   50.4960   -0.6230 O.2       1 XDM        -0.4030
     16 C7        -31.1680   52.0300   -5.5050 C.3       1 XDM        -0.0585
     17 O         -26.7300   51.4680   -3.6450 O.2       1 XDM        -0.4022
     18 C         -28.8480   50.9370   -1.7530 C.2       1 XDM         0.0622
     19 C1        -27.6680   51.1160   -0.8510 C.3       1 XDM        -0.0012
     20 N         -30.1150   50.8520   -1.2470 N.pl3     1 XDM        -0.2744
     21 C16       -34.5480   53.3550   -1.9140 C.ar      1 XDM        -0.0446
     22 CL        -34.1260   56.0060   -1.6370 Cl        1 XDM        -0.0725
     23 H1        -33.1592   50.7998   -3.6921 H         1 XDM         0.1855
     24 H2        -26.8158   50.4014   -5.8570 H         1 XDM         0.0441
     25 H3        -28.5789   50.7221   -5.9796 H         1 XDM         0.0441
     26 H4        -27.9936   49.1893   -5.2485 H         1 XDM         0.0441
     27 H5        -31.8635   50.1359   -4.8120 H         1 XDM         0.0382
     28 H6        -30.2032   50.1272   -5.4977 H         1 XDM         0.0382
     29 H7        -35.0568   50.0151   -1.7195 H         1 XDM         0.0681
     30 H8        -35.4181   50.8541   -3.2662 H         1 XDM         0.0681
     31 H9        -36.5309   51.1709   -0.2774 H         1 XDM         0.0559
     32 H10       -37.0557   53.2038    1.0004 H         1 XDM         0.0599
     33 H11       -35.9834   55.3564    0.4150 H         1 XDM         0.0565
     34 H12       -31.5849   51.8851   -6.5126 H         1 XDM         0.0248
     35 H13       -30.2227   52.5879   -5.5761 H         1 XDM         0.0248
     36 H14       -31.8829   52.5967   -4.8904 H         1 XDM         0.0248
     37 H15       -28.0020   51.1011    0.1970 H         1 XDM         0.0449
     38 H16       -27.1836   52.0795   -1.0677 H         1 XDM         0.0449
     39 H17       -26.9508   50.2990   -1.0189 H         1 XDM         0.0449
     40 H18       -30.3458   50.8300   -0.2434 H         1 XDM         0.2317
     41 H19       -33.8371   53.4088   -2.7306 H         1 XDM         0.0562
@<TRIPOS>BOND
     1    7    1 am 
     2    1    9 1  
     3    2    3 1  
     4    5    2 1  
     5    2   18 2  
     6    3    4 1  
     7    3   17 2  
     8    5    6 1  
     9    8    5 2  
    10    6   16 1  
    11    7    8 1  
    12    7   15 2  
    13    8   20 1  
    14    9   10 1  
    15   10   11 ar 
    16   10   21 ar 
    17   11   12 ar 
    18   12   13 ar 
    19   13   14 ar 
    20   14   21 ar 
    21   14   22 1  
    22   18   19 1  
    23   18   20 1  
    24    1   23 1  
    25    4   24 1  
    26    4   25 1  
    27    4   26 1  
    28    6   27 1  
    29    6   28 1  
    30    9   29 1  
    31    9   30 1  
    32   11   31 1  
    33   12   32 1  
    34   13   33 1  
    35   16   34 1  
    36   16   35 1  
    37   16   36 1  
    38   19   37 1  
    39   19   38 1  
    40   19   39 1  
    41   20   40 1  
    42   21   41 1  
@<TRIPOS>SUBSTRUCTURE
     1 XDM         1

