### 
### Created by X-TOOL on Mon Sep 10 21:13:31 2018
### 

@<TRIPOS>MOLECULE
5lpk_ligand
   41    42     1     0     0
SMALL
GAST_HUCK


@<TRIPOS>ATOM
      1 N1        150.1100  -58.9270  148.0090 N.am      1 XDM        -0.2795
      2 C2        146.7970  -60.9760  145.8550 C.2       1 XDM         0.0277
      3 C3        145.8490  -60.9960  144.7040 C.2       1 XDM         0.0977
      4 C4        145.3220  -59.7130  144.1580 C.3       1 XDM         0.0031
      5 C5        147.6470  -59.9490  146.2700 C.2       1 XDM        -0.0333
      6 C6        147.8420  -58.5780  145.6760 C.3       1 XDM        -0.0345
      7 C9        149.2940  -59.9200  148.3740 C.2       1 XDM         0.2022
      8 C8        148.3020  -60.5450  147.4640 C.2       1 XDM         0.1162
      9 C10       150.9800  -58.3270  149.0010 C.3       1 XDM         0.0629
     10 C11       152.1160  -59.2550  149.3270 C.ar      1 XDM        -0.0208
     11 C12       152.4730  -59.4710  150.6510 C.ar      1 XDM        -0.0583
     12 C13       153.5300  -60.3060  150.9870 C.ar      1 XDM        -0.0680
     13 C14       154.2190  -60.9550  149.9880 C.ar      1 XDM        -0.0548
     14 C15       153.8540  -60.7250  148.6710 C.ar      1 XDM         0.0338
     15 O1        149.3130  -60.3790  149.5240 O.2       1 XDM        -0.4030
     16 C7        148.7250  -58.6300  144.4280 C.3       1 XDM        -0.0585
     17 O         145.4800  -62.0460  144.2390 O.2       1 XDM        -0.4022
     18 C         146.9540  -62.1230  146.7640 C.2       1 XDM         0.0622
     19 C1        146.3040  -63.4820  146.7660 C.3       1 XDM        -0.0012
     20 N         147.8480  -61.7620  147.6840 N.pl3     1 XDM        -0.2744
     21 C16       152.8090  -59.8980  148.3270 C.ar      1 XDM        -0.0446
     22 CL        154.7420  -61.5540  147.3830 Cl        1 XDM        -0.0725
     23 H1        150.1204  -58.6018  147.0634 H         1 XDM         0.1855
     24 H2        144.6426  -59.9232  143.3189 H         1 XDM         0.0441
     25 H3        146.1594  -59.0931  143.8052 H         1 XDM         0.0441
     26 H4        144.7751  -59.1759  144.9469 H         1 XDM         0.0441
     27 H5        148.3187  -57.9282  146.4247 H         1 XDM         0.0382
     28 H6        146.8604  -58.1636  145.4026 H         1 XDM         0.0382
     29 H7        150.4028  -58.1247  149.9153 H         1 XDM         0.0681
     30 H8        151.3842  -57.3832  148.6061 H         1 XDM         0.0681
     31 H9        151.9151  -58.9776  151.4386 H         1 XDM         0.0559
     32 H10       153.8096  -60.4453  152.0250 H         1 XDM         0.0599
     33 H11       155.0309  -61.6325  150.2265 H         1 XDM         0.0565
     34 H12       148.8458  -57.6149  144.0218 H         1 XDM         0.0248
     35 H13       148.2529  -59.2739  143.6713 H         1 XDM         0.0248
     36 H14       149.7112  -59.0385  144.6934 H         1 XDM         0.0248
     37 H15       146.6835  -64.0687  147.6156 H         1 XDM         0.0449
     38 H16       146.5401  -64.0028  145.8263 H         1 XDM         0.0449
     39 H17       145.2139  -63.3670  146.8576 H         1 XDM         0.0449
     40 H18       148.1464  -62.3593  148.4683 H         1 XDM         0.2317
     41 H19       152.5368  -59.7558  147.2874 H         1 XDM         0.0562
@<TRIPOS>BOND
     1    7    1 am 
     2    1    9 1  
     3    2    3 1  
     4    5    2 1  
     5    2   18 2  
     6    3    4 1  
     7    3   17 2  
     8    5    6 1  
     9    8    5 2  
    10    6   16 1  
    11    7    8 1  
    12    7   15 2  
    13    8   20 1  
    14    9   10 1  
    15   10   11 ar 
    16   10   21 ar 
    17   11   12 ar 
    18   12   13 ar 
    19   13   14 ar 
    20   14   21 ar 
    21   14   22 1  
    22   18   19 1  
    23   18   20 1  
    24    1   23 1  
    25    4   24 1  
    26    4   25 1  
    27    4   26 1  
    28    6   27 1  
    29    6   28 1  
    30    9   29 1  
    31    9   30 1  
    32   11   31 1  
    33   12   32 1  
    34   13   33 1  
    35   16   34 1  
    36   16   35 1  
    37   16   36 1  
    38   19   37 1  
    39   19   38 1  
    40   19   39 1  
    41   20   40 1  
    42   21   41 1  
@<TRIPOS>SUBSTRUCTURE
     1 XDM         1

