### 
### Created by X-TOOL on Mon Sep 10 21:13:31 2018
### 

@<TRIPOS>MOLECULE
5lpl_ligand
   49    51     1     0     0
SMALL
GAST_HUCK


@<TRIPOS>ATOM
      1 N1         99.1870  -34.5490   21.2640 N.pl3     1 71X        -0.2744
      2 C4        101.3040  -40.4680   19.1230 C.ar      1 71X        -0.0661
      3 C5        102.4940  -40.0490   19.6880 C.ar      1 71X        -0.0615
      4 C6        102.4620  -39.3770   20.8850 C.ar      1 71X         0.0264
      5 C7        101.2720  -39.1300   21.5360 C.ar      1 71X        -0.0507
      6 C8        100.0680  -39.5610   20.9790 C.ar      1 71X        -0.0132
      7 C10        98.9010  -36.8980   21.5410 C.2       1 71X         0.2024
      8 C13        98.7270  -35.7160   24.7630 C.3       1 71X        -0.0345
      9 C15        99.0530  -33.5790   23.2640 C.2       1 71X         0.0277
     10 C17        98.2380  -32.4910   25.4630 C.3       1 71X         0.0031
     11 O2         99.5230  -31.3610   23.8530 O.2       1 71X        -0.4022
     12 C16        98.9880  -32.4230   24.1690 C.2       1 71X         0.0977
     13 C19        99.4800  -32.0830   21.1380 C.3       1 71X        -0.0012
     14 C18        99.2270  -33.3440   21.9030 C.2       1 71X         0.0622
     15 C14        99.9890  -35.7770   25.5990 C.3       1 71X        -0.0585
     16 O1         98.8420  -36.9910   20.3200 O.2       1 71X        -0.4030
     17 C11        99.0360  -35.5680   22.1690 C.2       1 71X         0.1162
     18 C9         98.7970  -39.3070   21.7730 C.3       1 71X         0.0976
     19 C3        100.0810  -40.2290   19.7480 C.ar      1 71X        -0.0384
     20 C2         98.7990  -40.6760   19.0930 C.3       1 71X        -0.0188
     21 C1         97.6510  -40.7830   20.0830 C.3       1 71X        -0.0142
     22 C12        98.9300  -35.0040   23.4520 C.2       1 71X        -0.0333
     23 N          98.8190  -37.9670   22.3450 N.am      1 71X        -0.2751
     24 C          97.5510  -39.5040   20.8930 C.3       1 71X         0.0881
     25 O          96.3870  -39.5330   21.7200 O.3       1 71X        -0.3874
     26 CL        103.9510  -38.8040   21.5890 Cl        1 71X        -0.0789
     27 H1         99.2600  -34.6755   20.2444 H         1 71X         0.2317
     28 H2        101.3222  -40.9930   18.1748 H         1 71X         0.0538
     29 H3        103.4380  -40.2479   19.1936 H         1 71X         0.0548
     30 H4        101.2721  -38.6003   22.4818 H         1 71X         0.0544
     31 H5         97.9517  -35.1851   25.3349 H         1 71X         0.0382
     32 H6         98.3918  -36.7432   24.5569 H         1 71X         0.0382
     33 H7         98.3159  -31.5249   25.9831 H         1 71X         0.0441
     34 H8         98.6672  -33.2829   26.0944 H         1 71X         0.0441
     35 H9         97.1800  -32.7151   25.2623 H         1 71X         0.0441
     36 H10        99.4734  -31.2273   21.8292 H         1 71X         0.0449
     37 H11        98.6930  -31.9491   20.3812 H         1 71X         0.0449
     38 H12       100.4595  -32.1456   20.6414 H         1 71X         0.0449
     39 H13        99.7799  -36.3062   26.5404 H         1 71X         0.0248
     40 H14       100.3316  -34.7555   25.8209 H         1 71X         0.0248
     41 H15       100.7717  -36.3136   25.0428 H         1 71X         0.0248
     42 H16        98.7537  -40.0342   22.5972 H         1 71X         0.0728
     43 H17        98.9620  -41.6618   18.6329 H         1 71X         0.0413
     44 H18        98.5274  -39.9482   18.3142 H         1 71X         0.0413
     45 H19        97.8304  -41.6311   20.7601 H         1 71X         0.0313
     46 H20        96.7104  -40.9433   19.5357 H         1 71X         0.0313
     47 H21        98.7730  -37.8452   23.3365 H         1 71X         0.1858
     48 H22        97.4724  -38.6552   20.1978 H         1 71X         0.0639
     49 H23        96.4394  -40.2736   22.3127 H         1 71X         0.2101
@<TRIPOS>BOND
     1    1   14 1  
     2   17    1 1  
     3    2    3 ar 
     4   19    2 ar 
     5    4    3 ar 
     6    5    4 ar 
     7    4   26 1  
     8    6    5 ar 
     9   18    6 1  
    10    6   19 ar 
    11    7   16 2  
    12    7   17 1  
    13   23    7 am 
    14    8   15 1  
    15   22    8 1  
    16    9   12 1  
    17    9   14 2  
    18   22    9 1  
    19   12   10 1  
    20   12   11 2  
    21   14   13 1  
    22   17   22 2  
    23   18   23 1  
    24   18   24 1  
    25   19   20 1  
    26   20   21 1  
    27   21   24 1  
    28   24   25 1  
    29    1   27 1  
    30    2   28 1  
    31    3   29 1  
    32    5   30 1  
    33    8   31 1  
    34    8   32 1  
    35   10   33 1  
    36   10   34 1  
    37   10   35 1  
    38   13   36 1  
    39   13   37 1  
    40   13   38 1  
    41   15   39 1  
    42   15   40 1  
    43   15   41 1  
    44   18   42 1  
    45   20   43 1  
    46   20   44 1  
    47   21   45 1  
    48   21   46 1  
    49   23   47 1  
    50   24   48 1  
    51   25   49 1  
@<TRIPOS>SUBSTRUCTURE
     1 71X         1

