### 
### Created by X-TOOL on Mon Sep 10 21:13:31 2018
### 

@<TRIPOS>MOLECULE
5lpm_ligand
   49    51     1     0     0
SMALL
GAST_HUCK


@<TRIPOS>ATOM
      1 N1         39.9790    5.4330    9.4690 N.am      1 71Y        -0.2751
      2 C4         38.7930    6.6930   13.2370 C.2       1 71Y         0.0622
      3 C5         37.8820    5.6990   13.5450 C.2       1 71Y         0.0277
      4 C6         37.0360    5.7570   14.7410 C.2       1 71Y         0.0977
      5 C7         35.7270    5.0300   14.7800 C.3       1 71Y         0.0031
      6 C8         39.2600    7.8790   14.0200 C.3       1 71Y        -0.0012
      7 C10        40.4790    4.8910    8.1930 C.3       1 71Y         0.0976
      8 C13        42.0380    5.1480    5.6620 C.3       1 71Y        -0.0188
      9 C15        40.0590    6.3290    4.6900 C.ar      1 71Y        -0.0661
     10 C17        38.0860    6.7690    5.9310 C.ar      1 71Y         0.0264
     11 O2         42.5060    4.1700    9.2510 O.3       1 71Y        -0.3874
     12 C16        38.7910    6.8690    4.7570 C.ar      1 71Y        -0.0615
     13 C19        39.9030    5.6020    6.9810 C.ar      1 71Y        -0.0132
     14 C18        38.6210    6.1490    7.0410 C.ar      1 71Y        -0.0507
     15 C14        40.6360    5.6940    5.7880 C.ar      1 71Y        -0.0384
     16 O1         39.1280    3.4240   10.0410 O.2       1 71Y        -0.4030
     17 C11        42.0120    4.9120    8.1380 C.3       1 71Y         0.0881
     18 C9         39.2950    4.6290   10.2850 C.2       1 71Y         0.2024
     19 C3         38.8590    5.1920   11.5730 C.2       1 71Y         0.1162
     20 C2         37.9240    4.7240   12.4840 C.2       1 71Y        -0.0333
     21 C1         37.0860    3.4830   12.3620 C.3       1 71Y        -0.0345
     22 C12        42.5120    4.3120    6.8390 C.3       1 71Y        -0.0142
     23 CL         36.4720    7.4160    6.0120 Cl        1 71Y        -0.0789
     24 N          39.3430    6.3850   12.0250 N.pl3     1 71Y        -0.2744
     25 O          37.3550    6.4740   15.6930 O.2       1 71Y        -0.4022
     26 C          37.5560    2.3890   13.2400 C.3       1 71Y        -0.0585
     27 H1         40.1493    6.3862    9.7187 H         1 71Y         0.1858
     28 H2         35.2448    5.1952   15.7548 H         1 71Y         0.0441
     29 H3         35.9009    3.9536   14.6347 H         1 71Y         0.0441
     30 H4         35.0740    5.4073   13.9793 H         1 71Y         0.0441
     31 H5         39.9990    8.4404   13.4294 H         1 71Y         0.0449
     32 H6         39.7222    7.5398   14.9588 H         1 71Y         0.0449
     33 H7         38.4023    8.5290   14.2475 H         1 71Y         0.0449
     34 H8         40.1578    3.8403    8.1401 H         1 71Y         0.0728
     35 H9         42.7262    5.9987    5.5491 H         1 71Y         0.0413
     36 H10        42.0796    4.5204    4.7596 H         1 71Y         0.0413
     37 H11        40.6179    6.4002    3.7639 H         1 71Y         0.0538
     38 H12        43.4559    4.1713    9.2346 H         1 71Y         0.2101
     39 H13        38.3579    7.3647    3.8957 H         1 71Y         0.0548
     40 H14        38.0464    6.0869    7.9581 H         1 71Y         0.0544
     41 H15        42.3640    5.9518    8.2076 H         1 71Y         0.0639
     42 H16        37.1201    3.1363   11.3186 H         1 71Y         0.0382
     43 H17        36.0489    3.7305   12.6324 H         1 71Y         0.0382
     44 H18        43.6117    4.2878    6.8488 H         1 71Y         0.0313
     45 H19        42.1236    3.2879    6.7379 H         1 71Y         0.0313
     46 H20        40.0262    6.9704   11.5235 H         1 71Y         0.2317
     47 H21        36.9079    1.5098   13.1092 H         1 71Y         0.0248
     48 H22        37.5191    2.7189   14.2887 H         1 71Y         0.0248
     49 H23        38.5903    2.1247   12.9749 H         1 71Y         0.0248
@<TRIPOS>BOND
     1    1    7 1  
     2   18    1 am 
     3    3    2 2  
     4    2    6 1  
     5    2   24 1  
     6    3    4 1  
     7   20    3 1  
     8    4    5 1  
     9    4   25 2  
    10    7   13 1  
    11    7   17 1  
    12   15    8 1  
    13   22    8 1  
    14    9   12 ar 
    15   15    9 ar 
    16   10   12 ar 
    17   14   10 ar 
    18   10   23 1  
    19   17   11 1  
    20   13   14 ar 
    21   13   15 ar 
    22   18   16 2  
    23   17   22 1  
    24   19   18 1  
    25   19   20 2  
    26   19   24 1  
    27   20   21 1  
    28   21   26 1  
    29    1   27 1  
    30    5   28 1  
    31    5   29 1  
    32    5   30 1  
    33    6   31 1  
    34    6   32 1  
    35    6   33 1  
    36    7   34 1  
    37    8   35 1  
    38    8   36 1  
    39    9   37 1  
    40   11   38 1  
    41   12   39 1  
    42   14   40 1  
    43   17   41 1  
    44   21   42 1  
    45   21   43 1  
    46   22   44 1  
    47   22   45 1  
    48   24   46 1  
    49   26   47 1  
    50   26   48 1  
    51   26   49 1  
@<TRIPOS>SUBSTRUCTURE
     1 71Y         1

