### 
### Created by X-TOOL on Mon Sep 10 21:13:29 2018
### 

@<TRIPOS>MOLECULE
5lqq_ligand
   42    45     1     0     0
SMALL
GAST_HUCK


@<TRIPOS>ATOM
      1 CL1       -12.3070  -20.5080   -1.3860 Cl        1 72P        -0.0826
      2 C1        -13.1970  -21.4180   -0.1930 C.ar      1 72P         0.0225
      3 C2        -14.2150  -20.7680    0.5050 C.ar      1 72P        -0.0683
      4 C3        -14.9430  -21.4550    1.4560 C.ar      1 72P        -0.0772
      5 C4        -14.6410  -22.7980    1.7010 C.ar      1 72P        -0.0146
      6 C5        -15.1820  -23.7780    2.6050 C.2       1 72P         0.0279
      7 S1        -16.5110  -23.5080    3.7150 S.3       1 72P        -0.0799
      8 C6        -15.8810  -22.3900    4.9500 C.ar      1 72P         0.0239
      9 C7        -14.6660  -21.7290    4.8840 C.ar      1 72P        -0.0464
     10 C8        -14.2790  -20.8780    5.8950 C.ar      1 72P        -0.0643
     11 C9        -15.0990  -20.6750    6.9890 C.ar      1 72P        -0.0547
     12 C10       -16.3200  -21.3260    7.0750 C.ar      1 72P         0.0041
     13 C11       -17.2140  -21.1120    8.2540 C.2       1 72P         0.0613
     14 O1        -18.3470  -21.7700    8.2200 O.co2     1 72P        -0.5607
     15 O2        -16.9060  -20.3740    9.1790 O.co2     1 72P        -0.5607
     16 C12       -16.7030  -22.1820    6.0490 C.ar      1 72P        -0.0349
     17 C13       -14.5020  -24.9520    2.4210 C.2       1 72P         0.0668
     18 C14       -14.6880  -26.2590    3.1060 C.3       1 72P        -0.0086
     19 N1        -13.5320  -24.7540    1.4450 N.pl3     1 72P        -0.2228
     20 C15       -12.6110  -25.7470    0.9730 C.ar      1 72P         0.0874
     21 C16       -11.3100  -25.7620    1.4400 C.ar      1 72P        -0.0309
     22 C17       -10.4340  -26.7380    0.9880 C.ar      1 72P        -0.0682
     23 C18       -10.8560  -27.6970    0.0930 C.ar      1 72P        -0.0707
     24 C19       -12.1570  -27.6840   -0.3570 C.ar      1 72P        -0.0682
     25 C20       -13.0450  -26.7140    0.0860 C.ar      1 72P        -0.0309
     26 C21       -13.6070  -23.4310    0.9910 C.ar      1 72P         0.0769
     27 C22       -12.8650  -22.7470    0.0290 C.ar      1 72P        -0.0305
     28 H1        -14.4340  -19.7261    0.3012 H         1 72P         0.0511
     29 H2        -15.7367  -20.9606    2.0044 H         1 72P         0.0515
     30 H3        -14.0152  -21.8825    4.0308 H         1 72P         0.0586
     31 H4        -13.3263  -20.3646    5.8326 H         1 72P         0.0606
     32 H5        -14.7866  -20.0050    7.7818 H         1 72P         0.0591
     33 H6        -17.6566  -22.6941    6.1079 H         1 72P         0.0598
     34 H7        -15.5086  -26.1778    3.8341 H         1 72P         0.0409
     35 H8        -13.7601  -26.5345    3.6286 H         1 72P         0.0409
     36 H9        -14.9330  -27.0313    2.3620 H         1 72P         0.0409
     37 H10       -10.9770  -25.0171    2.1537 H         1 72P         0.0566
     38 H11        -9.4093  -26.7463    1.3417 H         1 72P         0.0594
     39 H12       -10.1669  -28.4580   -0.2551 H         1 72P         0.0541
     40 H13       -12.4901  -28.4368   -1.0623 H         1 72P         0.0594
     41 H14       -14.0719  -26.7147   -0.2612 H         1 72P         0.0566
     42 H15       -12.0656  -23.2310   -0.5202 H         1 72P         0.0548
@<TRIPOS>BOND
     1    1    2 1  
     2    2    3 ar 
     3    2   27 ar 
     4    3    4 ar 
     5    4    5 ar 
     6    5    6 1  
     7    5   26 ar 
     8    6    7 1  
     9    6   17 2  
    10    7    8 1  
    11    8    9 ar 
    12    8   16 ar 
    13    9   10 ar 
    14   10   11 ar 
    15   11   12 ar 
    16   12   13 1  
    17   12   16 ar 
    18   13   14 ar 
    19   13   15 ar 
    20   17   18 1  
    21   17   19 1  
    22   19   20 1  
    23   19   26 1  
    24   20   21 ar 
    25   20   25 ar 
    26   21   22 ar 
    27   22   23 ar 
    28   23   24 ar 
    29   24   25 ar 
    30   26   27 ar 
    31    3   28 1  
    32    4   29 1  
    33    9   30 1  
    34   10   31 1  
    35   11   32 1  
    36   16   33 1  
    37   18   34 1  
    38   18   35 1  
    39   18   36 1  
    40   21   37 1  
    41   22   38 1  
    42   23   39 1  
    43   24   40 1  
    44   25   41 1  
    45   27   42 1  
@<TRIPOS>SUBSTRUCTURE
     1 72P         1

