### 
### Created by X-TOOL on Mon Sep 10 21:13:27 2018
### 

@<TRIPOS>MOLECULE
5lrg_ligand
  122   125     1     0     0
SMALL
GAST_HUCK


@<TRIPOS>ATOM
      1 C2         26.9640   -3.7210   -0.4980 C.cat     1 73N         0.2882
      2 C9         24.6540   -1.6360    2.8210 C.3       1 73N        -0.0150
      3 C12        23.2290   -2.0750    3.1870 C.3       1 73N         0.0948
      4 C20        22.8410   -3.3540    2.4290 C.2       1 73N         0.0599
      5 N23        23.1470   -2.2400    4.6360 N.am      1 73N        -0.2575
      6 N1         26.3590   -4.7700    0.0250 N.pl3     1 73N        -0.2849
      7 N3         27.2370   -3.7160   -1.7840 N.pl3     1 73N        -0.2849
      8 N4         27.2990   -2.6520    0.2780 N.pl3     1 73N        -0.2723
      9 C5         26.2400   -1.8150    0.8640 C.3       1 73N         0.0627
     10 C6         25.4200   -2.5700    1.9030 C.3       1 73N        -0.0162
     11 O21        22.9960   -4.4370    2.9940 O.co2     1 73N        -0.5666
     12 O22        22.3650   -3.2530    1.2760 O.co2     1 73N        -0.5666
     13 C25        21.9200   -2.4640    5.1420 C.2       1 73N         0.2614
     14 O26        20.9250   -2.6260    4.4420 O.2       1 73N        -0.4006
     15 N          21.8330   -2.5030    6.4630 N.am      1 DLY        -0.2518
     16 CA         20.5410   -2.2750    7.0840 C.3       1 DLY         0.1313
     17 C          19.7090   -3.5440    7.2010 C.2       1 DLY         0.2037
     18 O          18.5140   -3.4860    7.4900 O.2       1 DLY        -0.3944
     19 CB         20.7520   -1.6700    8.4760 C.3       1 DLY        -0.0124
     20 CG         21.1940   -2.6810    9.5170 C.3       1 DLY        -0.0440
     21 CD         21.4510   -2.0580   10.8730 C.3       1 DLY        -0.0110
     22 CE         22.4580   -2.8530   11.7030 C.3       1 DLY         0.0067
     23 NZ         22.1370   -4.2920   11.7120 N.4       1 DLY         0.4479
     24 N          20.3690   -4.6990    6.9640 N.am      1 VAL        -0.2635
     25 CA         19.6230   -5.9590    7.1440 C.3       1 VAL         0.1332
     26 C          19.3980   -6.2990    8.5870 C.2       1 VAL         0.2042
     27 O          20.3310   -6.2680    9.3890 O.2       1 VAL        -0.3944
     28 CB         20.3920   -7.1260    6.4580 C.3       1 VAL        -0.0063
     29 CG1        19.6960   -8.4560    6.7410 C.3       1 VAL        -0.0584
     30 CG2        20.4700   -6.8880    4.9600 C.3       1 VAL        -0.0584
     31 N49        18.1200   -6.6380    8.9150 N.am      1 73O        -0.2636
     32 C50        17.9730   -7.1280   10.3050 C.3       1 73O         0.1327
     33 C51        18.5750   -8.5070   10.4980 C.2       1 73O         0.2063
     34 C52        16.4870   -7.1710   10.6780 C.3       1 73O        -0.0041
     35 C54        15.7100   -5.9060   10.3430 C.3       1 73O        -0.0200
     36 C57        14.2500   -6.2170   10.6050 C.ar      1 73O        -0.0535
     37 C60        13.6530   -5.9730   11.9500 C.ar      1 73O        -0.0687
     38 C61        12.2590   -6.3450   12.2270 C.ar      1 73O        -0.0398
     39 C62        11.4610   -7.0240   11.2230 C.ar      1 73O         0.0805
     40 C63        12.0640   -7.3410    9.9130 C.ar      1 73O        -0.0398
     41 C64        13.4480   -6.8900    9.5890 C.ar      1 73O        -0.0687
     42 O69        10.1610   -7.3920   11.5180 O.3       1 73O        -0.3376
     43 O85        18.4130   -9.3830    9.6600 O.2       1 73O        -0.3942
     44 N          19.2670   -8.6680   11.6420 N.am      1 MAA        -0.2532
     45 CM         19.8740   -9.9180   12.0570 C.3       1 MAA         0.0254
     46 CA         19.3860   -7.5250   12.5640 C.3       1 MAA         0.1305
     47 CB         18.8010   -7.8990   13.9170 C.3       1 MAA        -0.0242
     48 C          20.8270   -7.1210   12.7430 C.2       1 MAA         0.2023
     49 O          21.3290   -7.0540   13.8630 O.2       1 MAA        -0.3945
     50 N          21.4750   -6.8480   11.6050 N.am      1 PHE        -0.2692
     51 CA         22.8910   -6.5880   11.7530 C.3       1 PHE         0.1571
     52 C          23.1950   -5.1310   11.8500 C.3       1 PHE         0.3000
     53 O          24.3490   -4.7480   12.0250 O.3       1 PHE        -0.3202
     54 CB         23.6520   -7.1730   10.5620 C.3       1 PHE         0.0150
     55 CG         23.2780   -8.6100   10.3730 C.ar      1 PHE        -0.0404
     56 CD1        23.8560   -9.6490   11.2470 C.ar      1 PHE        -0.0603
     57 CD2        22.3730   -8.9870    9.2940 C.ar      1 PHE        -0.0603
     58 CE1        23.5380  -11.0700   11.0100 C.ar      1 PHE        -0.0686
     59 CE2        22.0650  -10.4070    9.0560 C.ar      1 PHE        -0.0686
     60 CZ         22.6410  -11.4490    9.9130 C.ar      1 PHE        -0.0687
     61 OXT        22.2940   -4.3010   11.7560 O.3       1 PHE        -0.2309
     62 H1         25.2266   -1.5371    3.7550 H         1 73N         0.0306
     63 H2         24.5880   -0.6560    2.3258 H         1 73N         0.0306
     64 H3         22.5291   -1.2802    2.8897 H         1 73N         0.0723
     65 H4         23.9574   -2.1894    5.2197 H         1 73N         0.1869
     66 H5         26.1108   -5.5720   -0.5718 H         1 73N         0.2615
     67 H6         26.1348   -4.7871    1.0302 H         1 73N         0.2615
     68 H7         27.7091   -2.9042   -2.2071 H         1 73N         0.2615
     69 H8         26.9788   -4.5239   -2.3684 H         1 73N         0.2615
     70 H9         28.2895   -2.4308    0.4536 H         1 73N         0.2642
     71 H10        25.5693   -1.4775    0.0601 H         1 73N         0.0689
     72 H11        26.7041   -0.9415    1.3452 H         1 73N         0.0689
     73 H12        24.7026   -3.2214    1.3823 H         1 73N         0.0301
     74 H13        26.0995   -3.1852    2.5111 H         1 73N         0.0301
     75 H14        22.6418   -2.6860    7.0218 H         1 DLY         0.1877
     76 H15        19.9840   -1.5565    6.4647 H         1 DLY         0.0797
     77 H16        19.8040   -1.2214    8.8076 H         1 DLY         0.0312
     78 H17        21.5218   -0.8878    8.4022 H         1 DLY         0.0312
     79 H18        22.1214   -3.1598    9.1695 H         1 DLY         0.0269
     80 H19        20.4065   -3.4415    9.6240 H         1 DLY         0.0269
     81 H20        20.5004   -2.0093   11.4243 H         1 DLY         0.0317
     82 H21        21.8417   -1.0404   10.7250 H         1 DLY         0.0317
     83 H22        22.4442   -2.4776   12.7369 H         1 DLY         0.0827
     84 H23        23.4620   -2.7138   11.2757 H         1 DLY         0.0827
     85 H24        21.2016   -4.5673   11.9676 H         1 DLY         0.2461
     86 H25        21.3270   -4.6997    6.6774 H         1 VAL         0.1883
     87 H26        18.6416   -5.8475    6.6599 H         1 VAL         0.0802
     88 H27        21.4130   -7.1661    6.8653 H         1 VAL         0.0343
     89 H28        20.2492   -9.2708    6.2510 H         1 VAL         0.0234
     90 H29        18.6687   -8.4229    6.3492 H         1 VAL         0.0234
     91 H30        19.6690   -8.6321    7.8265 H         1 VAL         0.0234
     92 H31        20.9724   -5.9287    4.7669 H         1 VAL         0.0234
     93 H32        19.4539   -6.8609    4.5396 H         1 VAL         0.0234
     94 H33        21.0403   -7.7019    4.4886 H         1 VAL         0.0234
     95 H34        17.3533   -6.5631    8.2774 H         1 73O         0.1883
     96 H35        18.4901   -6.4263   10.9759 H         1 73O         0.0801
     97 H36        16.4107   -7.3430   11.7618 H         1 73O         0.0332
     98 H37        16.0229   -8.0106   10.1399 H         1 73O         0.0332
     99 H38        15.8579   -5.6375    9.2866 H         1 73O         0.0407
    100 H39        16.0424   -5.0750   10.9825 H         1 73O         0.0407
    101 H40        14.2527   -5.5174   12.7296 H         1 73O         0.0530
    102 H41        11.8222   -6.1100   13.1909 H         1 73O         0.0525
    103 H42        11.4968   -7.9054    9.1818 H         1 73O         0.0525
    104 H43        13.8575   -7.0619    8.6001 H         1 73O         0.0530
    105 H44         9.5689   -6.9835   10.8976 H         1 73O         0.2458
    106 H45        19.7111  -10.6802   11.2808 H         1 MAA         0.0488
    107 H46        19.4174  -10.2520   13.0004 H         1 MAA         0.0488
    108 H47        20.9540   -9.7700   12.2045 H         1 MAA         0.0488
    109 H48        18.8256   -6.6741   12.1495 H         1 MAA         0.0799
    110 H49        18.8907   -7.0446   14.6040 H         1 MAA         0.0277
    111 H50        19.3492   -8.7594   14.3284 H         1 MAA         0.0277
    112 H51        17.7400   -8.1634   13.7973 H         1 MAA         0.0277
    113 H52        21.0149   -6.8252   10.7174 H         1 PHE         0.1861
    114 H53        23.2373   -7.0782   12.6748 H         1 PHE         0.0697
    115 H54        24.9267   -5.5003   12.0770 H         1 PHE         0.2185
    116 H55        24.7335   -7.0994   10.7487 H         1 PHE         0.0452
    117 H56        23.3974   -6.6076    9.6534 H         1 PHE         0.0452
    118 H57        24.5133   -9.3685   12.0621 H         1 PHE         0.0557
    119 H58        21.9273   -8.2227    8.6676 H         1 PHE         0.0557
    120 H59        23.9676  -11.8346   11.6471 H         1 PHE         0.0599
    121 H60        21.4070  -10.6848    8.2406 H         1 PHE         0.0599
    122 H61        22.4053  -12.4923    9.7367 H         1 PHE         0.0559
@<TRIPOS>BOND
     1    1    6 ar 
     2    1    7 ar 
     3    8    1 ar 
     4    2    3 1  
     5   10    2 1  
     6    3    4 1  
     7    3    5 1  
     8    4   11 ar 
     9    4   12 ar 
    10    5   13 am 
    11    9    8 1  
    12    9   10 1  
    13   13   14 2  
    14   13   15 am 
    15   15   16 1  
    16   16   17 1  
    17   16   19 1  
    18   17   18 2  
    19   17   24 am 
    20   19   20 1  
    21   20   21 1  
    22   21   22 1  
    23   22   23 1  
    24   23   52 1  
    25   23   61 1  
    26   24   25 1  
    27   25   26 1  
    28   25   28 1  
    29   26   27 2  
    30   26   31 am 
    31   28   29 1  
    32   28   30 1  
    33   31   32 1  
    34   32   33 1  
    35   32   34 1  
    36   33   43 2  
    37   33   44 am 
    38   34   35 1  
    39   35   36 1  
    40   36   37 ar 
    41   36   41 ar 
    42   37   38 ar 
    43   38   39 ar 
    44   39   40 ar 
    45   39   42 1  
    46   40   41 ar 
    47   44   45 1  
    48   44   46 1  
    49   46   47 1  
    50   46   48 1  
    51   48   49 2  
    52   48   50 am 
    53   50   51 1  
    54   51   52 1  
    55   51   54 1  
    56   52   53 1  
    57   52   61 1  
    58   54   55 1  
    59   55   56 ar 
    60   55   57 ar 
    61   56   58 ar 
    62   57   59 ar 
    63   58   60 ar 
    64   59   60 ar 
    65    2   62 1  
    66    2   63 1  
    67    3   64 1  
    68    5   65 1  
    69    6   66 1  
    70    6   67 1  
    71    7   68 1  
    72    7   69 1  
    73    8   70 1  
    74    9   71 1  
    75    9   72 1  
    76   10   73 1  
    77   10   74 1  
    78   15   75 1  
    79   16   76 1  
    80   19   77 1  
    81   19   78 1  
    82   20   79 1  
    83   20   80 1  
    84   21   81 1  
    85   21   82 1  
    86   22   83 1  
    87   22   84 1  
    88   23   85 1  
    89   24   86 1  
    90   25   87 1  
    91   28   88 1  
    92   29   89 1  
    93   29   90 1  
    94   29   91 1  
    95   30   92 1  
    96   30   93 1  
    97   30   94 1  
    98   31   95 1  
    99   32   96 1  
   100   34   97 1  
   101   34   98 1  
   102   35   99 1  
   103   35  100 1  
   104   37  101 1  
   105   38  102 1  
   106   40  103 1  
   107   41  104 1  
   108   42  105 1  
   109   45  106 1  
   110   45  107 1  
   111   45  108 1  
   112   46  109 1  
   113   47  110 1  
   114   47  111 1  
   115   47  112 1  
   116   50  113 1  
   117   51  114 1  
   118   53  115 1  
   119   54  116 1  
   120   54  117 1  
   121   56  118 1  
   122   57  119 1  
   123   58  120 1  
   124   59  121 1  
   125   60  122 1  
@<TRIPOS>SUBSTRUCTURE
     1 73N         1

