### 
### Created by X-TOOL on Mon Sep 10 21:13:26 2018
### 

@<TRIPOS>MOLECULE
5lrj_ligand
  120   123     1     0     0
SMALL
GAST_HUCK


@<TRIPOS>ATOM
      1 C1         27.3680   -2.2660    0.1520 C.3       1 73P        -0.0354
      2 C9         24.9120   -2.4250    3.1680 C.3       1 73P        -0.0180
      3 C12        23.3990   -2.2570    3.3270 C.3       1 73P         0.0947
      4 C20        22.6580   -3.2570    2.4330 C.2       1 73P         0.0599
      5 N23        23.0350   -2.3350    4.7500 N.am      1 73P        -0.2575
      6 C25        21.7760   -2.2740    5.1970 C.2       1 73P         0.2614
      7 O26        20.8240   -2.2510    4.4290 O.2       1 73P        -0.4006
      8 O22        22.0470   -2.8570    1.4430 O.co2     1 73P        -0.5666
      9 O21        22.6670   -4.4620    2.6790 O.co2     1 73P        -0.5666
     10 C6         25.3800   -2.2260    1.7230 C.3       1 73P        -0.0446
     11 C5         26.8900   -2.4390    1.5960 C.3       1 73P        -0.0125
     12 N1         26.7330   -3.2730   -0.7100 N.4       1 73P         0.2185
     13 N          21.6060   -2.3490    6.5180 N.am      1 DLY        -0.2518
     14 CA         20.3000   -2.1980    7.1820 C.3       1 DLY         0.1313
     15 C          19.4660   -3.4730    7.3010 C.2       1 DLY         0.2037
     16 O          18.2510   -3.3900    7.4820 O.2       1 DLY        -0.3944
     17 CB         20.4530   -1.5720    8.5730 C.3       1 DLY        -0.0124
     18 CG         21.4190   -2.3460    9.4730 C.3       1 DLY        -0.0440
     19 CD         21.3090   -1.8300   10.9100 C.3       1 DLY        -0.0110
     20 CE         22.2960   -2.5050   11.8640 C.3       1 DLY         0.0067
     21 NZ         22.1000   -3.9620   11.8750 N.4       1 DLY         0.4479
     22 N          20.1080   -4.6350    7.2380 N.am      1 VAL        -0.2635
     23 CA         19.3750   -5.9040    7.3690 C.3       1 VAL         0.1332
     24 C          19.1740   -6.1860    8.8600 C.2       1 VAL         0.2042
     25 O          20.0830   -5.9770    9.6630 O.2       1 VAL        -0.3944
     26 CB         20.1710   -7.0290    6.7000 C.3       1 VAL        -0.0063
     27 CG1        19.7310   -8.4310    7.1360 C.3       1 VAL        -0.0584
     28 CG2        20.0960   -6.9020    5.1770 C.3       1 VAL        -0.0584
     29 N49        17.9730   -6.6530    9.1940 N.am      1 73O        -0.2636
     30 C50        17.6200   -7.0010   10.5790 C.3       1 73O         0.1327
     31 C51        18.2490   -8.3540   10.9220 C.2       1 73O         0.2063
     32 C52        16.1030   -7.1200   10.7260 C.3       1 73O        -0.0041
     33 C54        15.3860   -5.7890   10.4840 C.3       1 73O        -0.0200
     34 C57        13.8700   -5.9690   10.5830 C.ar      1 73O        -0.0535
     35 C60        13.1300   -5.2040   11.4790 C.ar      1 73O        -0.0687
     36 C61        11.7510   -5.3770   11.5710 C.ar      1 73O        -0.0398
     37 C62        11.1130   -6.3180   10.7670 C.ar      1 73O         0.0805
     38 C63        11.8520   -7.0850    9.8710 C.ar      1 73O        -0.0398
     39 C64        13.2290   -6.9090    9.7790 C.ar      1 73O        -0.0687
     40 O69         9.7680   -6.4970   10.8600 O.3       1 73O        -0.3376
     41 O85        18.0610   -9.3150   10.1770 O.2       1 73O        -0.3942
     42 N          19.0190   -8.3960   12.0090 N.am      1 MAA        -0.2532
     43 CM         19.5930   -9.7170   12.3080 C.3       1 MAA         0.0254
     44 CA         19.2440   -7.2020   12.8410 C.3       1 MAA         0.1305
     45 CB         18.5600   -7.3700   14.2010 C.3       1 MAA        -0.0242
     46 C          20.7460   -6.9750   13.0200 C.2       1 MAA         0.2023
     47 O          21.2980   -7.1880   14.0990 O.2       1 MAA        -0.3945
     48 N          21.3740   -6.5300   11.9350 N.am      1 PHE        -0.2692
     49 CA         22.8240   -6.2840   11.9130 C.3       1 PHE         0.1571
     50 C          23.1430   -4.7870   11.9070 C.3       1 PHE         0.3000
     51 O          24.3100   -4.3980   11.9210 O.3       1 PHE        -0.3202
     52 CB         23.4340   -6.9340   10.6690 C.3       1 PHE         0.0150
     53 CG         23.1390   -8.4340   10.5870 C.ar      1 PHE        -0.0404
     54 CD1        23.7300   -9.3220   11.4820 C.ar      1 PHE        -0.0603
     55 CD2        22.2830   -8.9130    9.5990 C.ar      1 PHE        -0.0603
     56 CE1        23.4670  -10.6850   11.3880 C.ar      1 PHE        -0.0686
     57 CE2        22.0210  -10.2770    9.5030 C.ar      1 PHE        -0.0686
     58 CZ         22.6130  -11.1630   10.3980 C.ar      1 PHE        -0.0687
     59 OXT        22.2360   -3.9560   11.8880 O.3       1 PHE        -0.2309
     60 H1         28.4604   -2.3888    0.1123 H         1 73P         0.0813
     61 H2         27.0989   -1.2603   -0.2031 H         1 73P         0.0813
     62 H3         25.1894   -3.4392    3.4913 H         1 73P         0.0305
     63 H4         25.4173   -1.6855    3.8066 H         1 73P         0.0305
     64 H5         23.1304   -1.2492    2.9774 H         1 73P         0.0723
     65 H6         23.7696   -2.4394    5.4204 H         1 73P         0.1869
     66 H7         25.1340   -1.2025    1.4039 H         1 73P         0.0269
     67 H8         24.8602   -2.9470    1.0750 H         1 73P         0.0269
     68 H9         27.4078   -1.7067    2.2329 H         1 73P         0.0317
     69 H10        27.1358   -3.4568    1.9331 H         1 73P         0.0317
     70 H11        27.0524   -3.1529   -1.6585 H         1 73P         0.1994
     71 H12        25.7318   -3.1613   -0.6759 H         1 73P         0.1994
     72 H13        26.9794   -4.1954   -0.3868 H         1 73P         0.1994
     73 H14        22.4096   -2.5170    7.0889 H         1 DLY         0.1877
     74 H15        19.7196   -1.4971    6.5641 H         1 DLY         0.0797
     75 H16        19.4656   -1.5478    9.0573 H         1 DLY         0.0312
     76 H17        20.8293   -0.5450    8.4560 H         1 DLY         0.0312
     77 H18        22.4483   -2.2052    9.1115 H         1 DLY         0.0269
     78 H19        21.1647   -3.4159    9.4480 H         1 DLY         0.0269
     79 H20        20.2874   -2.0170   11.2725 H         1 DLY         0.0317
     80 H21        21.5058   -0.7478   10.9100 H         1 DLY         0.0317
     81 H22        22.1408   -2.1129   12.8799 H         1 DLY         0.0827
     82 H23        23.3225   -2.2820   11.5377 H         1 DLY         0.0827
     83 H24        21.2610   -4.2639   12.3451 H         1 DLY         0.2461
     84 H25        21.0984   -4.6469    7.1003 H         1 VAL         0.1883
     85 H26        18.3942   -5.8170    6.8787 H         1 VAL         0.0802
     86 H27        21.2227   -6.9079    6.9988 H         1 VAL         0.0343
     87 H28        20.3426   -9.1847    6.6184 H         1 VAL         0.0234
     88 H29        18.6717   -8.5792    6.8794 H         1 VAL         0.0234
     89 H30        19.8631   -8.5353    8.2230 H         1 VAL         0.0234
     90 H31        20.4139   -5.8925    4.8772 H         1 VAL         0.0234
     91 H32        19.0615   -7.0743    4.8452 H         1 VAL         0.0234
     92 H33        20.7587   -7.6478    4.7138 H         1 VAL         0.0234
     93 H34        17.2858   -6.7716    8.4773 H         1 73O         0.1883
     94 H35        17.9984   -6.2265   11.2623 H         1 73O         0.0801
     95 H36        15.8729   -7.4648   11.7449 H         1 73O         0.0332
     96 H37        15.7344   -7.8571    9.9975 H         1 73O         0.0332
     97 H38        15.6413   -5.4179    9.4804 H         1 73O         0.0407
     98 H39        15.7135   -5.0593   11.2391 H         1 73O         0.0407
     99 H40        13.6271   -4.4727   12.1060 H         1 73O         0.0530
    100 H41        11.1748   -4.7794   12.2681 H         1 73O         0.0525
    101 H42        11.3555   -7.8183    9.2459 H         1 73O         0.0525
    102 H43        13.8046   -7.5048    9.0799 H         1 73O         0.0530
    103 H44         9.3671   -6.3200   10.0171 H         1 73O         0.2458
    104 H45        19.2767  -10.4368   11.5387 H         1 MAA         0.0488
    105 H46        19.2408  -10.0553   13.2936 H         1 MAA         0.0488
    106 H47        20.6907   -9.6467   12.3152 H         1 MAA         0.0488
    107 H48        18.8110   -6.3274   12.3336 H         1 MAA         0.0799
    108 H49        18.7350   -6.4727   14.8128 H         1 MAA         0.0277
    109 H50        18.9750   -8.2501   14.7139 H         1 MAA         0.0277
    110 H51        17.4787   -7.5077   14.0531 H         1 MAA         0.0277
    111 H52        20.8421   -6.3568   11.1061 H         1 PHE         0.1861
    112 H53        23.2706   -6.7358   12.8110 H         1 PHE         0.0697
    113 H54        24.8926   -5.1483   11.9348 H         1 PHE         0.2185
    114 H55        24.5242   -6.7898   10.6942 H         1 PHE         0.0452
    115 H56        23.0198   -6.4437    9.7757 H         1 PHE         0.0452
    116 H57        24.3957   -8.9510   12.2528 H         1 PHE         0.0557
    117 H58        21.8197   -8.2228    8.9033 H         1 PHE         0.0557
    118 H59        23.9273  -11.3750   12.0859 H         1 PHE         0.0599
    119 H60        21.3563  -10.6486    8.7316 H         1 PHE         0.0599
    120 H61        22.4092  -12.2251   10.3243 H         1 PHE         0.0559
@<TRIPOS>BOND
     1   11    1 1  
     2    1   12 1  
     3    2    3 1  
     4   10    2 1  
     5    3    4 1  
     6    3    5 1  
     7    4    8 ar 
     8    4    9 ar 
     9    5    6 am 
    10    6    7 2  
    11    6   13 am 
    12   10   11 1  
    13   13   14 1  
    14   14   15 1  
    15   14   17 1  
    16   15   16 2  
    17   15   22 am 
    18   17   18 1  
    19   18   19 1  
    20   19   20 1  
    21   20   21 1  
    22   21   50 1  
    23   21   59 1  
    24   22   23 1  
    25   23   24 1  
    26   23   26 1  
    27   24   25 2  
    28   24   29 am 
    29   26   27 1  
    30   26   28 1  
    31   29   30 1  
    32   30   31 1  
    33   30   32 1  
    34   31   41 2  
    35   31   42 am 
    36   32   33 1  
    37   33   34 1  
    38   34   35 ar 
    39   34   39 ar 
    40   35   36 ar 
    41   36   37 ar 
    42   37   38 ar 
    43   37   40 1  
    44   38   39 ar 
    45   42   43 1  
    46   42   44 1  
    47   44   45 1  
    48   44   46 1  
    49   46   47 2  
    50   46   48 am 
    51   48   49 1  
    52   49   50 1  
    53   49   52 1  
    54   50   51 1  
    55   50   59 1  
    56   52   53 1  
    57   53   54 ar 
    58   53   55 ar 
    59   54   56 ar 
    60   55   57 ar 
    61   56   58 ar 
    62   57   58 ar 
    63    1   60 1  
    64    1   61 1  
    65    2   62 1  
    66    2   63 1  
    67    3   64 1  
    68    5   65 1  
    69   10   66 1  
    70   10   67 1  
    71   11   68 1  
    72   11   69 1  
    73   12   70 1  
    74   12   71 1  
    75   12   72 1  
    76   13   73 1  
    77   14   74 1  
    78   17   75 1  
    79   17   76 1  
    80   18   77 1  
    81   18   78 1  
    82   19   79 1  
    83   19   80 1  
    84   20   81 1  
    85   20   82 1  
    86   21   83 1  
    87   22   84 1  
    88   23   85 1  
    89   26   86 1  
    90   27   87 1  
    91   27   88 1  
    92   27   89 1  
    93   28   90 1  
    94   28   91 1  
    95   28   92 1  
    96   29   93 1  
    97   30   94 1  
    98   32   95 1  
    99   32   96 1  
   100   33   97 1  
   101   33   98 1  
   102   35   99 1  
   103   36  100 1  
   104   38  101 1  
   105   39  102 1  
   106   40  103 1  
   107   43  104 1  
   108   43  105 1  
   109   43  106 1  
   110   44  107 1  
   111   45  108 1  
   112   45  109 1  
   113   45  110 1  
   114   48  111 1  
   115   49  112 1  
   116   51  113 1  
   117   52  114 1  
   118   52  115 1  
   119   54  116 1  
   120   55  117 1  
   121   56  118 1  
   122   57  119 1  
   123   58  120 1  
@<TRIPOS>SUBSTRUCTURE
     1 73P         1

