### 
### Created by X-TOOL on Mon Sep 10 21:13:26 2018
### 

@<TRIPOS>MOLECULE
5lrk_ligand
  125   128     1     0     0
SMALL
GAST_HUCK


@<TRIPOS>ATOM
      1 C2         26.8790   -3.8360   -0.5000 C.cat     1 73N         0.2882
      2 C9         24.6750   -1.9740    2.9750 C.3       1 73N        -0.0150
      3 C12        23.2200   -2.3250    3.2690 C.3       1 73N         0.0948
      4 C20        22.8060   -3.5580    2.4460 C.2       1 73N         0.0599
      5 N23        23.0640   -2.5210    4.7020 N.am      1 73N        -0.2575
      6 N1         26.2730   -4.9030    0.0310 N.pl3     1 73N        -0.2849
      7 N3         27.1210   -3.8060   -1.8010 N.pl3     1 73N        -0.2849
      8 N4         27.2580   -2.7830    0.2950 N.pl3     1 73N        -0.2723
      9 C5         26.5040   -1.9040    1.2300 C.3       1 73N         0.0627
     10 C6         25.2020   -2.5480    1.6750 C.3       1 73N        -0.0162
     11 O21        22.8910   -4.6660    2.9700 O.co2     1 73N        -0.5666
     12 O22        22.3970   -3.3930    1.2850 O.co2     1 73N        -0.5666
     13 C25        21.8100   -2.6390    5.1460 C.2       1 73N         0.2614
     14 O26        20.8670   -2.8220    4.3770 O.2       1 73N        -0.4006
     15 N          21.6630   -2.5450    6.4790 N.am      1 DLY        -0.2518
     16 CA         20.3220   -2.3590    7.0570 C.3       1 DLY         0.1313
     17 C          19.5120   -3.6640    7.1180 C.2       1 DLY         0.2037
     18 O          18.3190   -3.6620    7.4230 O.2       1 DLY        -0.3944
     19 CB         20.4570   -1.7710    8.4640 C.3       1 DLY        -0.0124
     20 CG         21.3760   -2.5530    9.3830 C.3       1 DLY        -0.0440
     21 CD         21.1850   -2.1980   10.8540 C.3       1 DLY        -0.0110
     22 CE         22.2260   -2.8540   11.7580 C.3       1 DLY         0.0067
     23 NZ         22.0530   -4.3220   11.8060 N.4       1 DLY         0.4479
     24 N          20.1910   -4.7700    6.8220 N.am      1 IIL        -0.2635
     25 CA         19.4990   -6.0360    7.0890 C.3       1 IIL         0.1335
     26 C          19.2700   -6.2650    8.5450 C.2       1 IIL         0.2042
     27 O          20.1910   -6.1210    9.3530 O.2       1 IIL        -0.3944
     28 CB         20.3330   -7.1810    6.5220 C.3       1 IIL        -0.0037
     29 CG2        20.5510   -6.9930    5.0470 C.3       1 IIL        -0.0582
     30 CG1        19.6120   -8.5130    6.7350 C.3       1 IIL        -0.0491
     31 CD1        20.4420   -9.6740    6.2980 C.3       1 IIL        -0.0648
     32 N49        17.9940   -6.6090    8.8970 N.am      1 73O        -0.2636
     33 C50        17.8660   -7.0980   10.2780 C.3       1 73O         0.1327
     34 C51        18.4420   -8.4850   10.4480 C.2       1 73O         0.2063
     35 C52        16.3880   -7.1170   10.6790 C.3       1 73O        -0.0041
     36 C54        15.6880   -5.7650   10.5750 C.3       1 73O        -0.0200
     37 C57        14.1830   -5.9750   10.6750 C.ar      1 73O        -0.0535
     38 C60        13.4260   -5.4140   11.8140 C.ar      1 73O        -0.0687
     39 C61        11.9980   -5.7770   12.0040 C.ar      1 73O        -0.0398
     40 C62        11.3480   -6.7130   11.0740 C.ar      1 73O         0.0805
     41 C63        12.0900   -7.2180    9.9110 C.ar      1 73O        -0.0398
     42 C64        13.4910   -6.8160    9.6880 C.ar      1 73O        -0.0687
     43 O69        10.0470   -7.1390   11.3040 O.3       1 73O        -0.3376
     44 O85        18.2120   -9.3690    9.6220 O.2       1 73O        -0.3942
     45 N          19.2110   -8.6460   11.5610 N.am      1 MAA        -0.2532
     46 CM         19.9360   -9.8520   11.8860 C.3       1 MAA         0.0254
     47 CA         19.3130   -7.5340   12.5170 C.3       1 MAA         0.1305
     48 CB         18.7250   -7.9570   13.8530 C.3       1 MAA        -0.0242
     49 C          20.7650   -7.1630   12.7130 C.2       1 MAA         0.2023
     50 O          21.2620   -7.1270   13.8390 O.2       1 MAA        -0.3945
     51 N          21.4260   -6.8950   11.5950 N.am      1 PHE        -0.2692
     52 CA         22.8320   -6.6170   11.7410 C.3       1 PHE         0.1571
     53 C          23.1290   -5.1440   11.8090 C.3       1 PHE         0.3000
     54 O          24.2920   -4.7490   11.8580 O.3       1 PHE        -0.3202
     55 CB         23.5990   -7.2240   10.5650 C.3       1 PHE         0.0150
     56 CG         23.2660   -8.6850   10.4240 C.ar      1 PHE        -0.0404
     57 CD1        23.8550   -9.6690   11.3440 C.ar      1 PHE        -0.0603
     58 CD2        22.4150   -9.1370    9.3200 C.ar      1 PHE        -0.0603
     59 CE1        23.5650  -11.1070   11.1700 C.ar      1 PHE        -0.0686
     60 CE2        22.1330  -10.5760    9.1500 C.ar      1 PHE        -0.0686
     61 CZ         22.6820  -11.5620   10.0860 C.ar      1 PHE        -0.0687
     62 OXT        22.2100   -4.3270   11.8160 O.3       1 PHE        -0.2309
     63 H1         25.2956   -2.3577    3.7982 H         1 73N         0.0306
     64 H2         24.7632   -0.8785    2.9292 H         1 73N         0.0306
     65 H3         22.5819   -1.4820    2.9653 H         1 73N         0.0723
     66 H4         23.8500   -2.5648    5.3187 H         1 73N         0.1869
     67 H5         25.9918   -5.6889   -0.5724 H         1 73N         0.2615
     68 H6         26.0874   -4.9390    1.0435 H         1 73N         0.2615
     69 H7         27.5873   -2.9884   -2.2194 H         1 73N         0.2615
     70 H8         26.8430   -4.6002   -2.3950 H         1 73N         0.2615
     71 H9         28.2609   -2.5568    0.2321 H         1 73N         0.2642
     72 H10        26.2776   -0.9544    0.7231 H         1 73N         0.0689
     73 H11        27.1262   -1.7077    2.1156 H         1 73N         0.0689
     74 H12        24.4469   -2.3917    0.8905 H         1 73N         0.0301
     75 H13        25.3721   -3.6263    1.8107 H         1 73N         0.0301
     76 H14        22.4628   -2.6013    7.0766 H         1 DLY         0.1877
     77 H15        19.7724   -1.6453    6.4257 H         1 DLY         0.0797
     78 H16        19.4572   -1.7403    8.9217 H         1 DLY         0.0312
     79 H17        20.8503   -0.7477    8.3733 H         1 DLY         0.0312
     80 H18        22.4179   -2.3392    9.1026 H         1 DLY         0.0269
     81 H19        21.1737   -3.6262    9.2517 H         1 DLY         0.0269
     82 H20        20.1851   -2.5308   11.1695 H         1 DLY         0.0317
     83 H21        21.2602   -1.1062   10.9653 H         1 DLY         0.0317
     84 H22        22.1228   -2.4484   12.7752 H         1 DLY         0.0827
     85 H23        23.2302   -2.6248   11.3720 H         1 DLY         0.0827
     86 H24        21.2180   -4.6278   12.2806 H         1 DLY         0.2461
     87 H25        21.1152   -4.7399    6.4413 H         1 IIL         0.1883
     88 H26        18.5228   -6.0148    6.5824 H         1 IIL         0.0803
     89 H27        21.3058   -7.2046    7.0350 H         1 IIL         0.0345
     90 H28        21.1531   -7.8265    4.6562 H         1 IIL         0.0235
     91 H29        21.0805   -6.0448    4.8725 H         1 IIL         0.0235
     92 H30        19.5790   -6.9702    4.5326 H         1 IIL         0.0235
     93 H31        18.6767   -8.5072    6.1560 H         1 IIL         0.0267
     94 H32        19.3805   -8.6245    7.8046 H         1 IIL         0.0267
     95 H33        19.8857  -10.6074    6.4691 H         1 IIL         0.0230
     96 H34        21.3779   -9.6938    6.8757 H         1 IIL         0.0230
     97 H35        20.6741   -9.5765    5.2272 H         1 IIL         0.0230
     98 H36        17.2175   -6.5347    8.2713 H         1 73O         0.1883
     99 H37        18.4095   -6.4101   10.9424 H         1 73O         0.0801
    100 H38        16.3190   -7.4605   11.7217 H         1 73O         0.0332
    101 H39        15.8630   -7.8273   10.0234 H         1 73O         0.0332
    102 H40        15.9314   -5.2973    9.6096 H         1 73O         0.0407
    103 H41        16.0241   -5.1120   11.3939 H         1 73O         0.0407
    104 H42        13.9119   -4.7390   12.5093 H         1 73O         0.0530
    105 H43        11.4354   -5.3523   12.8275 H         1 73O         0.0525
    106 H44        11.6047   -7.8902    9.2126 H         1 73O         0.0525
    107 H45        14.0115   -7.1413    8.7945 H         1 73O         0.0530
    108 H46         9.7126   -6.7220   12.0893 H         1 73O         0.2458
    109 H47        19.7767  -10.5999   11.0953 H         1 MAA         0.0488
    110 H48        19.5741  -10.2501   12.8454 H         1 MAA         0.0488
    111 H49        21.0093   -9.6246   11.9648 H         1 MAA         0.0488
    112 H50        18.7603   -6.6656   12.1293 H         1 MAA         0.0799
    113 H51        18.8018   -7.1242   14.5675 H         1 MAA         0.0277
    114 H52        19.2800   -8.8244   14.2398 H         1 MAA         0.0277
    115 H53        17.6675   -8.2285   13.7188 H         1 MAA         0.0277
    116 H54        20.9748   -6.8864   10.7026 H         1 PHE         0.1861
    117 H55        23.1799   -7.0839   12.6742 H         1 PHE         0.0697
    118 H56        24.4240   -4.2551   12.6587 H         1 PHE         0.2185
    119 H57        24.6793   -7.1131   10.7401 H         1 PHE         0.0452
    120 H58        23.3215   -6.6975    9.6399 H         1 PHE         0.0452
    121 H59        24.5015   -9.3396   12.1493 H         1 PHE         0.0557
    122 H60        21.9932   -8.4158    8.6293 H         1 PHE         0.0557
    123 H61        24.0058  -11.8311   11.8456 H         1 PHE         0.0599
    124 H62        21.5135  -10.9072    8.3244 H         1 PHE         0.0599
    125 H63        22.4399  -12.6133    9.9801 H         1 PHE         0.0559
@<TRIPOS>BOND
     1    1    6 ar 
     2    1    7 ar 
     3    8    1 ar 
     4    2    3 1  
     5   10    2 1  
     6    3    4 1  
     7    3    5 1  
     8    4   11 ar 
     9    4   12 ar 
    10    5   13 am 
    11    9    8 1  
    12    9   10 1  
    13   13   14 2  
    14   13   15 am 
    15   15   16 1  
    16   16   17 1  
    17   16   19 1  
    18   17   18 2  
    19   17   24 am 
    20   19   20 1  
    21   20   21 1  
    22   21   22 1  
    23   22   23 1  
    24   23   53 1  
    25   23   62 1  
    26   24   25 1  
    27   25   26 1  
    28   25   28 1  
    29   26   27 2  
    30   26   32 am 
    31   28   29 1  
    32   28   30 1  
    33   30   31 1  
    34   32   33 1  
    35   33   34 1  
    36   33   35 1  
    37   34   44 2  
    38   34   45 am 
    39   35   36 1  
    40   36   37 1  
    41   37   38 ar 
    42   37   42 ar 
    43   38   39 ar 
    44   39   40 ar 
    45   40   41 ar 
    46   40   43 1  
    47   41   42 ar 
    48   45   46 1  
    49   45   47 1  
    50   47   48 1  
    51   47   49 1  
    52   49   50 2  
    53   49   51 am 
    54   51   52 1  
    55   52   53 1  
    56   52   55 1  
    57   53   54 1  
    58   53   62 1  
    59   55   56 1  
    60   56   57 ar 
    61   56   58 ar 
    62   57   59 ar 
    63   58   60 ar 
    64   59   61 ar 
    65   60   61 ar 
    66    2   63 1  
    67    2   64 1  
    68    3   65 1  
    69    5   66 1  
    70    6   67 1  
    71    6   68 1  
    72    7   69 1  
    73    7   70 1  
    74    8   71 1  
    75    9   72 1  
    76    9   73 1  
    77   10   74 1  
    78   10   75 1  
    79   15   76 1  
    80   16   77 1  
    81   19   78 1  
    82   19   79 1  
    83   20   80 1  
    84   20   81 1  
    85   21   82 1  
    86   21   83 1  
    87   22   84 1  
    88   22   85 1  
    89   23   86 1  
    90   24   87 1  
    91   25   88 1  
    92   28   89 1  
    93   29   90 1  
    94   29   91 1  
    95   29   92 1  
    96   30   93 1  
    97   30   94 1  
    98   31   95 1  
    99   31   96 1  
   100   31   97 1  
   101   32   98 1  
   102   33   99 1  
   103   35  100 1  
   104   35  101 1  
   105   36  102 1  
   106   36  103 1  
   107   38  104 1  
   108   39  105 1  
   109   41  106 1  
   110   42  107 1  
   111   43  108 1  
   112   46  109 1  
   113   46  110 1  
   114   46  111 1  
   115   47  112 1  
   116   48  113 1  
   117   48  114 1  
   118   48  115 1  
   119   51  116 1  
   120   52  117 1  
   121   54  118 1  
   122   55  119 1  
   123   55  120 1  
   124   57  121 1  
   125   58  122 1  
   126   59  123 1  
   127   60  124 1  
   128   61  125 1  
@<TRIPOS>SUBSTRUCTURE
     1 73N         1

