### 
### Created by X-TOOL on Fri Nov  2 10:58:14 2018
### 

@<TRIPOS>MOLECULE
5lrq_ligand
   65    69     1     0     0
SMALL
GAST_HUCK


@<TRIPOS>ATOM
      1 C1         28.8820    3.8320  104.2370 C.3       1 MOL         0.0649
      2 C2         31.1650    3.2540  103.6950 C.ar      1 MOL         0.1043
      3 C3         30.8300    2.0890  103.0210 C.ar      1 MOL        -0.0246
      4 C4         31.8230    1.3270  102.3910 C.ar      1 MOL         0.0197
      5 C5         33.1440    1.7520  102.4820 C.ar      1 MOL        -0.0647
      6 C6         33.4870    2.9120  103.1270 C.ar      1 MOL        -0.0577
      7 C7         32.5010    3.6730  103.7520 C.ar      1 MOL         0.0799
      8 C8         33.8920    5.6160  104.6180 C.ar      1 MOL         0.1748
      9 C11        35.9280    6.2580  103.7330 C.ar      1 MOL         0.1638
     10 C12        38.2300    5.6130  103.3640 C.ar      1 MOL         0.0853
     11 C15        40.6330    4.8630  104.5310 C.ar      1 MOL        -0.0679
     12 C16        40.0850    6.1060  104.7830 C.ar      1 MOL        -0.0511
     13 C17        38.8610    6.4800  104.2710 C.ar      1 MOL         0.0788
     14 C18        38.4230    7.9010  104.5140 C.2       1 MOL         0.2273
     15 C19        36.6610    9.5790  104.8220 C.3       1 MOL         0.0412
     16 C21        32.5950   -0.9000  101.8320 C.3       1 MOL         0.0269
     17 C23        30.9890   -2.6750  101.0060 C.3       1 MOL         0.0588
     18 C24        29.9590   -1.6000  100.7490 C.3       1 MOL        -0.0074
     19 O1         39.2650    8.8000  104.5330 O.2       1 MOL        -0.3768
     20 N4         37.1120    8.1810  104.7250 N.am      1 MOL        -0.2232
     21 C10        36.0560    7.2170  104.7660 C.ar      1 MOL         0.1301
     22 C9         34.9890    7.3180  105.6590 C.ar      1 MOL         0.0199
     23 N1         33.9340    6.5040  105.6190 N.ar      1 MOL        -0.2886
     24 C14        40.0030    4.0110  103.6540 C.ar      1 MOL        -0.0674
     25 C13        38.7750    4.3370  103.1460 C.ar      1 MOL        -0.0326
     26 N3         36.9150    5.9110  102.8620 N.pl3     1 MOL        -0.2443
     27 C20        36.5240    5.4430  101.5300 C.3       1 MOL         0.0374
     28 N2         34.8590    5.4510  103.6980 N.ar      1 MOL        -0.2485
     29 N          32.7910    4.8190  104.5350 N.pl3     1 MOL        -0.2625
     30 O          30.2880    4.0530  104.3580 O.3       1 MOL        -0.3253
     31 C          28.2370    4.9320  105.0180 C.3       1 MOL        -0.0375
     32 N5         31.5120    0.1030  101.7810 N.pl3     1 MOL        -0.3167
     33 C25        30.1280   -0.3360  101.5640 C.3       1 MOL         0.0269
     34 O2         30.9280   -3.7030  100.0350 O.3       1 MOL        -0.3917
     35 C22        32.3750   -2.1000  100.9620 C.3       1 MOL        -0.0074
     36 H1         28.6093    2.8521  104.6557 H         1 MOL         0.0607
     37 H2         28.5748    3.8783  103.1818 H         1 MOL         0.0607
     38 H3         29.7958    1.7666  102.9814 H         1 MOL         0.0408
     39 H4         33.9239    1.1495  102.0305 H         1 MOL         0.0396
     40 H5         34.5212    3.2360  103.1508 H         1 MOL         0.0470
     41 H6         41.5520    4.5616  105.0205 H         1 MOL         0.0529
     42 H7         40.6335    6.8075  105.4012 H         1 MOL         0.0638
     43 H8         37.5325   10.2490  104.7826 H         1 MOL         0.0542
     44 H9         36.1274    9.7271  105.7724 H         1 MOL         0.0542
     45 H10        35.9862    9.8056  103.9834 H         1 MOL         0.0542
     46 H11        32.6955   -1.2440  102.8720 H         1 MOL         0.0510
     47 H12        33.5290   -0.4130  101.5150 H         1 MOL         0.0510
     48 H13        30.8036   -3.1062  102.0008 H         1 MOL         0.0594
     49 H14        28.9669   -2.0190  100.9731 H         1 MOL         0.0309
     50 H15        30.0101   -1.3276   99.6845 H         1 MOL         0.0309
     51 H16        35.0190    8.0915  106.4179 H         1 MOL         0.0699
     52 H17        40.4794    3.0811  103.3652 H         1 MOL         0.0622
     53 H18        38.2189    3.6053  102.5712 H         1 MOL         0.0545
     54 H19        35.4929    5.7619  101.3174 H         1 MOL         0.0535
     55 H20        36.5828    4.3451  101.4952 H         1 MOL         0.0535
     56 H21        37.2026    5.8706  100.7773 H         1 MOL         0.0535
     57 H22        32.0228    5.1025  105.1598 H         1 MOL         0.2074
     58 H23        27.1434    4.8243  104.9686 H         1 MOL         0.0255
     59 H24        28.5293    5.9036  104.5930 H         1 MOL         0.0255
     60 H25        28.5637    4.8773  106.0669 H         1 MOL         0.0255
     61 H26        29.6692   -0.5056  102.5492 H         1 MOL         0.0510
     62 H27        29.5942    0.4740  101.0455 H         1 MOL         0.0510
     63 H28        31.5875   -4.3589  100.2280 H         1 MOL         0.2098
     64 H29        33.0789   -2.8837  101.2786 H         1 MOL         0.0309
     65 H30        32.5909   -1.8113   99.9228 H         1 MOL         0.0309
@<TRIPOS>BOND
     1   30    1 1  
     2    1   31 1  
     3    3    2 ar 
     4    2    7 ar 
     5    2   30 1  
     6    4    3 ar 
     7    4    5 ar 
     8   32    4 1  
     9    5    6 ar 
    10    6    7 ar 
    11    7   29 1  
    12    8   23 ar 
    13    8   28 ar 
    14   29    8 1  
    15    9   21 ar 
    16    9   26 1  
    17   28    9 ar 
    18   10   13 ar 
    19   10   25 ar 
    20   26   10 1  
    21   12   11 ar 
    22   11   24 ar 
    23   13   12 ar 
    24   13   14 1  
    25   14   19 2  
    26   14   20 am 
    27   20   15 1  
    28   16   32 1  
    29   35   16 1  
    30   17   18 1  
    31   17   34 1  
    32   17   35 1  
    33   18   33 1  
    34   20   21 1  
    35   21   22 ar 
    36   22   23 ar 
    37   24   25 ar 
    38   26   27 1  
    39   32   33 1  
    40    1   36 1  
    41    1   37 1  
    42    3   38 1  
    43    5   39 1  
    44    6   40 1  
    45   11   41 1  
    46   12   42 1  
    47   15   43 1  
    48   15   44 1  
    49   15   45 1  
    50   16   46 1  
    51   16   47 1  
    52   17   48 1  
    53   18   49 1  
    54   18   50 1  
    55   22   51 1  
    56   24   52 1  
    57   25   53 1  
    58   27   54 1  
    59   27   55 1  
    60   27   56 1  
    61   29   57 1  
    62   31   58 1  
    63   31   59 1  
    64   31   60 1  
    65   33   61 1  
    66   33   62 1  
    67   34   63 1  
    68   35   64 1  
    69   35   65 1  
@<TRIPOS>SUBSTRUCTURE
     1 MOL         1

