### 
### Created by X-TOOL on Mon Sep 10 21:13:34 2018
### 

@<TRIPOS>MOLECULE
5ls6_ligand
   74    77     1     0     0
SMALL
GAST_HUCK


@<TRIPOS>ATOM
      1 CBK       208.2100    3.0610   15.0760 C.3       1 74D         0.0041
      2 CBH       209.4910    2.5870   15.7640 C.3       1 74D         0.2845
      3 FBI       209.9570    3.5450   16.5260 F         1 74D        -0.2001
      4 FBJ       210.3850    2.2840   14.8560 F         1 74D        -0.2001
      5 CBG       209.1940    1.3550   16.6120 C.3       1 74D         0.0327
      6 NBD       209.6990    0.1450   15.9530 N.4       1 74D         0.2395
      7 CBE       209.3910   -1.0280   16.7790 C.3       1 74D        -0.0313
      8 CBF       209.9060   -2.2980   16.1290 C.3       1 74D        -0.0068
      9 CBC       209.0410   -0.0040   14.6500 C.3       1 74D        -0.0313
     10 CBB       209.5560   -1.2330   13.9320 C.3       1 74D        -0.0068
     11 CBA       209.2620   -2.4590   14.7690 C.3       1 74D        -0.0021
     12 CAY       209.8430   -3.6880   14.0770 C.3       1 74D         0.0662
     13 CAZ       211.3650   -3.5690   14.0290 C.3       1 74D        -0.0351
     14 NAQ       209.4370   -4.9190   14.7630 N.pl3     1 74D        -0.2467
     15 CAP       208.2540   -5.5510   14.6340 C.2       1 74D         0.0701
     16 CAX       207.1450   -5.1900   13.6490 C.3       1 74D         0.0022
     17 CAR       210.1150   -5.5430   15.8920 C.ar      1 74D         0.0675
     18 CAT       211.4020   -5.4350   16.4560 C.ar      1 74D        -0.0454
     19 CAU       211.7790   -6.3470   17.4680 C.ar      1 74D        -0.0788
     20 CAV       210.9440   -7.4310   17.8340 C.ar      1 74D        -0.0817
     21 CAW       209.6790   -7.6120   17.2290 C.ar      1 74D        -0.0776
     22 CAS       209.2950   -6.7660   16.1690 C.ar      1 74D        -0.0175
     23 CAN       208.1020   -6.6030   15.4680 C.2       1 74D         0.0479
     24 CAM       207.0790   -7.4480   15.4710 C.2       1 74D         0.1698
     25 OAO       205.9460   -7.0650   15.1870 O.2       1 74D        -0.4098
     26 NAL       207.4150   -8.7360   15.5930 N.am      1 74D        -0.2907
     27 CAK       206.4370   -9.8090   15.3850 C.3       1 74D         0.0498
     28 CAC       207.0280  -10.8440   14.6740 C.2       1 74D         0.0427
     29 CAD       207.8190  -11.7740   15.3360 C.2       1 74D         0.1334
     30 OAH       208.0030  -11.6900   16.5490 O.2       1 74D        -0.4216
     31 NAE       208.4120  -12.8170   14.6160 N.2       1 74D        -0.2791
     32 CAF       208.2090  -12.9220   13.2360 C.2       1 74D         0.0487
     33 CAG       208.8000  -13.9590   12.5260 C.3       1 74D         0.0079
     34 CAA       207.4170  -11.9890   12.5780 C.3       1 74D         0.0842
     35 CAB       206.8340  -10.9600   13.3040 C.2       1 74D         0.1151
     36 OAI       206.0500  -10.0180   12.7170 O.3       1 74D        -0.3085
     37 CAJ       206.8160   -9.3120   11.7390 C.3       1 74D         0.0646
     38 H1        207.4579    3.3160   15.8371 H         1 74D         0.0289
     39 H2        207.8217    2.2589   14.4312 H         1 74D         0.0289
     40 H3        208.4290    3.9491   14.4650 H         1 74D         0.0289
     41 H4        208.1066    1.2646   16.7512 H         1 74D         0.0873
     42 H5        209.6813    1.4638   17.5921 H         1 74D         0.0873
     43 H6        210.6961    0.2189   15.8254 H         1 74D         0.2035
     44 H7        208.3008   -1.1041   16.9042 H         1 74D         0.0814
     45 H8        209.8659   -0.9095   17.7641 H         1 74D         0.0814
     46 H9        209.6532   -3.1627   16.7602 H         1 74D         0.0320
     47 H10       210.9981   -2.2352   16.0135 H         1 74D         0.0320
     48 H11       209.2468    0.8858   14.0370 H         1 74D         0.0814
     49 H12       207.9559   -0.1019   14.8018 H         1 74D         0.0814
     50 H13       210.6418   -1.1427   13.7809 H         1 74D         0.0320
     51 H14       209.0564   -1.3254   12.9564 H         1 74D         0.0320
     52 H15       208.1746   -2.5779   14.8851 H         1 74D         0.0333
     53 H16       209.4604   -3.7244   13.0464 H         1 74D         0.0640
     54 H17       211.7864   -4.4543   13.5303 H         1 74D         0.0258
     55 H18       211.7601   -3.5024   15.0534 H         1 74D         0.0258
     56 H19       211.6446   -2.6647   13.4686 H         1 74D         0.0258
     57 H20       206.3009   -5.8837   13.7769 H         1 74D         0.0468
     58 H21       207.5289   -5.2653   12.6209 H         1 74D         0.0468
     59 H22       206.8060   -4.1610   13.8394 H         1 74D         0.0468
     60 H23       212.0896   -4.6672   16.1202 H         1 74D         0.0538
     61 H24       212.7278   -6.2139   17.9750 H         1 74D         0.0509
     62 H25       211.2799   -8.1323   18.5893 H         1 74D         0.0509
     63 H26       209.0119   -8.3926   17.5764 H         1 74D         0.0511
     64 H27       208.3564   -8.9739   15.8320 H         1 74D         0.1841
     65 H28       205.5792   -9.4181   14.8181 H         1 74D         0.0577
     66 H29       206.0920  -10.1844   16.3597 H         1 74D         0.0577
     67 H30       208.5285  -13.8771   11.4632 H         1 74D         0.0532
     68 H31       208.4463  -14.9225   12.9216 H         1 74D         0.0532
     69 H32       209.8933  -13.8987   12.6308 H         1 74D         0.0532
     70 H33       206.5992  -12.5451   12.0963 H         1 74D         0.0820
     71 H34       208.0463  -11.5209   11.8067 H         1 74D         0.0820
     72 H35       206.1853   -8.5480   11.2609 H         1 74D         0.0589
     73 H36       207.1779  -10.0180   10.9770 H         1 74D         0.0589
     74 H37       207.6744   -8.8264   12.2261 H         1 74D         0.0589
@<TRIPOS>BOND
     1    1    2 1  
     2    2    3 1  
     3    2    4 1  
     4    2    5 1  
     5    5    6 1  
     6    6    7 1  
     7    6    9 1  
     8    7    8 1  
     9    8   11 1  
    10    9   10 1  
    11   10   11 1  
    12   11   12 1  
    13   12   13 1  
    14   12   14 1  
    15   14   15 1  
    16   14   17 1  
    17   15   16 1  
    18   15   23 2  
    19   17   18 ar 
    20   17   22 ar 
    21   18   19 ar 
    22   19   20 ar 
    23   20   21 ar 
    24   21   22 ar 
    25   22   23 1  
    26   23   24 1  
    27   24   25 2  
    28   24   26 am 
    29   26   27 1  
    30   27   28 1  
    31   28   29 1  
    32   28   35 2  
    33   29   30 2  
    34   29   31 1  
    35   31   32 2  
    36   32   33 1  
    37   32   34 1  
    38   34   35 1  
    39   35   36 1  
    40   36   37 1  
    41    1   38 1  
    42    1   39 1  
    43    1   40 1  
    44    5   41 1  
    45    5   42 1  
    46    6   43 1  
    47    7   44 1  
    48    7   45 1  
    49    8   46 1  
    50    8   47 1  
    51    9   48 1  
    52    9   49 1  
    53   10   50 1  
    54   10   51 1  
    55   11   52 1  
    56   12   53 1  
    57   13   54 1  
    58   13   55 1  
    59   13   56 1  
    60   16   57 1  
    61   16   58 1  
    62   16   59 1  
    63   18   60 1  
    64   19   61 1  
    65   20   62 1  
    66   21   63 1  
    67   26   64 1  
    68   27   65 1  
    69   27   66 1  
    70   33   67 1  
    71   33   68 1  
    72   33   69 1  
    73   34   70 1  
    74   34   71 1  
    75   37   72 1  
    76   37   73 1  
    77   37   74 1  
@<TRIPOS>SUBSTRUCTURE
     1 74D         1

