### 
### Created by X-TOOL on Mon Sep 10 21:13:25 2018
### 

@<TRIPOS>MOLECULE
5lsc_ligand
   40    43     1     0     0
SMALL
GAST_HUCK


@<TRIPOS>ATOM
      1 C10       -32.7430   -5.6260    9.3850 C.ar      1 752        -0.0443
      2 C17       -32.9140  -10.5760   11.3680 C.2       1 752         0.2310
      3 C20       -35.3350  -10.7050   10.8890 C.2       1 752         0.2117
      4 C24       -36.9630  -11.7490    9.2500 C.ar      1 752         0.0475
      5 C26       -38.9090  -11.0960   10.5580 C.ar      1 752        -0.0646
      6 C28       -39.1770  -12.2900    8.4810 C.ar      1 752        -0.0754
      7 N01       -30.9910   -7.7470   10.6600 N.pl3     1 752        -0.2170
      8 C02       -30.1890   -8.8270   10.6030 C.2       1 752         0.2011
      9 N03       -29.4160   -8.7300    9.5320 N.2       1 752        -0.2544
     10 N04       -29.7210   -7.5830    8.8940 N.2       1 752        -0.2623
     11 C05       -30.6860   -6.9930    9.5870 C.2       1 752         0.1549
     12 C06       -31.3620   -5.6850    9.2870 C.ar      1 752         0.0426
     13 C07       -31.2870   -3.3690    8.7330 C.ar      1 752        -0.0454
     14 C08       -32.6650   -3.3060    8.7920 C.ar      1 752        -0.0568
     15 C09       -33.3980   -4.4380    9.1320 C.ar      1 752        -0.0569
     16 C11       -30.6270   -4.5610    8.9780 C.ar      1 752         0.0236
     17 C12       -29.1290   -4.5950    8.8900 C.2       1 752         0.0643
     18 O13       -28.5510   -5.2580    7.9930 O.co2     1 752        -0.5604
     19 O14       -28.4690   -3.9000    9.7120 O.co2     1 752        -0.5604
     20 S15       -30.1880  -10.1100   11.8090 S.3       1 752        -0.0169
     21 C16       -31.8640  -10.1440   12.3900 C.3       1 752         0.1131
     22 N18       -34.2550  -10.2860   11.6920 N.am      1 752        -0.1882
     23 O19       -32.6320  -11.1120   10.3000 O.2       1 752        -0.3774
     24 S21       -35.2660  -11.5590    9.4260 S.3       1 752         0.0301
     25 N22       -36.6010  -10.5870   11.2680 N.2       1 752        -0.3094
     26 C23       -37.5210  -11.1290   10.3810 C.ar      1 752         0.0067
     27 C25       -37.7920  -12.3250    8.3040 C.ar      1 752        -0.0540
     28 C27       -39.7360  -11.6800    9.6110 C.ar      1 752        -0.0765
     29 H1        -33.3069   -6.5101    9.6595 H         1 752         0.0649
     30 H2        -39.3353  -10.6160   11.4315 H         1 752         0.0528
     31 H3        -39.8251  -12.7390    7.7371 H         1 752         0.0527
     32 H4        -31.6970   -7.5391   11.3806 H         1 752         0.2437
     33 H5        -30.7176   -2.4783    8.4930 H         1 752         0.0656
     34 H6        -33.1752   -2.3749    8.5735 H         1 752         0.0636
     35 H7        -34.4788   -4.3873    9.1980 H         1 752         0.0642
     36 H8        -31.9126  -10.8416   13.2391 H         1 752         0.0658
     37 H9        -32.1230   -9.1312   12.7323 H         1 752         0.0658
     38 H10       -34.4472   -9.7634   12.5227 H         1 752         0.2450
     39 H11       -37.3679  -12.8021    7.4279 H         1 752         0.0554
     40 H12       -40.8116  -11.6646    9.7447 H         1 752         0.0543
@<TRIPOS>BOND
     1   12    1 ar 
     2    1   15 ar 
     3   21    2 1  
     4    2   22 am 
     5    2   23 2  
     6   22    3 1  
     7    3   24 1  
     8    3   25 2  
     9   24    4 1  
    10    4   26 ar 
    11    4   27 ar 
    12   26    5 ar 
    13    5   28 ar 
    14   27    6 ar 
    15    6   28 ar 
    16    8    7 1  
    17    7   11 1  
    18    8    9 2  
    19   20    8 1  
    20    9   10 1  
    21   10   11 2  
    22   11   12 1  
    23   12   16 ar 
    24   13   14 ar 
    25   16   13 ar 
    26   15   14 ar 
    27   16   17 1  
    28   17   18 ar 
    29   17   19 ar 
    30   20   21 1  
    31   25   26 1  
    32    1   29 1  
    33    5   30 1  
    34    6   31 1  
    35    7   32 1  
    36   13   33 1  
    37   14   34 1  
    38   15   35 1  
    39   21   36 1  
    40   21   37 1  
    41   22   38 1  
    42   27   39 1  
    43   28   40 1  
@<TRIPOS>SUBSTRUCTURE
     1 752         1

