### 
### Created by X-TOOL on Mon Sep 10 21:13:34 2018
### 

@<TRIPOS>MOLECULE
5lsg_ligand
   80    84     1     0     0
SMALL
GAST_HUCK


@<TRIPOS>ATOM
      1 C01        19.0500   19.7650   17.8230 C.3       1 QZQ        -0.0036
      2 C04        20.3410   20.5440   17.9070 C.2       1 QZQ        -0.0733
      3 C36        21.1060   20.7610   16.6590 C.3       1 QZQ        -0.0297
      4 C37        20.7420   21.1770   19.0170 C.2       1 QZQ        -0.1290
      5 C07        18.8030   19.1200   19.1910 C.3       1 QZQ        -0.0382
      6 C02        19.8250   17.9800   19.1170 C.3       1 QZQ        -0.0400
      7 C12        19.3980   17.2820   17.8420 C.3       1 QZQ         0.0217
      8 C2         20.4200   16.4810   17.0070 C.3       1 QZQ        -0.0419
      9 C3         19.7650   15.9310   15.7210 C.3       1 QZQ        -0.0469
     10 C19        18.9820   16.9590   14.8760 C.3       1 QZQ        -0.0233
     11 C20        18.2940   17.9420   15.8510 C.3       1 QZQ        -0.0299
     12 C21        19.1680   18.4990   16.9820 C.3       1 QZQ        -0.0129
     13 C15        17.3390   18.8770   15.1830 C.3       1 QZQ        -0.0491
     14 C13        16.2170   18.2260   14.4070 C.3       1 QZQ        -0.0489
     15 C14        16.9350   17.4860   13.3020 C.3       1 QZQ        -0.0294
     16 C17        16.1370   17.3150   11.9570 C.3       1 QZQ        -0.0252
     17 C18        17.0970   16.8620   10.8450 C.3       1 QZQ        -0.0278
     18 C23        17.7400   17.8900    9.8540 C.3       1 QZQ        -0.0056
     19 C05        17.1630   17.4490    8.5280 C.3       1 QZQ        -0.0572
     20 C06        19.2460   17.7060    9.6530 C.3       1 QZQ        -0.0572
     21 C24        17.4330   19.3850   10.0710 C.3       1 QZQ         0.0606
     22 O01        17.1480   20.1260    8.8900 O.3       1 QZQ        -0.3912
     23 C26        16.3660   19.7480   11.0780 C.3       1 QZQ        -0.0258
     24 C25        15.4770   18.6050   11.4910 C.3       1 QZQ        -0.0447
     25 C28        18.0080   15.7390   11.2980 C.3       1 QZQ        -0.0486
     26 C27        18.4840   15.6150   12.7450 C.3       1 QZQ        -0.0466
     27 C22        17.8380   16.3580   13.8990 C.3       1 QZQ        -0.0231
     28 C35        17.0200   15.3190   14.6890 C.3       1 QZQ        -0.0588
     29 C33        14.9470   16.3480   12.0630 C.3       1 QZQ        -0.0590
     30 C34        20.1030   17.6450   14.1080 C.3       1 QZQ        -0.0588
     31 C11        18.3910   16.3500   18.3170 C.2       1 QZQ         0.0514
     32 O16        18.6320   15.6980   19.3400 O.co2     1 QZQ        -0.5475
     33 O1         17.3580   16.2370   17.6700 O.co2     1 QZQ        -0.5475
     34 H1         18.2269   20.4137   17.4888 H         1 QZQ         0.0497
     35 H2         22.0144   21.3400   16.8818 H         1 QZQ         0.0425
     36 H3         20.4850   21.3154   15.9399 H         1 QZQ         0.0425
     37 H4         21.3873   19.7890   16.2276 H         1 QZQ         0.0425
     38 H5         20.1986   21.0367   19.9503 H         1 QZQ         0.0075
     39 H6         21.6114   21.8321   18.9863 H         1 QZQ         0.0075
     40 H7         17.7740   18.7437   19.2882 H         1 QZQ         0.0294
     41 H8         19.0196   19.8131   20.0173 H         1 QZQ         0.0294
     42 H9         19.7470   17.3120   19.9874 H         1 QZQ         0.0265
     43 H10        20.8527   18.3646   19.0408 H         1 QZQ         0.0265
     44 H11        20.7970   15.6403   17.6078 H         1 QZQ         0.0263
     45 H12        21.2569   17.1398   16.7323 H         1 QZQ         0.0263
     46 H13        19.0677   15.1317   16.0121 H         1 QZQ         0.0270
     47 H14        20.5614   15.5108   15.0892 H         1 QZQ         0.0270
     48 H15        17.6133   17.2807   16.4071 H         1 QZQ         0.0310
     49 H16        20.1185   18.6923   16.4633 H         1 QZQ         0.0330
     50 H17        17.9129   19.5041   14.4849 H         1 QZQ         0.0268
     51 H18        16.8882   19.5115   15.9602 H         1 QZQ         0.0268
     52 H19        15.5339   18.9828   13.9940 H         1 QZQ         0.0268
     53 H20        15.6512   17.5296   15.0434 H         1 QZQ         0.0268
     54 H21        17.6934   18.2161   12.9829 H         1 QZQ         0.0312
     55 H22        16.4040   16.3404   10.1685 H         1 QZQ         0.0312
     56 H23        17.5420   18.1019    7.7279 H         1 QZQ         0.0236
     57 H24        16.0656   17.5145    8.5657 H         1 QZQ         0.0236
     58 H25        17.4616   16.4099    8.3256 H         1 QZQ         0.0236
     59 H26        19.7770   18.0013   10.5700 H         1 QZQ         0.0236
     60 H27        19.5836   18.3341    8.8154 H         1 QZQ         0.0236
     61 H28        19.4598   16.6504    9.4292 H         1 QZQ         0.0236
     62 H29        18.3719   19.7950   10.4715 H         1 QZQ         0.0599
     63 H30        16.9723   21.0308    9.1199 H         1 QZQ         0.2098
     64 H31        15.7330   20.5332   10.6389 H         1 QZQ         0.0290
     65 H32        16.8629   20.1384   11.9784 H         1 QZQ         0.0290
     66 H33        14.8447   18.9648   12.3160 H         1 QZQ         0.0271
     67 H34        14.8445   18.3545   10.6266 H         1 QZQ         0.0271
     68 H35        18.9156   15.8109   10.6806 H         1 QZQ         0.0268
     69 H36        17.4802   14.8021   11.0664 H         1 QZQ         0.0268
     70 H37        19.5406   15.9210   12.7426 H         1 QZQ         0.0271
     71 H38        18.4123   14.5464   12.9960 H         1 QZQ         0.0271
     72 H39        16.5287   15.8105   15.5417 H         1 QZQ         0.0235
     73 H40        17.6899   14.5283   15.0578 H         1 QZQ         0.0235
     74 H41        16.2571   14.8762   14.0318 H         1 QZQ         0.0235
     75 H42        15.3039   15.3628   12.3976 H         1 QZQ         0.0235
     76 H43        14.4663   16.2488   11.0786 H         1 QZQ         0.0235
     77 H44        14.2193   16.7402   12.7886 H         1 QZQ         0.0235
     78 H45        20.8492   18.0330   14.8170 H         1 QZQ         0.0235
     79 H46        19.6888   18.4771   13.5198 H         1 QZQ         0.0235
     80 H47        20.5812   16.9207   13.4323 H         1 QZQ         0.0235
@<TRIPOS>BOND
     1    1    2 1  
     2    1    5 1  
     3    1   12 1  
     4    2    3 1  
     5    2    4 2  
     6    5    6 1  
     7    6    7 1  
     8    7    8 1  
     9    7   12 1  
    10    7   31 1  
    11    8    9 1  
    12    9   10 1  
    13   10   11 1  
    14   10   27 1  
    15   10   30 1  
    16   11   12 1  
    17   11   13 1  
    18   13   14 1  
    19   14   15 1  
    20   15   16 1  
    21   15   27 1  
    22   16   17 1  
    23   16   24 1  
    24   16   29 1  
    25   17   18 1  
    26   17   25 1  
    27   18   19 1  
    28   18   20 1  
    29   18   21 1  
    30   21   22 1  
    31   21   23 1  
    32   23   24 1  
    33   25   26 1  
    34   26   27 1  
    35   27   28 1  
    36   31   32 ar 
    37   31   33 ar 
    38    1   34 1  
    39    3   35 1  
    40    3   36 1  
    41    3   37 1  
    42    4   38 1  
    43    4   39 1  
    44    5   40 1  
    45    5   41 1  
    46    6   42 1  
    47    6   43 1  
    48    8   44 1  
    49    8   45 1  
    50    9   46 1  
    51    9   47 1  
    52   11   48 1  
    53   12   49 1  
    54   13   50 1  
    55   13   51 1  
    56   14   52 1  
    57   14   53 1  
    58   15   54 1  
    59   17   55 1  
    60   19   56 1  
    61   19   57 1  
    62   19   58 1  
    63   20   59 1  
    64   20   60 1  
    65   20   61 1  
    66   21   62 1  
    67   22   63 1  
    68   23   64 1  
    69   23   65 1  
    70   24   66 1  
    71   24   67 1  
    72   25   68 1  
    73   25   69 1  
    74   26   70 1  
    75   26   71 1  
    76   28   72 1  
    77   28   73 1  
    78   28   74 1  
    79   29   75 1  
    80   29   76 1  
    81   29   77 1  
    82   30   78 1  
    83   30   79 1  
    84   30   80 1  
@<TRIPOS>SUBSTRUCTURE
     1 QZQ         1

