### 
### Created by X-TOOL on Mon Sep 10 21:13:32 2018
### 

@<TRIPOS>MOLECULE
5lsh_ligand
   96    99     1     0     0
SMALL
GAST_HUCK


@<TRIPOS>ATOM
      1 O20        -5.8350    9.4560    7.5610 O.3       1 KTS        -0.3841
      2 C23        -6.1100    9.3840    6.1500 C.3       1 KTS         0.1345
      3 C6         -7.6020    9.2590    5.9380 C.3       1 KTS         0.1884
      4 O5         -8.1860   10.4770    6.4250 O.3       1 KTS        -0.3400
      5 C5         -9.5420   10.3140    6.8310 C.3       1 KTS         0.1209
      6 C4        -10.5110    9.9910    5.6960 C.3       1 KTS         0.1345
      7 O4        -10.6500    8.5800    5.5280 O.3       1 KTS        -0.3841
      8 C3        -11.8390   10.5730    6.1560 C.3       1 KTS         0.1879
      9 O3        -12.5240   11.1910    5.0960 O.3       1 KTS        -0.3487
     10 O2        -11.5200   11.3230    7.3400 O.3       1 KTS        -0.3402
     11 C2        -10.1100   11.6040    7.4020 C.3       1 KTS         0.1184
     12 C1         -9.5470   11.9000    8.7940 C.3       1 KTS         0.1069
     13 O1         -9.9070   10.8390    9.6890 O.3       1 KTS        -0.3869
     14 C          -9.9280   13.2650    9.3580 C.3       1 KTS         0.0727
     15 O         -11.3430   13.4080    9.4120 O.3       1 KTS        -0.3924
     16 C10        -5.5830   10.5830    5.3710 C.3       1 KTS         0.1206
     17 C9         -5.9720   10.4520    3.8970 C.3       1 KTS         0.1123
     18 O8         -5.2700    9.3460    3.3060 O.3       1 KTS        -0.3865
     19 C7         -7.4640   10.1730    3.7650 C.3       1 KTS         0.1130
     20 C8         -7.8140    9.9090    2.3110 C.3       1 KTS         0.0730
     21 O7         -7.5120   11.0620    1.5140 O.3       1 KTS        -0.3924
     22 O6         -7.8420    9.0270    4.5420 O.3       1 KTS        -0.3405
     23 O9         -4.1700   10.5750    5.5250 O.3       1 KTS        -0.3401
     24 C11        -3.6040   11.8740    5.4610 C.3       1 KTS         0.1885
     25 C22        -2.1540   11.8500    5.9430 C.3       1 KTS         0.1345
     26 O19        -2.0110   12.1200    7.3480 O.3       1 KTS        -0.3841
     27 C15        -1.5920   13.0010    5.1230 C.3       1 KTS         0.1209
     28 C12        -2.2250   12.7010    3.7680 C.3       1 KTS         0.1184
     29 C13        -2.2130   13.8680    2.7820 C.3       1 KTS         0.1069
     30 C14        -2.9690   13.4890    1.5140 C.3       1 KTS         0.0727
     31 O12        -2.2900   12.4390    0.8310 O.3       1 KTS        -0.3924
     32 O11        -2.8390   15.0240    3.3920 O.3       1 KTS        -0.3869
     33 O10        -3.5740   12.3580    4.1080 O.3       1 KTS        -0.3401
     34 O13        -0.1820   12.9710    5.0360 O.3       1 KTS        -0.3400
     35 C16         0.3530   14.2860    5.3080 C.3       1 KTS         0.1884
     36 C21         1.8270   14.2920    4.9480 C.3       1 KTS         0.1341
     37 O18         1.9480   13.8700    3.5870 O.3       1 KTS        -0.3841
     38 C20         2.5950   13.3300    5.8450 C.3       1 KTS         0.1141
     39 O17         4.0040   13.3940    5.5900 O.3       1 KTS        -0.3864
     40 C19         2.3530   13.7980    7.2670 C.3       1 KTS         0.1119
     41 O16         2.8520   15.1420    7.4280 O.3       1 KTS        -0.3865
     42 C17         0.8560   13.7500    7.5650 C.3       1 KTS         0.1130
     43 O14         0.1480   14.6510    6.6880 O.3       1 KTS        -0.3405
     44 C18         0.6230   14.2300    8.9950 C.3       1 KTS         0.0730
     45 O15         0.8830   15.6370    9.0800 O.3       1 KTS        -0.3924
     46 C29       -12.7540   10.4500    3.8930 C.3       1 KTS         0.0505
     47 C30       -13.9100   10.9790    3.0450 C.3       1 KTS        -0.0322
     48 C31       -13.9380   12.4930    3.0880 C.3       1 KTS        -0.0632
     49 H1         -4.8980    9.5346    7.6963 H         1 KTS         0.2101
     50 H2         -5.6204    8.4819    5.7545 H         1 KTS         0.0671
     51 H3         -7.9998    8.4103    6.5137 H         1 KTS         0.0938
     52 H4         -9.5768    9.5145    7.5857 H         1 KTS         0.0651
     53 H5        -10.1788   10.4505    4.7534 H         1 KTS         0.0671
     54 H6        -10.9828    8.1978    6.3315 H         1 KTS         0.2101
     55 H7        -12.4871    9.7438    6.4759 H         1 KTS         0.0937
     56 H8         -9.8693   12.4587    6.7528 H         1 KTS         0.0651
     57 H9         -8.4509   11.8966    8.7020 H         1 KTS         0.0643
     58 H10       -10.8535   10.7737    9.7364 H         1 KTS         0.2100
     59 H11        -9.5096   14.0520    8.7134 H         1 KTS         0.0584
     60 H12        -9.5157   13.3646   10.3729 H         1 KTS         0.0584
     61 H13       -11.5605   14.2626    9.7652 H         1 KTS         0.2095
     62 H14        -6.0011   11.5156    5.7778 H         1 KTS         0.0651
     63 H15        -5.7186   11.3828    3.3684 H         1 KTS         0.0647
     64 H16        -4.3341    9.4943    3.3729 H         1 KTS         0.2100
     65 H17        -8.0233   11.0507    4.1211 H         1 KTS         0.0647
     66 H18        -8.8874    9.6823    2.2306 H         1 KTS         0.0584
     67 H19        -7.2297    9.0514    1.9461 H         1 KTS         0.0584
     68 H20        -8.0171   11.8031    1.8271 H         1 KTS         0.2095
     69 H21        -4.1973   12.5554    6.0884 H         1 KTS         0.0938
     70 H22        -1.6663   10.8936    5.7035 H         1 KTS         0.0671
     71 H23        -2.4870   11.4653    7.8452 H         1 KTS         0.2101
     72 H24        -1.9140   13.9748    5.5204 H         1 KTS         0.0651
     73 H25        -1.7130   11.8471    3.3005 H         1 KTS         0.0651
     74 H26        -1.1722   14.1123    2.5232 H         1 KTS         0.0643
     75 H27        -3.0362   14.3671    0.8549 H         1 KTS         0.0584
     76 H28        -3.9817   13.1530    1.7815 H         1 KTS         0.0584
     77 H29        -2.7706   12.2123    0.0436 H         1 KTS         0.2095
     78 H30        -2.3664   15.2586    4.1820 H         1 KTS         0.2100
     79 H31        -0.1686   15.0196    4.6758 H         1 KTS         0.0938
     80 H32         2.2346   15.3070    5.0645 H         1 KTS         0.0671
     81 H33         1.5898   12.9949    3.4949 H         1 KTS         0.2101
     82 H34         2.2334   12.3011    5.7013 H         1 KTS         0.0648
     83 H35         4.4562   12.7852    6.1622 H         1 KTS         0.2100
     84 H36         2.8820   13.1316    7.9642 H         1 KTS         0.0647
     85 H37         3.7842   15.1565    7.2454 H         1 KTS         0.2100
     86 H38         0.4814   12.7236    7.4382 H         1 KTS         0.0647
     87 H39         1.2982   13.6915    9.6762 H         1 KTS         0.0584
     88 H40        -0.4206   14.0330    9.2815 H         1 KTS         0.0584
     89 H41         1.7845   15.8068    8.8329 H         1 KTS         0.2095
     90 H42       -12.9751    9.4077    4.1663 H         1 KTS         0.0561
     91 H43       -11.8371   10.4834    3.2862 H         1 KTS         0.0561
     92 H44       -14.8592   10.5864    3.4386 H         1 KTS         0.0285
     93 H45       -13.7793   10.6471    2.0044 H         1 KTS         0.0285
     94 H46       -14.7733   12.8618    2.4747 H         1 KTS         0.0230
     95 H47       -12.9906   12.8886    2.6931 H         1 KTS         0.0230
     96 H48       -14.0705   12.8279    4.1273 H         1 KTS         0.0230
@<TRIPOS>BOND
     1    1    2 1  
     2    2    3 1  
     3    2   16 1  
     4    3    4 1  
     5    3   22 1  
     6    4    5 1  
     7    5    6 1  
     8    5   11 1  
     9    6    7 1  
    10    6    8 1  
    11    8    9 1  
    12    8   10 1  
    13    9   46 1  
    14   10   11 1  
    15   11   12 1  
    16   12   13 1  
    17   12   14 1  
    18   14   15 1  
    19   16   17 1  
    20   16   23 1  
    21   17   18 1  
    22   17   19 1  
    23   19   20 1  
    24   19   22 1  
    25   20   21 1  
    26   23   24 1  
    27   24   25 1  
    28   24   33 1  
    29   25   26 1  
    30   25   27 1  
    31   27   28 1  
    32   27   34 1  
    33   28   29 1  
    34   28   33 1  
    35   29   30 1  
    36   29   32 1  
    37   30   31 1  
    38   34   35 1  
    39   35   36 1  
    40   35   43 1  
    41   36   37 1  
    42   36   38 1  
    43   38   39 1  
    44   38   40 1  
    45   40   41 1  
    46   40   42 1  
    47   42   43 1  
    48   42   44 1  
    49   44   45 1  
    50   46   47 1  
    51   47   48 1  
    52    1   49 1  
    53    2   50 1  
    54    3   51 1  
    55    5   52 1  
    56    6   53 1  
    57    7   54 1  
    58    8   55 1  
    59   11   56 1  
    60   12   57 1  
    61   13   58 1  
    62   14   59 1  
    63   14   60 1  
    64   15   61 1  
    65   16   62 1  
    66   17   63 1  
    67   18   64 1  
    68   19   65 1  
    69   20   66 1  
    70   20   67 1  
    71   21   68 1  
    72   24   69 1  
    73   25   70 1  
    74   26   71 1  
    75   27   72 1  
    76   28   73 1  
    77   29   74 1  
    78   30   75 1  
    79   30   76 1  
    80   31   77 1  
    81   32   78 1  
    82   35   79 1  
    83   36   80 1  
    84   37   81 1  
    85   38   82 1  
    86   39   83 1  
    87   40   84 1  
    88   41   85 1  
    89   42   86 1  
    90   44   87 1  
    91   44   88 1  
    92   45   89 1  
    93   46   90 1  
    94   46   91 1  
    95   47   92 1  
    96   47   93 1  
    97   48   94 1  
    98   48   95 1  
    99   48   96 1  
@<TRIPOS>SUBSTRUCTURE
     1 KTS         1

