### 
### Created by X-TOOL on Mon Sep 10 21:13:28 2018
### 

@<TRIPOS>MOLECULE
5lso_ligand
  108   110     1     0     0
SMALL
GAST_HUCK


@<TRIPOS>ATOM
      1 N         -17.1450   -9.1390  -21.9140 N.4       1 LYS         0.2379
      2 CA        -16.6040  -10.4420  -21.3990 C.3       1 LYS         0.0650
      3 C         -15.3840  -10.1390  -20.5190 C.2       1 LYS         0.2268
      4 O         -14.4390  -10.9560  -20.4730 O.2       1 LYS        -0.3907
      5 CB        -16.2600  -11.4130  -22.5600 C.3       1 LYS         0.0079
      6 CG        -17.4420  -12.1800  -23.1820 C.3       1 LYS        -0.0439
      7 CD        -18.2370  -13.0200  -22.1630 C.3       1 LYS        -0.0324
      8 CE        -19.6060  -12.4650  -21.6970 C.3       1 LYS         0.0309
      9 NZ        -20.1140  -11.1390  -22.1120 N.am      1 LYS        -0.2870
     10 N         -15.4910   -9.1180  -19.6430 N.am      1 SER        -0.2589
     11 CA        -16.4960   -9.1040  -18.5160 C.3       1 SER         0.1540
     12 C         -17.6920   -9.9620  -18.6220 C.2       1 SER         0.2062
     13 O         -18.6810   -9.6610  -19.3000 O.2       1 SER        -0.3943
     14 CB        -16.9540   -7.7630  -17.9930 C.3       1 SER         0.0843
     15 OG        -17.5130   -8.0160  -16.6940 O.3       1 SER        -0.3903
     16 N         -17.5820  -11.0280  -17.8710 N.am      1 ARG        -0.2637
     17 CA        -18.5870  -12.0200  -17.8030 C.3       1 ARG         0.1311
     18 C         -19.7850  -11.6790  -16.9110 C.2       1 ARG         0.2040
     19 O         -20.7200  -12.4390  -16.8770 O.2       1 ARG        -0.3944
     20 CB        -17.9130  -13.3280  -17.4100 C.3       1 ARG        -0.0092
     21 CG        -17.1020  -13.8500  -18.5850 C.3       1 ARG        -0.0156
     22 CD        -16.2240  -15.0010  -18.1740 C.3       1 ARG         0.0627
     23 NE        -15.0260  -14.5560  -17.4840 N.pl3     1 ARG        -0.2723
     24 CZ        -14.2360  -15.3630  -16.7960 C.cat     1 ARG         0.2882
     25 NH1       -14.5130  -16.6720  -16.6720 N.pl3     1 ARG        -0.2849
     26 NH2       -13.1510  -14.8510  -16.2290 N.pl3     1 ARG        -0.2849
     27 N         -19.7620  -10.5450  -16.2200 N.am      1 TRP        -0.2627
     28 CA        -20.9000  -10.0870  -15.4040 C.3       1 TRP         0.1352
     29 C         -22.1040   -9.8310  -16.2920 C.2       1 TRP         0.2052
     30 O         -21.9860   -9.1520  -17.3270 O.2       1 TRP        -0.3942
     31 CB        -20.5500   -8.8170  -14.5840 C.3       1 TRP         0.0042
     32 CG        -19.6430   -9.1460  -13.4810 C.2       1 TRP        -0.0418
     33 CD1       -18.3230   -8.8180  -13.3590 C.2       1 TRP         0.0167
     34 CD2       -19.9680   -9.9480  -12.3450 C.ar      1 TRP        -0.0214
     35 NE1       -17.7940   -9.3840  -12.1970 N.pl3     1 TRP        -0.2890
     36 CE2       -18.7950  -10.0630  -11.5530 C.ar      1 TRP         0.0603
     37 CE3       -21.1410  -10.5920  -11.9190 C.ar      1 TRP        -0.0747
     38 CZ2       -18.7760  -10.7820  -10.3320 C.ar      1 TRP        -0.0443
     39 CZ3       -21.1260  -11.2900  -10.7160 C.ar      1 TRP        -0.0792
     40 CH2       -19.9550  -11.3760   -9.9340 C.ar      1 TRP        -0.0768
     41 N         -23.2280  -10.4590  -15.9090 N.am      1 ASP        -0.2621
     42 CA        -24.4900  -10.3280  -16.5920 C.3       1 ASP         0.1423
     43 C         -24.5220  -10.9890  -17.9660 C.2       1 ASP         0.2051
     44 O         -25.4590  -10.7870  -18.7220 O.2       1 ASP        -0.3943
     45 CB        -24.8880   -8.8240  -16.6690 C.3       1 ASP         0.0406
     46 CG        -24.9900   -8.2190  -15.3280 C.2       1 ASP         0.0393
     47 OD1       -25.3600   -8.9710  -14.4290 O.co2     1 ASP        -0.5688
     48 OD2       -24.7290   -7.0210  -15.1340 O.co2     1 ASP        -0.5688
     49 N         -23.5380  -11.8170  -18.2740 N.am      1 GLU        -0.2692
     50 CA        -23.5590  -12.5580  -19.5130 C.3       1 GLU         0.0964
     51 C         -23.7050  -14.0670  -19.2740 C.2       1 GLU         0.0602
     52 O         -24.0120  -14.5980  -18.1760 O.co2     1 GLU        -0.5666
     53 CB        -22.2850  -12.2680  -20.3130 C.3       1 GLU        -0.0010
     54 CG        -22.0070  -10.7930  -20.4530 C.3       1 GLU         0.0408
     55 CD        -21.1480  -10.4040  -21.6240 C.2       1 GLU         0.1761
     56 OE2       -21.4110   -9.3180  -22.1090 O.2       1 GLU        -0.3971
     57 OXT       -23.4890  -14.7920  -20.2600 O.co2     1 GLU        -0.5666
     58 H1        -17.9489   -9.3155  -22.4959 H         1 LYS         0.2015
     59 H2        -16.4350   -8.6707  -22.4550 H         1 LYS         0.2015
     60 H3        -17.4142   -8.5563  -21.1368 H         1 LYS         0.2015
     61 H4        -17.3738  -10.9206  -20.7759 H         1 LYS         0.1098
     62 H5        -15.5445  -12.1548  -22.1755 H         1 LYS         0.0346
     63 H6        -15.7847  -10.8249  -23.3589 H         1 LYS         0.0346
     64 H7        -17.0496  -12.8541  -23.9576 H         1 LYS         0.0269
     65 H8        -18.1263  -11.4515  -23.6413 H         1 LYS         0.0269
     66 H9        -17.6069  -13.1378  -21.2691 H         1 LYS         0.0285
     67 H10       -18.4175  -14.0056  -22.6168 H         1 LYS         0.0285
     68 H11       -19.5689  -12.4464  -20.5978 H         1 LYS         0.0520
     69 H12       -20.3590  -13.1962  -22.0262 H         1 LYS         0.0520
     70 H13       -19.6186  -10.7169  -22.8712 H         1 LYS         0.1850
     71 H14       -14.8770   -8.3353  -19.7448 H         1 SER         0.1885
     72 H15       -15.9216   -9.5405  -17.6856 H         1 SER         0.0823
     73 H16       -17.7155   -7.3323  -18.6597 H         1 SER         0.0606
     74 H17       -16.1019   -7.0718  -17.9146 H         1 SER         0.0606
     75 H18       -17.8187   -7.1991  -16.3175 H         1 SER         0.2097
     76 H19       -16.7537  -11.1457  -17.3232 H         1 ARG         0.1883
     77 H20       -18.9888  -12.1443  -18.8194 H         1 ARG         0.0800
     78 H21       -18.6793  -14.0678  -17.1353 H         1 ARG         0.0313
     79 H22       -17.2466  -13.1544  -16.5522 H         1 ARG         0.0313
     80 H23       -16.4699  -13.0378  -18.9733 H         1 ARG         0.0301
     81 H24       -17.7903  -14.1880  -19.3737 H         1 ARG         0.0301
     82 H25       -15.9278  -15.5600  -19.0739 H         1 ARG         0.0689
     83 H26       -16.7947  -15.6606  -17.5038 H         1 ARG         0.0689
     84 H27       -14.7782  -13.5575  -17.5332 H         1 ARG         0.2642
     85 H28       -13.8838  -17.2826  -16.1314 H         1 ARG         0.2615
     86 H29       -15.3545  -17.0648  -17.1175 H         1 ARG         0.2615
     87 H30       -12.9436  -13.8469  -16.3273 H         1 ARG         0.2615
     88 H31       -12.5162  -15.4577  -15.6906 H         1 ARG         0.2615
     89 H32       -18.9385   -9.9788  -16.2550 H         1 TRP         0.1884
     90 H33       -21.1563  -10.8884  -14.6954 H         1 TRP         0.0815
     91 H34       -21.4751   -8.3855  -14.1742 H         1 TRP         0.0397
     92 H35       -20.0643   -8.0834  -15.2442 H         1 TRP         0.0397
     93 H36       -17.7645   -8.2047  -14.0646 H         1 TRP         0.0795
     94 H37       -16.8177   -9.3046  -11.8783 H         1 TRP         0.2216
     95 H38       -22.0434  -10.5459  -12.5179 H         1 TRP         0.0540
     96 H39       -17.8736  -10.8616   -9.7366 H         1 TRP         0.0541
     97 H40       -22.0315  -11.7772  -10.3728 H         1 TRP         0.0510
     98 H41       -19.9827  -11.9220   -8.9980 H         1 TRP         0.0530
     99 H42       -23.1866  -11.0511  -15.1042 H         1 ASP         0.1884
    100 H43       -25.2450  -10.8400  -15.9773 H         1 ASP         0.0819
    101 H44       -25.8613   -8.7379  -17.1742 H         1 ASP         0.0478
    102 H45       -24.1253   -8.2823  -17.2477 H         1 ASP         0.0478
    103 H46       -22.7713  -11.9311  -17.6422 H         1 GLU         0.1875
    104 H47       -24.4250  -12.2197  -20.1009 H         1 GLU         0.0727
    105 H48       -22.3943  -12.7020  -21.3178 H         1 GLU         0.0330
    106 H49       -21.4332  -12.7392  -19.8007 H         1 GLU         0.0330
    107 H50       -21.5027  -10.4547  -19.5358 H         1 GLU         0.0504
    108 H51       -22.9718  -10.2744  -20.5536 H         1 GLU         0.0504
@<TRIPOS>BOND
     1    1    2 1  
     2    2    3 1  
     3    2    5 1  
     4    3    4 2  
     5    3   10 am 
     6    5    6 1  
     7    6    7 1  
     8    7    8 1  
     9    8    9 1  
    10    9   55 am 
    11   10   11 1  
    12   11   12 1  
    13   11   14 1  
    14   12   13 2  
    15   12   16 am 
    16   14   15 1  
    17   16   17 1  
    18   17   18 1  
    19   17   20 1  
    20   18   19 2  
    21   18   27 am 
    22   20   21 1  
    23   21   22 1  
    24   22   23 1  
    25   23   24 ar 
    26   24   25 ar 
    27   24   26 ar 
    28   27   28 1  
    29   28   29 1  
    30   28   31 1  
    31   29   30 2  
    32   29   41 am 
    33   31   32 1  
    34   32   33 2  
    35   32   34 1  
    36   33   35 1  
    37   34   36 ar 
    38   34   37 ar 
    39   35   36 1  
    40   36   38 ar 
    41   37   39 ar 
    42   38   40 ar 
    43   39   40 ar 
    44   41   42 1  
    45   42   43 1  
    46   42   45 1  
    47   43   44 2  
    48   43   49 am 
    49   45   46 1  
    50   46   47 ar 
    51   46   48 ar 
    52   49   50 1  
    53   50   51 1  
    54   50   53 1  
    55   51   52 ar 
    56   51   57 ar 
    57   53   54 1  
    58   54   55 1  
    59   55   56 2  
    60    1   58 1  
    61    1   59 1  
    62    1   60 1  
    63    2   61 1  
    64    5   62 1  
    65    5   63 1  
    66    6   64 1  
    67    6   65 1  
    68    7   66 1  
    69    7   67 1  
    70    8   68 1  
    71    8   69 1  
    72    9   70 1  
    73   10   71 1  
    74   11   72 1  
    75   14   73 1  
    76   14   74 1  
    77   15   75 1  
    78   16   76 1  
    79   17   77 1  
    80   20   78 1  
    81   20   79 1  
    82   21   80 1  
    83   21   81 1  
    84   22   82 1  
    85   22   83 1  
    86   23   84 1  
    87   25   85 1  
    88   25   86 1  
    89   26   87 1  
    90   26   88 1  
    91   27   89 1  
    92   28   90 1  
    93   31   91 1  
    94   31   92 1  
    95   33   93 1  
    96   35   94 1  
    97   37   95 1  
    98   38   96 1  
    99   39   97 1  
   100   40   98 1  
   101   41   99 1  
   102   42  100 1  
   103   45  101 1  
   104   45  102 1  
   105   49  103 1  
   106   50  104 1  
   107   53  105 1  
   108   53  106 1  
   109   54  107 1  
   110   54  108 1  
@<TRIPOS>SUBSTRUCTURE
     1 LYS         1

