### 
### Created by X-TOOL on Mon Sep 10 21:13:26 2018
### 

@<TRIPOS>MOLECULE
5lss_ligand
   60    62     1     0     0
SMALL
GAST_HUCK


@<TRIPOS>ATOM
      1 C4         -2.1660   -4.2140   18.4250 C.ar      1 76H         0.1613
      2 C5         -0.9870   -4.4080   17.7460 C.ar      1 76H         0.1045
      3 C6         -0.1940   -3.2720   17.5220 C.ar      1 76H         0.1298
      4 C8         -1.9030   -6.3340   17.8920 C.2       1 76H         0.1123
      5 N1         -0.6340   -2.0730   17.9830 N.ar      1 76H        -0.2698
      6 N3         -2.6370   -3.0390   18.8980 N.ar      1 76H        -0.2714
      7 O          -5.4690  -10.9290   23.3840 O.co2     1 76H        -0.5643
      8 C          -4.5600  -10.0720   23.3440 C.2       1 76H         0.0844
      9 CA         -3.7600   -9.9560   22.0350 C.3       1 76H         0.0285
     10 N          -2.8750   -8.7520   22.0910 N.4       1 76H         0.2327
     11 CB         -4.6530   -9.9110   20.8030 C.3       1 76H         0.0075
     12 CAM        -3.9010  -10.2020   19.5220 C.3       1 76H        -0.0030
     13 CAY        -4.7610  -10.2190   18.2610 C.3       1 76H        -0.0199
     14 NAR        -4.2540  -11.3390   17.3730 N.4       1 76H         0.2292
     15 CAK        -4.9700  -11.5570   16.0800 C.3       1 76H        -0.0337
     16 CAJ        -4.4840  -12.8040   15.3630 C.3       1 76H        -0.0154
     17 CAA        -5.1520  -13.0230   14.0290 C.3       1 76H        -0.0605
     18 CAN        -4.7450   -8.8750   17.5130 C.3       1 76H         0.0192
     19 CBB        -5.2010   -7.6550   18.3070 C.3       1 76H         0.0957
     20 OAS        -4.1660   -7.1960   19.2070 O.3       1 76H        -0.3389
     21 CAZ        -5.5170   -6.4450   17.4140 C.3       1 76H         0.1126
     22 OAF        -6.8430   -6.5350   16.9140 O.3       1 76H        -0.3865
     23 CBA        -5.2580   -5.2620   18.3670 C.3       1 76H         0.1384
     24 OAG        -6.3730   -5.0330   19.2060 O.3       1 76H        -0.3836
     25 CBC        -4.0290   -5.7750   19.1540 C.3       1 76H         0.2009
     26 N9         -2.7530   -5.4500   18.5180 N.pl3     1 76H        -0.1919
     27 N7         -0.8290   -5.7450   17.4150 N.2       1 76H        -0.2958
     28 C2         -1.8130   -2.0320   18.6330 C.ar      1 76H         0.0533
     29 N6          0.9740   -3.3120   16.8770 N.pl3     1 76H        -0.3152
     30 OXT        -4.2470   -9.3000   24.2800 O.co2     1 76H        -0.5643
     31 H1         -2.0986   -7.4015   17.8021 H         1 76H         0.1349
     32 H2         -3.1218  -10.8479   21.9507 H         1 76H         0.1024
     33 H3         -2.3524   -8.6789   21.2321 H         1 76H         0.2010
     34 H4         -2.2367   -8.8399   22.8662 H         1 76H         0.2010
     35 H5         -3.4392   -7.9256   22.2123 H         1 76H         0.2010
     36 H6         -5.0988   -8.9082   20.7286 H         1 76H         0.0340
     37 H7         -5.4508  -10.6592   20.9198 H         1 76H         0.0340
     38 H8         -3.4231  -11.1876   19.6228 H         1 76H         0.0323
     39 H9         -3.1272   -9.4302   19.3973 H         1 76H         0.0323
     40 H10        -5.8006  -10.4343   18.5487 H         1 76H         0.0851
     41 H11        -4.3124  -12.1957   17.9010 H         1 76H         0.2016
     42 H12        -3.2893  -11.1426   17.1568 H         1 76H         0.2016
     43 H13        -4.8021  -10.6857   15.4300 H         1 76H         0.0814
     44 H14        -6.0460  -11.6611   16.2832 H         1 76H         0.0814
     45 H15        -4.6867  -13.6759   16.0023 H         1 76H         0.0314
     46 H16        -3.4000  -12.7130   15.1999 H         1 76H         0.0314
     47 H17        -4.7553  -13.9387   13.5663 H         1 76H         0.0232
     48 H18        -4.9506  -12.1636   13.3726 H         1 76H         0.0232
     49 H19        -6.2373  -13.1265   14.1750 H         1 76H         0.0232
     50 H20        -5.4040   -8.9707   16.6375 H         1 76H         0.0346
     51 H21        -3.7139   -8.6903   17.1774 H         1 76H         0.0346
     52 H22        -6.0978   -7.9323   18.8804 H         1 76H         0.0626
     53 H23        -4.8265   -6.3962   16.5591 H         1 76H         0.0647
     54 H24        -7.0248   -5.7818   16.3644 H         1 76H         0.2100
     55 H25        -5.0223   -4.3410   17.8136 H         1 76H         0.0676
     56 H26        -6.5428   -5.8107   19.7244 H         1 76H         0.2101
     57 H27        -4.0399   -5.3499   20.1685 H         1 76H         0.0996
     58 H28        -2.1283   -1.0558   18.9833 H         1 76H         0.0996
     59 H29         1.5165   -2.4472   16.7399 H         1 76H         0.1820
     60 H30         1.3328   -4.2076   16.5164 H         1 76H         0.1820
@<TRIPOS>BOND
     1    1    2 ar 
     2    1    6 ar 
     3   26    1 1  
     4    2    3 ar 
     5   27    2 1  
     6    3    5 ar 
     7    3   29 1  
     8   26    4 1  
     9    4   27 2  
    10   28    5 ar 
    11    6   28 ar 
    12    8    7 ar 
    13    9    8 1  
    14    8   30 ar 
    15    9   10 1  
    16   11    9 1  
    17   12   11 1  
    18   13   12 1  
    19   13   14 1  
    20   18   13 1  
    21   14   15 1  
    22   15   16 1  
    23   16   17 1  
    24   19   18 1  
    25   20   19 1  
    26   21   19 1  
    27   25   20 1  
    28   21   22 1  
    29   23   21 1  
    30   23   24 1  
    31   25   23 1  
    32   25   26 1  
    33    4   31 1  
    34    9   32 1  
    35   10   33 1  
    36   10   34 1  
    37   10   35 1  
    38   11   36 1  
    39   11   37 1  
    40   12   38 1  
    41   12   39 1  
    42   13   40 1  
    43   14   41 1  
    44   14   42 1  
    45   15   43 1  
    46   15   44 1  
    47   16   45 1  
    48   16   46 1  
    49   17   47 1  
    50   17   48 1  
    51   17   49 1  
    52   18   50 1  
    53   18   51 1  
    54   19   52 1  
    55   21   53 1  
    56   22   54 1  
    57   23   55 1  
    58   24   56 1  
    59   25   57 1  
    60   28   58 1  
    61   29   59 1  
    62   29   60 1  
@<TRIPOS>SUBSTRUCTURE
     1 76H         1

