### 
### Created by X-TOOL on Mon Sep 10 21:13:28 2018
### 

@<TRIPOS>MOLECULE
5lsx_ligand
   64    67     1     0     0
SMALL
GAST_HUCK


@<TRIPOS>ATOM
      1 C2         -1.1210   31.6300  -18.7250 C.ar      1 76O         0.1298
      2 C6          1.0260   30.7260  -18.3280 C.ar      1 76O         0.1613
      3 C8          0.5390   28.6190  -17.9210 C.2       1 76O         0.1123
      4 C10        -0.3300   30.5160  -18.4110 C.ar      1 76O         0.1045
      5 C11         2.9940   29.2330  -17.8210 C.3       1 76O         0.2009
      6 C13         3.8300   27.7320  -16.2280 C.3       1 76O         0.0957
      7 C14         3.3400   26.5030  -15.4910 C.3       1 76O         0.0192
      8 C15         2.9960   25.3020  -16.3730 C.3       1 76O        -0.0185
      9 C16         4.0820   24.9110  -17.3760 C.3       1 76O        -0.0029
     10 C24         1.5130   24.2390  -14.6260 C.3       1 76O         0.0004
     11 C25         1.2190   22.9620  -13.8850 C.ar      1 76O         0.0013
     12 C26         1.6490   22.7900  -12.5790 C.ar      1 76O        -0.0553
     13 C27         1.3790   21.6230  -11.9040 C.ar      1 76O        -0.0684
     14 C28         0.6800   20.6180  -12.5220 C.ar      1 76O        -0.0687
     15 C31         3.6030   29.0660  -15.5120 C.3       1 76O         0.1126
     16 N1         -2.4460   31.5710  -18.8380 N.pl3     1 76O        -0.3152
     17 N3         -0.5080   32.8250  -18.9240 N.ar      1 76O        -0.2698
     18 C4          0.8350   32.8780  -18.8090 C.ar      1 76O         0.0533
     19 N5          1.6720   31.8880  -18.5170 N.ar      1 76O        -0.2714
     20 N7          1.5790   29.5130  -18.0150 N.pl3     1 76O        -0.1919
     21 N9         -0.6300   29.1890  -18.1540 N.2       1 76O        -0.2958
     22 O12         3.1250   27.8590  -17.4600 O.3       1 76O        -0.3389
     23 C17         3.6130   24.8270  -18.8140 C.3       1 76O         0.0075
     24 C18         4.3690   25.7450  -19.7730 C.3       1 76O         0.0285
     25 N19         3.4980   26.1070  -20.9300 N.4       1 76O         0.2327
     26 C20         5.6660   25.1010  -20.2880 C.2       1 76O         0.0844
     27 O21         6.2940   24.3710  -19.4900 O.co2     1 76O        -0.5643
     28 O22         6.0080   25.3490  -21.4660 O.co2     1 76O        -0.5643
     29 N23         2.7180   24.1120  -15.4950 N.4       1 76O         0.2413
     30 C29         0.2480   20.7740  -13.8150 C.ar      1 76O        -0.0684
     31 C30         0.5150   21.9390  -14.4960 C.ar      1 76O        -0.0553
     32 O32         4.6290   29.3040  -14.5610 O.3       1 76O        -0.3865
     33 C33         3.6480   30.0520  -16.6890 C.3       1 76O         0.1384
     34 O34         4.9810   30.4120  -17.0130 O.3       1 76O        -0.3836
     35 H1          0.6640   27.5639  -17.6823 H         1 76O         0.1349
     36 H2          3.5270   29.4326  -18.7623 H         1 76O         0.0996
     37 H3          4.9063   27.6079  -16.4179 H         1 76O         0.0626
     38 H4          2.4358   26.7819  -14.9300 H         1 76O         0.0346
     39 H5          4.1269   26.1930  -14.7877 H         1 76O         0.0346
     40 H6          2.0864   25.5513  -16.9391 H         1 76O         0.0851
     41 H7          4.4778   23.9264  -17.0864 H         1 76O         0.0323
     42 H8          4.8856   25.6600  -17.3207 H         1 76O         0.0323
     43 H9          1.6847   25.0430  -13.8952 H         1 76O         0.0980
     44 H10         0.6466   24.4933  -15.2542 H         1 76O         0.0980
     45 H11         2.2022   23.5812  -12.0860 H         1 76O         0.0558
     46 H12         1.7190   21.4972  -10.8824 H         1 76O         0.0599
     47 H13         0.4684   19.6987  -11.9881 H         1 76O         0.0559
     48 H14         2.6256   29.0936  -15.0082 H         1 76O         0.0647
     49 H15        -2.9813   32.4196  -19.0708 H         1 76O         0.1820
     50 H16        -2.9360   30.6767  -18.6926 H         1 76O         0.1820
     51 H17         1.2877   33.8488  -18.9755 H         1 76O         0.0996
     52 H18         2.5472   25.0972  -18.8458 H         1 76O         0.0340
     53 H19         3.7387   23.7898  -19.1580 H         1 76O         0.0340
     54 H20         4.6330   26.6646  -19.2302 H         1 76O         0.1024
     55 H21         4.0056   26.7122  -21.5562 H         1 76O         0.2010
     56 H22         2.6754   26.5837  -20.5951 H         1 76O         0.2010
     57 H23         3.2249   25.2695  -21.4200 H         1 76O         0.2010
     58 H24         3.5189   23.9682  -14.9001 H         1 76O         0.2030
     59 H25         2.5919   23.3075  -16.0891 H         1 76O         0.2030
     60 H26        -0.3046   19.9779  -14.3006 H         1 76O         0.0599
     61 H27         0.1719   22.0565  -15.5175 H         1 76O         0.0558
     62 H28         4.4713   30.1346  -14.1278 H         1 76O         0.2100
     63 H29         3.0682   30.9606  -16.4692 H         1 76O         0.0676
     64 H30         5.4688   29.6329  -17.2532 H         1 76O         0.2101
@<TRIPOS>BOND
     1    4    1 ar 
     2    1   16 1  
     3    1   17 ar 
     4    2    4 ar 
     5    2   19 ar 
     6   20    2 1  
     7   20    3 1  
     8    3   21 2  
     9   21    4 1  
    10    5   20 1  
    11   22    5 1  
    12    5   33 1  
    13    7    6 1  
    14    6   15 1  
    15    6   22 1  
    16    8    7 1  
    17    8    9 1  
    18   29    8 1  
    19    9   23 1  
    20   10   11 1  
    21   10   29 1  
    22   11   12 ar 
    23   11   31 ar 
    24   12   13 ar 
    25   13   14 ar 
    26   14   30 ar 
    27   15   32 1  
    28   15   33 1  
    29   17   18 ar 
    30   18   19 ar 
    31   23   24 1  
    32   24   25 1  
    33   24   26 1  
    34   26   27 ar 
    35   26   28 ar 
    36   30   31 ar 
    37   33   34 1  
    38    3   35 1  
    39    5   36 1  
    40    6   37 1  
    41    7   38 1  
    42    7   39 1  
    43    8   40 1  
    44    9   41 1  
    45    9   42 1  
    46   10   43 1  
    47   10   44 1  
    48   12   45 1  
    49   13   46 1  
    50   14   47 1  
    51   15   48 1  
    52   16   49 1  
    53   16   50 1  
    54   18   51 1  
    55   23   52 1  
    56   23   53 1  
    57   24   54 1  
    58   25   55 1  
    59   25   56 1  
    60   25   57 1  
    61   29   58 1  
    62   29   59 1  
    63   30   60 1  
    64   31   61 1  
    65   32   62 1  
    66   33   63 1  
    67   34   64 1  
@<TRIPOS>SUBSTRUCTURE
     1 76O         1

