### 
### Created by X-TOOL on Mon Sep 10 21:13:27 2018
### 

@<TRIPOS>MOLECULE
5lsy_ligand
   63    65     1     0     0
SMALL
GAST_HUCK


@<TRIPOS>ATOM
      1 C1          8.9000   17.0150   30.1690 C.3       1 76M        -0.0578
      2 C2         10.3000   17.6230   30.0910 C.3       1 76M        -0.0065
      3 C3         10.3950   18.8810   30.9530 C.3       1 76M        -0.0578
      4 C6         13.8360   16.1280   30.1540 C.3       1 76M        -0.0199
      5 C7         15.1550   16.8930   30.2900 C.3       1 76M        -0.0030
      6 C8         16.2410   16.4700   29.3250 C.3       1 76M         0.0075
      7 C11        18.4020   17.2080   28.1950 C.2       1 76M         0.0844
      8 C14        13.7330   14.9420   31.1110 C.3       1 76M         0.0192
      9 C15        14.7850   13.8660   30.9280 C.3       1 76M         0.0957
     10 C23        15.9200   14.5600   34.2080 C.2       1 76M         0.1123
     11 C25        16.7400   13.4020   35.8120 C.ar      1 76M         0.1045
     12 C26        17.1680   12.8300   37.0180 C.ar      1 76M         0.1298
     13 C31        17.0900   12.7430   34.6610 C.ar      1 76M         0.1613
     14 C4         11.3430   16.5850   30.4910 C.3       1 76M        -0.0310
     15 N5         12.7280   17.1250   30.3900 N.4       1 76M         0.2294
     16 C9         17.5160   17.3010   29.4470 C.3       1 76M         0.0285
     17 N10        18.2840   16.8960   30.6630 N.4       1 76M         0.2327
     18 O12        17.8440   17.3820   27.0780 O.co2     1 76M        -0.5643
     19 O13        19.6270   16.9660   28.3710 O.co2     1 76M        -0.5643
     20 O16        16.0520   14.2810   31.4830 O.3       1 76M        -0.3389
     21 C17        16.6620   13.2000   32.2160 C.3       1 76M         0.2009
     22 C18        15.8420   11.9400   31.8560 C.3       1 76M         0.1384
     23 O19        16.3370   11.2830   30.6990 O.3       1 76M        -0.3836
     24 C20        14.4370   12.5550   31.6280 C.3       1 76M         0.1126
     25 O21        13.6130   11.7730   30.7700 O.3       1 76M        -0.3865
     26 N22        16.5650   13.4860   33.6350 N.pl3     1 76M        -0.1919
     27 N24        16.0060   14.5420   35.5150 N.2       1 76M        -0.2958
     28 N27        16.8920   13.3760   38.2100 N.pl3     1 76M        -0.3152
     29 N28        17.8910   11.6770   36.9800 N.ar      1 76M        -0.2698
     30 C29        18.1620   11.1380   35.7710 C.ar      1 76M         0.0533
     31 N30        17.8050   11.5980   34.5720 N.ar      1 76M        -0.2714
     32 H1          8.1553   17.7709   29.8789 H         1 76M         0.0234
     33 H2          8.7019   16.6814   31.1983 H         1 76M         0.0234
     34 H3          8.8350   16.1552   29.4859 H         1 76M         0.0234
     35 H4         10.4912   17.9134   29.0474 H         1 76M         0.0347
     36 H5         11.4098   19.2993   30.8805 H         1 76M         0.0234
     37 H6         10.1779   18.6250   32.0005 H         1 76M         0.0234
     38 H7          9.6658   19.6244   30.5985 H         1 76M         0.0234
     39 H8         13.7570   15.7401   29.1277 H         1 76M         0.0851
     40 H9         15.5312   16.7457   31.3131 H         1 76M         0.0323
     41 H10        14.9489   17.9609   30.1252 H         1 76M         0.0323
     42 H11        15.8555   16.5710   28.2997 H         1 76M         0.0340
     43 H12        16.4909   15.4168   29.5207 H         1 76M         0.0340
     44 H13        12.7453   14.4782   30.9717 H         1 76M         0.0346
     45 H14        13.8160   15.3265   32.1382 H         1 76M         0.0346
     46 H15        14.8982   13.6793   29.8499 H         1 76M         0.0626
     47 H16        15.4006   15.3319   33.6420 H         1 76M         0.1349
     48 H17        11.2513   15.7135   29.8261 H         1 76M         0.0816
     49 H18        11.1566   16.2749   31.5298 H         1 76M         0.0816
     50 H19        12.7430   17.7829   29.6264 H         1 76M         0.2016
     51 H20        12.9304   17.6063   31.2522 H         1 76M         0.2016
     52 H21        17.2183   18.3532   29.5666 H         1 76M         0.1024
     53 H22        19.1222   17.4516   30.7315 H         1 76M         0.2010
     54 H23        18.5317   15.9213   30.5948 H         1 76M         0.2010
     55 H24        17.7163   17.0419   31.4830 H         1 76M         0.2010
     56 H25        17.7161   13.0725   31.9284 H         1 76M         0.0996
     57 H26        15.8295   11.2252   32.6920 H         1 76M         0.0676
     58 H27        15.8035   10.5181   30.5179 H         1 76M         0.2101
     59 H28        13.9194   12.7239   32.5838 H         1 76M         0.0647
     60 H29        13.4906   10.9109   31.1498 H         1 76M         0.2100
     61 H30        17.2253   12.9237   39.0732 H         1 76M         0.1820
     62 H31        16.3465   14.2481   38.2631 H         1 76M         0.1820
     63 H32        18.7395   10.2207   35.7769 H         1 76M         0.0996
@<TRIPOS>BOND
     1    2    1 1  
     2    2    3 1  
     3   14    2 1  
     4    4    5 1  
     5    8    4 1  
     6    4   15 1  
     7    5    6 1  
     8    6   16 1  
     9   16    7 1  
    10    7   18 ar 
    11    7   19 ar 
    12    9    8 1  
    13   20    9 1  
    14    9   24 1  
    15   26   10 1  
    16   10   27 2  
    17   11   12 ar 
    18   13   11 ar 
    19   11   27 1  
    20   12   28 1  
    21   12   29 ar 
    22   26   13 1  
    23   13   31 ar 
    24   15   14 1  
    25   16   17 1  
    26   21   20 1  
    27   21   22 1  
    28   21   26 1  
    29   22   23 1  
    30   22   24 1  
    31   24   25 1  
    32   29   30 ar 
    33   30   31 ar 
    34    1   32 1  
    35    1   33 1  
    36    1   34 1  
    37    2   35 1  
    38    3   36 1  
    39    3   37 1  
    40    3   38 1  
    41    4   39 1  
    42    5   40 1  
    43    5   41 1  
    44    6   42 1  
    45    6   43 1  
    46    8   44 1  
    47    8   45 1  
    48    9   46 1  
    49   10   47 1  
    50   14   48 1  
    51   14   49 1  
    52   15   50 1  
    53   15   51 1  
    54   16   52 1  
    55   17   53 1  
    56   17   54 1  
    57   17   55 1  
    58   21   56 1  
    59   22   57 1  
    60   23   58 1  
    61   24   59 1  
    62   25   60 1  
    63   28   61 1  
    64   28   62 1  
    65   30   63 1  
@<TRIPOS>SUBSTRUCTURE
     1 76M         1

