### 
### Created by X-TOOL on Mon Sep 10 21:13:27 2018
### 

@<TRIPOS>MOLECULE
5lt6_ligand
   66    68     1     0     0
SMALL
GAST_HUCK


@<TRIPOS>ATOM
      1 C1         21.8530   12.0640   63.4650 C.3       1 76J        -0.0653
      2 C2         21.5810   13.5290   63.7460 C.3       1 76J        -0.0557
      3 C3         20.1000   13.8860   63.8820 C.3       1 76J        -0.0485
      4 C5         17.8360   13.1950   64.8050 C.3       1 76J        -0.0334
      5 C7         16.4920   14.2220   66.7390 C.3       1 76J        -0.0199
      6 C8         16.8730   14.8710   68.0730 C.3       1 76J        -0.0030
      7 C10        15.3490   14.3550   69.9890 C.3       1 76J         0.0285
      8 C12        15.0270   13.3530   71.1140 C.2       1 76J         0.0844
      9 C15        15.6120   15.0990   65.8200 C.3       1 76J         0.0192
     10 C16        14.2750   15.5990   66.4100 C.3       1 76J         0.0957
     11 O17        14.4620   16.4360   67.5720 O.3       1 76J        -0.3389
     12 C19        12.5640   17.2810   66.4310 C.3       1 76J         0.1384
     13 C21        13.4460   16.4830   65.4590 C.3       1 76J         0.1126
     14 C24        15.6200   18.9080   67.1500 C.2       1 76J         0.1123
     15 C26        14.8570   20.9020   67.2890 C.ar      1 76J         0.1045
     16 C27        14.6060   22.2860   67.3060 C.ar      1 76J         0.1298
     17 C4         19.2420   12.7730   64.4310 C.3       1 76J        -0.0126
     18 N6         17.8310   13.8980   66.1130 N.4       1 76J         0.2292
     19 C9         16.6340   14.0080   69.2770 C.3       1 76J         0.0075
     20 N11        15.4580   15.7400   70.5310 N.4       1 76J         0.2327
     21 O13        15.3490   12.1790   70.9070 O.co2     1 76J        -0.5643
     22 O14        14.4630   13.7630   72.1520 O.co2     1 76J        -0.5643
     23 C18        13.5410   17.5340   67.6060 C.3       1 76J         0.2009
     24 O20        11.4500   16.5250   66.8630 O.3       1 76J        -0.3836
     25 O22        12.7110   15.6890   64.5600 O.3       1 76J        -0.3865
     26 N23        14.2880   18.7970   67.4630 N.pl3     1 76J        -0.1919
     27 N25        15.9980   20.1600   67.0420 N.2       1 76J        -0.2958
     28 N28        15.5570   23.1830   67.0560 N.pl3     1 76J        -0.3152
     29 N29        13.3380   22.7280   67.5510 N.ar      1 76J        -0.2698
     30 C30        12.3820   21.7930   67.7720 C.ar      1 76J         0.0533
     31 N31        12.5190   20.4690   67.7580 N.ar      1 76J        -0.2714
     32 C32        13.7910   20.0770   67.5110 C.ar      1 76J         0.1613
     33 H1         22.9379   11.9016   63.3835 H         1 76J         0.0230
     34 H2         21.3672   11.7753   62.5213 H         1 76J         0.0230
     35 H3         21.4514   11.4524   64.2863 H         1 76J         0.0230
     36 H4         22.0023   14.1209   62.9201 H         1 76J         0.0263
     37 H5         22.0866   13.7980   64.6852 H         1 76J         0.0263
     38 H6         19.7179   14.1568   62.8867 H         1 76J         0.0267
     39 H7         20.0145   14.7514   64.5556 H         1 76J         0.0267
     40 H8         17.1966   12.3025   64.8721 H         1 76J         0.0814
     41 H9         17.4432   13.8701   64.0305 H         1 76J         0.0814
     42 H10        15.9394   13.2912   66.9348 H         1 76J         0.0851
     43 H11        16.2823   15.7918   68.1879 H         1 76J         0.0323
     44 H12        17.9430   15.1236   68.0387 H         1 76J         0.0323
     45 H13        14.5268   14.3254   69.2589 H         1 76J         0.1024
     46 H14        15.3797   14.5103   64.9203 H         1 76J         0.0346
     47 H15        16.2027   15.9829   65.5375 H         1 76J         0.0346
     48 H16        13.6846   14.7127   66.6853 H         1 76J         0.0626
     49 H17        12.2195   18.2233   65.9800 H         1 76J         0.0676
     50 H18        14.0948   17.1610   64.8852 H         1 76J         0.0647
     51 H19        16.2847   18.0572   67.0080 H         1 76J         0.1349
     52 H20        19.7320   12.3723   65.3306 H         1 76J         0.0317
     53 H21        19.1730   11.9833   63.6684 H         1 76J         0.0317
     54 H22        18.3219   14.7693   65.9871 H         1 76J         0.2016
     55 H23        18.3354   13.3195   66.7664 H         1 76J         0.2016
     56 H24        17.4721   14.1390   69.9773 H         1 76J         0.0340
     57 H25        16.5863   12.9574   68.9546 H         1 76J         0.0340
     58 H26        14.6041   15.9819   71.0089 H         1 76J         0.2010
     59 H27        15.6135   16.3862   69.7731 H         1 76J         0.2010
     60 H28        16.2300   15.7881   71.1773 H         1 76J         0.2010
     61 H29        12.9882   17.5475   68.5569 H         1 76J         0.0996
     62 H30        10.8633   16.3804   66.1299 H         1 76J         0.2101
     63 H31        13.3098   15.2227   63.9885 H         1 76J         0.2100
     64 H32        15.3350   24.1886   67.0776 H         1 76J         0.1820
     65 H33        16.5149   22.8716   66.8409 H         1 76J         0.1820
     66 H34        11.3876   22.1680   67.9855 H         1 76J         0.0996
@<TRIPOS>BOND
     1    2    1 1  
     2    3    2 1  
     3   17    3 1  
     4    4   17 1  
     5   18    4 1  
     6    5    6 1  
     7    9    5 1  
     8    5   18 1  
     9    6   19 1  
    10    7    8 1  
    11   19    7 1  
    12    7   20 1  
    13    8   21 ar 
    14    8   22 ar 
    15   10    9 1  
    16   11   10 1  
    17   13   10 1  
    18   23   11 1  
    19   12   13 1  
    20   23   12 1  
    21   12   24 1  
    22   13   25 1  
    23   26   14 1  
    24   14   27 2  
    25   15   16 ar 
    26   27   15 1  
    27   15   32 ar 
    28   16   28 1  
    29   16   29 ar 
    30   23   26 1  
    31   26   32 1  
    32   29   30 ar 
    33   30   31 ar 
    34   31   32 ar 
    35    1   33 1  
    36    1   34 1  
    37    1   35 1  
    38    2   36 1  
    39    2   37 1  
    40    3   38 1  
    41    3   39 1  
    42    4   40 1  
    43    4   41 1  
    44    5   42 1  
    45    6   43 1  
    46    6   44 1  
    47    7   45 1  
    48    9   46 1  
    49    9   47 1  
    50   10   48 1  
    51   12   49 1  
    52   13   50 1  
    53   14   51 1  
    54   17   52 1  
    55   17   53 1  
    56   18   54 1  
    57   18   55 1  
    58   19   56 1  
    59   19   57 1  
    60   20   58 1  
    61   20   59 1  
    62   20   60 1  
    63   23   61 1  
    64   24   62 1  
    65   25   63 1  
    66   28   64 1  
    67   28   65 1  
    68   30   66 1  
@<TRIPOS>SUBSTRUCTURE
     1 76J         1

