### 
### Created by X-TOOL on Fri Nov  2 10:58:15 2018
### 

@<TRIPOS>MOLECULE
5lt9_ligand
   27    26     1     0     0
SMALL
GAST_HUCK


@<TRIPOS>ATOM
      1 N          -8.8840   27.6830   16.8210 N.4       1 ARG         0.2327
      2 CA         -9.9390   26.8470   16.2590 C.3       1 ARG         0.0284
      3 C          -9.6260   25.3630   16.4330 C.2       1 ARG         0.0844
      4 O         -10.3610   24.4990   15.9540 O.co2     1 ARG        -0.5643
      5 CB        -10.1480   27.1710   14.7780 C.3       1 ARG         0.0055
      6 CG        -10.1350   28.6590   14.4720 C.3       1 ARG        -0.0131
      7 CD         -9.5390   28.9540   13.1110 C.3       1 ARG         0.0628
      8 NE        -10.4850   28.7150   12.0270 N.pl3     1 ARG        -0.2723
      9 CZ        -10.2700   29.0860   10.7700 C.cat     1 ARG         0.2882
     10 NH1        -9.1480   29.7140   10.4590 N.pl3     1 ARG        -0.2849
     11 NH2       -11.1710   28.8370    9.8300 N.pl3     1 ARG        -0.2849
     12 OXT        -8.6320   24.9930   17.0570 O.co2     1 ARG        -0.5643
     13 H1         -9.1197   28.6543   16.6906 H         1 ARG         0.2010
     14 H2         -8.0128   27.4832   16.3550 H         1 ARG         0.2010
     15 H3         -8.7905   27.4893   17.8058 H         1 ARG         0.2010
     16 H4        -10.8729   27.0666   16.7972 H         1 ARG         0.1024
     17 H5        -11.1198   26.7606   14.4662 H         1 ARG         0.0340
     18 H6         -9.3447   26.6904   14.2004 H         1 ARG         0.0340
     19 H7         -9.5390   29.1741   15.2397 H         1 ARG         0.0302
     20 H8        -11.1683   29.0355   14.4962 H         1 ARG         0.0302
     21 H9         -8.6608   28.3086   12.9623 H         1 ARG         0.0689
     22 H10        -9.2280   30.0087   13.0824 H         1 ARG         0.0689
     23 H11       -11.3676   28.2324   12.2483 H         1 ARG         0.2642
     24 H12        -8.9733   30.0052    9.4866 H         1 ARG         0.2615
     25 H13        -8.4491   29.9118   11.1893 H         1 ARG         0.2615
     26 H14       -12.0450   28.3481   10.0709 H         1 ARG         0.2615
     27 H15       -10.9971   29.1324    8.8587 H         1 ARG         0.2615
@<TRIPOS>BOND
     1    1    2 1  
     2    2    3 1  
     3    2    5 1  
     4    3    4 ar 
     5    3   12 ar 
     6    5    6 1  
     7    6    7 1  
     8    7    8 1  
     9    8    9 ar 
    10    9   10 ar 
    11    9   11 ar 
    12    1   13 1  
    13    1   14 1  
    14    1   15 1  
    15    2   16 1  
    16    5   17 1  
    17    5   18 1  
    18    6   19 1  
    19    6   20 1  
    20    7   21 1  
    21    7   22 1  
    22    8   23 1  
    23   10   24 1  
    24   10   25 1  
    25   11   26 1  
    26   11   27 1  
@<TRIPOS>SUBSTRUCTURE
     1 ARG         1

