### 
### Created by X-TOOL on Wed Jan  1 15:39:34 2020
### 

@<TRIPOS>MOLECULE
5ltn_ligand
   21    21     1     0     0
SMALL
GAST_HUCK


@<TRIPOS>ATOM
      1 O8        -35.2540  -19.1680    7.1270 O.2       1 XI7        -0.3543
      2 C9        -36.3440  -18.7520    6.8360 C.2       1 XI7         0.1887
      3 C10       -36.9600  -19.2190    5.5800 C.2       1 XI7         0.1273
      4 O11       -36.4120  -20.2080    5.2000 O.co2     1 XI7        -0.5463
      5 O10       -37.8760  -18.7330    4.8520 O.co2     1 XI7        -0.5463
      6 C8        -37.0710  -17.8070    7.7290 C.3       1 XI7         0.1052
      7 C7        -37.2920  -16.5850    6.8960 C.2       1 XI7         0.1513
      8 C1        -37.5930  -15.3070    7.5730 C.ar      1 XI7         0.0350
      9 C6        -37.3660  -15.2010    8.9290 C.ar      1 XI7        -0.0429
     10 C5        -37.6650  -13.9880    9.5150 C.ar      1 XI7        -0.0559
     11 C4        -38.1610  -12.9630    8.7270 C.ar      1 XI7        -0.0572
     12 C3        -38.3810  -13.0850    7.3710 C.ar      1 XI7        -0.0559
     13 C2        -38.0870  -14.2910    6.7790 C.ar      1 XI7        -0.0429
     14 O14       -37.2290  -16.5380    5.6940 O.2       1 XI7        -0.3749
     15 H1        -36.4646  -17.5672    8.6149 H         1 XI7         0.0716
     16 H2        -38.0319  -18.2372    8.0479 H         1 XI7         0.0716
     17 H3        -36.9721  -16.0297    9.5062 H         1 XI7         0.0672
     18 H4        -37.5136  -13.8395   10.5781 H         1 XI7         0.0630
     19 H5        -38.3883  -12.0149    9.2009 H         1 XI7         0.0655
     20 H6        -38.7728  -12.2574    6.7908 H         1 XI7         0.0630
     21 H7        -38.2392  -14.4402    5.7162 H         1 XI7         0.0672
@<TRIPOS>BOND
     1    1    2 2  
     2    2    3 1  
     3    2    6 1  
     4    3    4 ar 
     5    3    5 ar 
     6    6    7 1  
     7    7    8 1  
     8    7   14 2  
     9    8    9 ar 
    10    8   13 ar 
    11    9   10 ar 
    12   10   11 ar 
    13   11   12 ar 
    14   12   13 ar 
    15    6   15 1  
    16    6   16 1  
    17    9   17 1  
    18   10   18 1  
    19   11   19 1  
    20   12   20 1  
    21   13   21 1  
@<TRIPOS>SUBSTRUCTURE
     1 XI7         1

