### 
### Created by X-TOOL on Fri Nov  2 10:58:20 2018
### 

@<TRIPOS>MOLECULE
5lto_ligand
   20    19     1     0     0
SMALL
GAST_HUCK


@<TRIPOS>ATOM
      1 N          47.6040   68.2790   22.8540 N.4       1 GLN         0.2328
      2 CA         46.2750   68.8720   22.8520 C.3       1 GLN         0.0304
      3 C          46.3510   70.3770   22.6250 C.2       1 GLN         0.0846
      4 O          47.1490   70.8510   21.8170 O.co2     1 GLN        -0.5643
      5 CB         45.5510   68.5680   24.1630 C.3       1 GLN         0.0192
      6 CG         46.4480   68.5210   25.3890 C.3       1 GLN         0.0437
      7 CD         45.8770   67.6460   26.4880 C.2       1 GLN         0.1738
      8 OE1        44.8780   66.9550   26.2890 O.2       1 GLN        -0.3973
      9 NE2        46.5010   67.6810   27.6600 N.am      1 GLN        -0.3009
     10 OXT        45.6160   71.1530   23.2350 O.co2     1 GLN        -0.5643
     11 H1         47.5283   67.2853   23.0055 H         1 GLN         0.2010
     12 H2         48.1544   68.6903   23.5915 H         1 GLN         0.2010
     13 H3         48.0498   68.4505   21.9664 H         1 GLN         0.2010
     14 H4         45.6999   68.4268   22.0268 H         1 GLN         0.1026
     15 H5         45.0569   67.5904   24.0626 H         1 GLN         0.0363
     16 H6         44.7920   69.3477   24.3238 H         1 GLN         0.0363
     17 H7         46.5692   69.5428   25.7778 H         1 GLN         0.0505
     18 H8         47.4297   68.1221   25.0938 H         1 GLN         0.0505
     19 H9         46.1677   67.1240   28.4207 H         1 GLN         0.1814
     20 H10        47.3041   68.2644   27.7817 H         1 GLN         0.1814
@<TRIPOS>BOND
     1    1    2 1  
     2    2    3 1  
     3    2    5 1  
     4    3    4 ar 
     5    3   10 ar 
     6    5    6 1  
     7    6    7 1  
     8    7    8 2  
     9    7    9 am 
    10    1   11 1  
    11    1   12 1  
    12    1   13 1  
    13    2   14 1  
    14    5   15 1  
    15    5   16 1  
    16    6   17 1  
    17    6   18 1  
    18    9   19 1  
    19    9   20 1  
@<TRIPOS>SUBSTRUCTURE
     1 GLN         1

