### 
### Created by X-TOOL on Mon Sep 10 21:13:32 2018
### 

@<TRIPOS>MOLECULE
5lud_ligand
   15    15     1     0     0
SMALL
GAST_HUCK


@<TRIPOS>ATOM
      1 N8         -5.7880   22.2860   -8.9390 N.pl3     1 76X        -0.3351
      2 C3         -5.1080   21.2420   -8.4520 C.ar      1 76X         0.0835
      3 C2         -5.6040   19.9220   -8.4180 C.ar      1 76X         0.1289
      4 N7         -6.8150   19.6680   -8.9360 N.pl3     1 76X        -0.3263
      5 C4         -3.8920   21.5040   -7.9300 C.ar      1 76X        -0.0368
      6 C5         -3.1690   20.5070   -7.3600 C.ar      1 76X        -0.0613
      7 C6         -3.6080   19.2250   -7.3820 C.ar      1 76X        -0.0194
      8 N1         -4.8140   18.9100   -7.8980 N.ar      1 76X        -0.3003
      9 H1         -5.3643   23.2248   -8.9327 H         1 76X         0.1705
     10 H2         -6.7353   22.1511   -9.3202 H         1 76X         0.1705
     11 H3         -7.1917   18.7095   -8.9191 H         1 76X         0.1730
     12 H4         -7.3682   20.4315   -9.3507 H         1 76X         0.1730
     13 H5         -3.4924   22.5110   -7.9658 H         1 76X         0.0581
     14 H6         -2.2255   20.7397   -6.8796 H         1 76X         0.0560
     15 H7         -2.9795   18.4395   -6.9782 H         1 76X         0.0656
@<TRIPOS>BOND
     1    1    2 1  
     2    2    3 ar 
     3    2    5 ar 
     4    3    4 1  
     5    3    8 ar 
     6    5    6 ar 
     7    6    7 ar 
     8    7    8 ar 
     9    1    9 1  
    10    1   10 1  
    11    4   11 1  
    12    4   12 1  
    13    5   13 1  
    14    6   14 1  
    15    7   15 1  
@<TRIPOS>SUBSTRUCTURE
     1 76X         1

