### 
### Created by X-TOOL on Mon Sep 10 21:13:27 2018
### 

@<TRIPOS>MOLECULE
5luu_ligand
   36    38     1     0     0
SMALL
GAST_HUCK


@<TRIPOS>ATOM
      1 CAS        31.7020   18.7150    2.1070 C.3       1 77X        -0.0482
      2 CAR        32.1770   18.7950    0.6800 C.3       1 77X         0.0347
      3 CAP        33.2080   17.6900    0.3510 C.2       1 77X         0.1793
      4 OAQ        34.3680   18.0210    0.1290 O.2       1 77X        -0.3968
      5 NAH        32.8460   16.4230    0.1850 N.am      1 77X        -0.2671
      6 CAG        33.8590   15.4510   -0.2800 C.3       1 77X         0.0465
      7 CAF        33.6580   15.2790   -1.8020 C.3       1 77X         0.0251
      8 CAI        31.4450   15.9410    0.2460 C.3       1 77X         0.0507
      9 CAD        31.1760   15.4290   -1.1590 C.2       1 77X        -0.0026
     10 CAC        32.1670   15.1330   -2.0800 C.2       1 77X         0.0683
     11 NAB        31.5610   14.7220   -3.1970 N.pl3     1 77X        -0.2259
     12 NAA        30.3320   14.7260   -3.0120 N.2       1 77X        -0.2300
     13 CAE        29.9790   15.1540   -1.7930 C.2       1 77X         0.0306
     14 CAJ        28.6860   15.2310   -1.2260 C.ar      1 77X        -0.0184
     15 CAK        28.4580   15.0370    0.1490 C.ar      1 77X        -0.0561
     16 CAL        27.1850   15.0300    0.7460 C.ar      1 77X        -0.0628
     17 CAM        26.0810   15.2050   -0.0550 C.ar      1 77X        -0.0631
     18 CAN        26.2930   15.3800   -1.4220 C.ar      1 77X        -0.0628
     19 CAO        27.5580   15.3810   -2.0280 C.ar      1 77X        -0.0561
     20 H1         30.9728   19.5166    2.2962 H         1 77X         0.0254
     21 H2         32.5595   18.8317    2.7860 H         1 77X         0.0254
     22 H3         31.2267   17.7384    2.2810 H         1 77X         0.0254
     23 H4         32.6442   19.7772    0.5155 H         1 77X         0.0500
     24 H5         31.3113   18.6839    0.0105 H         1 77X         0.0500
     25 H6         33.7190   14.4867    0.2304 H         1 77X         0.0547
     26 H7         34.8701   15.8318   -0.0736 H         1 77X         0.0547
     27 H8         34.1894   14.3798   -2.1471 H         1 77X         0.0468
     28 H9         34.0490   16.1613   -2.3299 H         1 77X         0.0468
     29 H10        30.7590   16.7619    0.5018 H         1 77X         0.0592
     30 H11        31.3406   15.1323    0.9843 H         1 77X         0.0592
     31 H12        32.0347   14.4467   -4.0692 H         1 77X         0.2516
     32 H13        29.3192   14.8831    0.7891 H         1 77X         0.0610
     33 H14        27.0761   14.8896    1.8153 H         1 77X         0.0614
     34 H15        25.0804   15.2068    0.3620 H         1 77X         0.0606
     35 H16        25.4258   15.5243   -2.0562 H         1 77X         0.0614
     36 H17        27.6555   15.4965   -3.1014 H         1 77X         0.0610
@<TRIPOS>BOND
     1    1    2 1  
     2    2    3 1  
     3    3    4 2  
     4    3    5 am 
     5    5    6 1  
     6    5    8 1  
     7    6    7 1  
     8    7   10 1  
     9    8    9 1  
    10    9   10 2  
    11    9   13 1  
    12   10   11 1  
    13   11   12 1  
    14   12   13 2  
    15   13   14 1  
    16   14   15 ar 
    17   14   19 ar 
    18   15   16 ar 
    19   16   17 ar 
    20   17   18 ar 
    21   18   19 ar 
    22    1   20 1  
    23    1   21 1  
    24    1   22 1  
    25    2   23 1  
    26    2   24 1  
    27    6   25 1  
    28    6   26 1  
    29    7   27 1  
    30    7   28 1  
    31    8   29 1  
    32    8   30 1  
    33   11   31 1  
    34   15   32 1  
    35   16   33 1  
    36   17   34 1  
    37   18   35 1  
    38   19   36 1  
@<TRIPOS>SUBSTRUCTURE
     1 77X         1

