### 
### Created by X-TOOL on Mon Sep 10 21:13:26 2018
### 

@<TRIPOS>MOLECULE
5lvl_ligand
   25    28     1     0     0
SMALL
GAST_HUCK


@<TRIPOS>ATOM
      1 C1        -14.3780   -7.9830   -9.3630 C.ar      1 537        -0.0582
      2 C2        -13.5780   -7.0370   -8.7460 C.ar      1 537        -0.0463
      3 C3        -14.0670   -5.7800   -8.5110 C.ar      1 537         0.0413
      4 C4        -15.4450   -5.4050   -8.8990 C.ar      1 537         0.0419
      5 C5        -16.1990   -6.3990   -9.5040 C.ar      1 537        -0.0451
      6 C6        -15.6570   -7.6470   -9.7260 C.ar      1 537        -0.0577
      7 C11       -13.8610   -3.4650   -7.6460 C.ar      1 537         0.0522
      8 C12       -12.9290   -2.6010   -6.9800 C.ar      1 537         0.0143
      9 C13       -13.2890   -1.2950   -6.6390 C.ar      1 537        -0.0500
     10 C14       -14.6000   -0.9150   -7.0180 C.ar      1 537        -0.0558
     11 C15       -15.4890   -1.7720   -7.6640 C.ar      1 537        -0.0428
     12 C16       -15.1300   -3.0600   -7.9880 C.ar      1 537         0.0462
     13 C20       -15.9830   -4.0480   -8.6390 C.2       1 537         0.1582
     14 C21       -13.3340   -4.7720   -7.8970 C.2       1 537         0.1439
     15 O22       -17.1520   -3.7150   -8.9890 O.2       1 537        -0.3709
     16 N23       -12.0770   -4.7310   -7.3930 N.pl3     1 537        -0.2282
     17 N24       -11.8700   -3.4420   -6.8150 N.2       1 537        -0.2860
     18 H1        -13.9975   -8.9792   -9.5573 H         1 537         0.0646
     19 H2        -12.5667   -7.2907   -8.4495 H         1 537         0.0634
     20 H3        -17.2202   -6.1937   -9.8041 H         1 537         0.0666
     21 H4        -16.2707   -8.3980  -10.2103 H         1 537         0.0617
     22 H5        -12.6146   -0.6217   -6.1223 H         1 537         0.0657
     23 H6        -14.9283    0.0935   -6.7942 H         1 537         0.0629
     24 H7        -16.4818   -1.4172   -7.9159 H         1 537         0.0669
     25 H8        -11.3895   -5.4974   -7.4219 H         1 537         0.2909
@<TRIPOS>BOND
     1    2    1 ar 
     2    1    6 ar 
     3    3    2 ar 
     4    3    4 ar 
     5   14    3 1  
     6    4    5 ar 
     7    4   13 1  
     8    5    6 ar 
     9    7    8 ar 
    10    7   12 ar 
    11    7   14 2  
    12    8    9 ar 
    13    8   17 2  
    14    9   10 ar 
    15   10   11 ar 
    16   11   12 ar 
    17   12   13 1  
    18   13   15 2  
    19   14   16 1  
    20   16   17 1  
    21    1   18 1  
    22    2   19 1  
    23    5   20 1  
    24    6   21 1  
    25    9   22 1  
    26   10   23 1  
    27   11   24 1  
    28   16   25 1  
@<TRIPOS>SUBSTRUCTURE
     1 537         1

