### 
### Created by X-TOOL on Mon Sep 10 21:13:25 2018
### 

@<TRIPOS>MOLECULE
5lvn_ligand
   32    34     1     0     0
SMALL
GAST_HUCK


@<TRIPOS>ATOM
      1 O5'       -18.2290   20.7890   -9.5900 O.3       1 ADN        -0.3924
      2 C5'       -18.8940   19.9430  -10.5300 C.3       1 ADN         0.0730
      3 C4'       -18.5880   18.4810  -10.2790 C.3       1 ADN         0.1135
      4 O4'       -17.2040   18.1790  -10.6460 O.3       1 ADN        -0.3368
      5 C3'       -18.7010   18.0260   -8.8270 C.3       1 ADN         0.1146
      6 O3'       -20.0430   17.7480   -8.4390 O.3       1 ADN        -0.3864
      7 C2'       -17.7690   16.8160   -8.7790 C.3       1 ADN         0.1385
      8 O2'       -18.3810   15.6550   -9.2980 O.3       1 ADN        -0.3836
      9 C1'       -16.6570   17.2470   -9.7380 C.3       1 ADN         0.2010
     10 N9        -15.5890   17.9030   -8.9750 N.pl3     1 ADN        -0.1919
     11 C8        -15.6120   19.1790   -8.4820 C.2       1 ADN         0.1123
     12 N7        -14.4900   19.3730   -7.8100 N.2       1 ADN        -0.2958
     13 C5        -13.7750   18.2310   -7.9090 C.ar      1 ADN         0.1045
     14 C6        -12.5590   17.9290   -7.4130 C.ar      1 ADN         0.1298
     15 N6        -11.6940   18.7890   -6.6090 N.pl3     1 ADN        -0.3152
     16 N1        -12.0170   16.7240   -7.5770 N.ar      1 ADN        -0.2698
     17 C2        -12.7270   15.8080   -8.2940 C.ar      1 ADN         0.0533
     18 N3        -13.9500   16.1050   -8.8050 N.ar      1 ADN        -0.2714
     19 C4        -14.4550   17.3040   -8.6130 C.ar      1 ADN         0.1613
     20 H1        -18.4422   21.6960   -9.7758 H         1 ADN         0.2095
     21 H2        -18.5628   20.2077  -11.5450 H         1 ADN         0.0584
     22 H3        -19.9795   20.0999  -10.4458 H         1 ADN         0.0584
     23 H4        -19.2779   17.8842  -10.8937 H         1 ADN         0.0647
     24 H5        -18.3180   18.8114   -8.1589 H         1 ADN         0.0648
     25 H6        -20.3937   17.0569   -8.9886 H         1 ADN         0.2100
     26 H7        -17.3969   16.6296   -7.7608 H         1 ADN         0.0676
     27 H8        -17.7708   14.9284   -9.2502 H         1 ADN         0.2101
     28 H9        -16.2576   16.3751  -10.2767 H         1 ADN         0.0996
     29 H10       -16.4118   19.9053   -8.6187 H         1 ADN         0.1349
     30 H11       -10.7794   18.4422   -6.2862 H         1 ADN         0.1820
     31 H12       -11.9987   19.7422   -6.3649 H         1 ADN         0.1820
     32 H13       -12.3072   14.8224   -8.4599 H         1 ADN         0.0996
@<TRIPOS>BOND
     1    1    2 1  
     2    2    3 1  
     3    3    4 1  
     4    3    5 1  
     5    4    9 1  
     6    5    6 1  
     7    5    7 1  
     8    7    8 1  
     9    7    9 1  
    10    9   10 1  
    11   10   11 1  
    12   10   19 1  
    13   11   12 2  
    14   12   13 1  
    15   13   14 ar 
    16   13   19 ar 
    17   14   15 1  
    18   14   16 ar 
    19   16   17 ar 
    20   17   18 ar 
    21   18   19 ar 
    22    1   20 1  
    23    2   21 1  
    24    2   22 1  
    25    3   23 1  
    26    5   24 1  
    27    6   25 1  
    28    7   26 1  
    29    8   27 1  
    30    9   28 1  
    31   11   29 1  
    32   15   30 1  
    33   15   31 1  
    34   17   32 1  
@<TRIPOS>SUBSTRUCTURE
     1 ADN         1

