### 
### Created by X-TOOL on Mon Sep 10 21:13:27 2018
### 

@<TRIPOS>MOLECULE
5lvq_ligand
   34    35     1     0     0
SMALL
GAST_HUCK


@<TRIPOS>ATOM
      1 C01        22.2200    3.9050   55.9270 C.3       1 2LX         0.0188
      2 N02        21.7180    2.5420   55.9760 N.am      1 2LX        -0.2911
      3 C03        21.7090    1.8350   57.1070 C.2       1 2LX         0.1990
      4 C04        21.0980    0.4530   57.0810 C.ar      1 2LX         0.0783
      5 C05        21.1910   -0.2600   58.2810 C.ar      1 2LX        -0.0503
      6 C06        20.8110   -1.5970   58.3590 C.ar      1 2LX        -0.0671
      7 C07        20.3170   -2.2560   57.2420 C.ar      1 2LX        -0.0661
      8 C08        20.1670   -1.5790   56.0430 C.ar      1 2LX        -0.0267
      9 C09        20.5290   -0.2170   55.9670 C.ar      1 2LX         0.1131
     10 O10        20.2520    0.5740   54.8690 O.3       1 2LX        -0.3092
     11 C11        20.0470   -0.0900   53.5790 C.3       1 2LX         0.0871
     12 C12        21.3890   -0.1670   52.8920 C.3       1 2LX         0.0017
     13 C13        21.2170   -0.7220   51.4930 C.3       1 2LX         0.0504
     14 O14        20.3200    0.0690   50.7290 O.3       1 2LX        -0.3796
     15 C15        19.0330    0.1230   51.3810 C.3       1 2LX         0.0504
     16 C16        19.0490    0.7190   52.7740 C.3       1 2LX         0.0017
     17 O17        22.1500    2.3100   58.1560 O.2       1 2LX        -0.3909
     18 H1         22.1321    4.2914   54.9009 H         1 2LX         0.0483
     19 H2         23.2760    3.9181   56.2345 H         1 2LX         0.0483
     20 H3         21.6318    4.5372   56.6084 H         1 2LX         0.0483
     21 H4         21.3694    2.1223   55.1379 H         1 2LX         0.1837
     22 H5         21.5663    0.2383   59.1675 H         1 2LX         0.0640
     23 H6         20.9017   -2.1277   59.2999 H         1 2LX         0.0536
     24 H7         20.0477   -3.3039   57.3081 H         1 2LX         0.0625
     25 H8         19.7753   -2.0905   55.1712 H         1 2LX         0.0555
     26 H9         19.6532   -1.1055   53.7326 H         1 2LX         0.0655
     27 H10        22.0565   -0.8258   53.4668 H         1 2LX         0.0316
     28 H11        21.8282    0.8399   52.8342 H         1 2LX         0.0316
     29 H12        20.8223   -1.7465   51.5604 H         1 2LX         0.0561
     30 H13        22.1959   -0.7383   50.9915 H         1 2LX         0.0561
     31 H14        18.6427   -0.9029   51.4526 H         1 2LX         0.0561
     32 H15        18.3591    0.7290   50.7576 H         1 2LX         0.0561
     33 H16        19.3604    1.7732   52.7323 H         1 2LX         0.0316
     34 H17        18.0496    0.6495   53.2281 H         1 2LX         0.0316
@<TRIPOS>BOND
     1    1    2 1  
     2    2    3 am 
     3    3    4 1  
     4    3   17 2  
     5    4    5 ar 
     6    4    9 ar 
     7    5    6 ar 
     8    6    7 ar 
     9    7    8 ar 
    10    8    9 ar 
    11    9   10 1  
    12   10   11 1  
    13   11   12 1  
    14   11   16 1  
    15   12   13 1  
    16   13   14 1  
    17   14   15 1  
    18   15   16 1  
    19    1   18 1  
    20    1   19 1  
    21    1   20 1  
    22    2   21 1  
    23    5   22 1  
    24    6   23 1  
    25    7   24 1  
    26    8   25 1  
    27   11   26 1  
    28   12   27 1  
    29   12   28 1  
    30   13   29 1  
    31   13   30 1  
    32   15   31 1  
    33   15   32 1  
    34   16   33 1  
    35   16   34 1  
@<TRIPOS>SUBSTRUCTURE
     1 2LX         1

