### 
### Created by X-TOOL on Mon Sep 10 21:13:27 2018
### 

@<TRIPOS>MOLECULE
5lvr_ligand
   25    26     1     0     0
SMALL
GAST_HUCK


@<TRIPOS>ATOM
      1 C4        -10.8700   17.7750   80.0430 C.ar      1 78Y         0.1329
      2 C5        -11.7930   16.7410   80.1720 C.ar      1 78Y        -0.0225
      3 C6        -12.1890   16.3350   81.4370 C.ar      1 78Y        -0.0650
      4 N1         -9.6640   19.2660   78.5750 N.2       1 78Y        -0.1388
      5 C7        -11.6750   16.9520   82.5640 C.ar      1 78Y        -0.0680
      6 C8        -10.7480   17.9710   82.4320 C.ar      1 78Y        -0.0650
      7 N2        -10.5520   18.2850   78.7480 N.pl3     1 78Y        -0.0831
      8 C9        -10.3340   18.3830   81.1760 C.ar      1 78Y        -0.0225
      9 N3        -11.1680   17.8490   77.6360 N.2       1 78Y        -0.1671
     10 O          -8.8680   20.5860   75.3910 O.2       1 78Y        -0.3872
     11 C          -8.8340   20.4540   76.6080 C.2       1 78Y         0.2127
     12 N          -8.0240   21.1340   77.3970 N.am      1 78Y        -0.3002
     13 C1         -9.6810   19.4970   77.2600 C.2       1 78Y         0.1527
     14 C2        -10.6320   18.6060   76.6920 C.2       1 78Y         0.0663
     15 C3        -11.0270   18.4410   75.2620 C.3       1 78Y        -0.0188
     16 H1        -12.1987   16.2574   79.2908 H         1 78Y         0.0593
     17 H2        -12.9059   15.5290   81.5440 H         1 78Y         0.0602
     18 H3        -11.9983   16.6373   83.5496 H         1 78Y         0.0563
     19 H4        -10.3435   18.4495   83.3166 H         1 78Y         0.0602
     20 H5         -9.5983   19.1728   81.0754 H         1 78Y         0.0593
     21 H6         -8.0435   20.9810   78.3850 H         1 78Y         0.1807
     22 H7         -7.3906   21.8023   77.0069 H         1 78Y         0.1807
     23 H8        -10.4707   19.1600   74.6427 H         1 78Y         0.0390
     24 H9        -12.1065   18.6242   75.1563 H         1 78Y         0.0390
     25 H10       -10.7948   17.4173   74.9332 H         1 78Y         0.0390
@<TRIPOS>BOND
     1    1    2 ar 
     2    7    1 1  
     3    1    8 ar 
     4    2    3 ar 
     5    3    5 ar 
     6    4    7 1  
     7   13    4 2  
     8    6    5 ar 
     9    8    6 ar 
    10    7    9 1  
    11    9   14 2  
    12   11   10 2  
    13   11   12 am 
    14   11   13 1  
    15   13   14 1  
    16   14   15 1  
    17    2   16 1  
    18    3   17 1  
    19    5   18 1  
    20    6   19 1  
    21    8   20 1  
    22   12   21 1  
    23   12   22 1  
    24   15   23 1  
    25   15   24 1  
    26   15   25 1  
@<TRIPOS>SUBSTRUCTURE
     1 78Y         1

