### 
### Created by X-TOOL on Wed Jan  1 15:39:34 2020
### 

@<TRIPOS>MOLECULE
5lvx_ligand
   72    76     1     0     0
SMALL
GAST_HUCK


@<TRIPOS>ATOM
      1 C2         -0.7130  -28.5360  -24.2180 C.2       1 79B         0.0991
      2 C3         -0.6900  -27.1000  -23.7120 C.3       1 79B         0.0189
      3 C4          0.6760  -26.5830  -23.2780 C.3       1 79B        -0.0373
      4 C5          0.9980  -27.0160  -21.8490 C.3       1 79B        -0.0509
      5 C6          1.8160  -28.2950  -21.8370 C.3       1 79B        -0.0529
      6 C7          1.3080  -29.2870  -20.8070 C.3       1 79B        -0.0530
      7 C8          2.3190  -30.4210  -20.7780 C.3       1 79B        -0.0522
      8 C11         1.7450  -33.4070  -21.4060 C.1       1 79B        -0.1007
      9 C12         1.2170  -33.7670  -22.4120 C.1       1 79B        -0.0738
     10 C15        -0.6680  -36.3690  -24.0110 C.ar      1 79B        -0.0648
     11 C16        -0.5820  -35.9550  -25.3200 C.ar      1 79B        -0.0376
     12 C17        -1.1630  -36.6550  -26.4960 C.3       1 79B         0.0047
     13 C18        -0.3400  -36.0620  -27.6430 C.3       1 79B         0.0613
     14 C19         0.0570  -34.6530  -27.1640 C.3       1 79B         0.0044
     15 C21         0.7380  -34.0540  -24.7140 C.ar      1 79B        -0.0511
     16 N22        -1.1460  -36.0960  -28.8970 N.pl3     1 79B        -0.2863
     17 C23        -0.5200  -36.6530  -30.0180 C.ar      1 79B         0.1428
     18 C27        -0.5520  -37.3580  -32.3060 C.ar      1 79B         0.0435
     19 C30        -3.2170  -36.5620  -32.6210 C.ar      1 79B        -0.0545
     20 C31        -2.5720  -36.4060  -31.3930 C.ar      1 79B        -0.0401
     21 C32        -1.2280  -36.7930  -31.2220 C.ar      1 79B         0.0543
     22 C33         2.8260  -37.9980  -30.9290 C.ar      1 79B         0.0428
     23 C34         3.3710  -38.9210  -31.8220 C.ar      1 79B        -0.0274
     24 C35         4.7200  -39.2030  -31.7570 C.ar      1 79B        -0.0296
     25 C36         5.5160  -38.5480  -30.8200 C.ar      1 79B         0.0146
     26 C38         3.6670  -37.3470  -30.0300 C.ar      1 79B         0.0266
     27 O1          0.0990  -28.9180  -25.0460 O.2       1 79B        -0.3749
     28 C9          1.8840  -31.5240  -19.8420 C.3       1 79B        -0.0424
     29 C10         2.4580  -32.8670  -20.2360 C.3       1 79B         0.0082
     30 C13         0.6410  -34.4440  -23.3640 C.ar      1 79B         0.0116
     31 C20         0.1040  -34.8380  -25.6760 C.ar      1 79B        -0.0368
     32 C14        -0.0490  -35.6080  -23.0260 C.ar      1 79B        -0.0594
     33 C29        -2.5100  -37.1190  -33.7010 C.ar      1 79B        -0.0555
     34 C28        -1.1880  -37.5220  -33.5410 C.ar      1 79B        -0.0403
     35 N26         0.7300  -37.7360  -32.1700 N.ar      1 79B        -0.2891
     36 C25         1.3960  -37.6090  -30.9970 C.ar      1 79B         0.1053
     37 N24         0.7740  -37.0560  -29.9470 N.ar      1 79B        -0.2500
     38 N37         4.9830  -37.6390  -29.9890 N.ar      1 79B        -0.2915
     39 H1         -1.4614  -29.2295  -23.8374 H         1 79B         0.1348
     40 H2         -1.3683  -27.0332  -22.8486 H         1 79B         0.0493
     41 H3         -1.0585  -26.4496  -24.5190 H         1 79B         0.0493
     42 H4          0.6775  -25.4842  -23.3296 H         1 79B         0.0290
     43 H5          1.4439  -26.9830  -23.9564 H         1 79B         0.0290
     44 H6          0.0575  -27.1859  -21.3045 H         1 79B         0.0267
     45 H7          1.5704  -26.2188  -21.3523 H         1 79B         0.0267
     46 H8          2.8616  -28.0454  -21.6036 H         1 79B         0.0265
     47 H9          1.7633  -28.7593  -22.8328 H         1 79B         0.0265
     48 H10         0.3175  -29.6663  -21.0986 H         1 79B         0.0265
     49 H11         1.2414  -28.8099  -19.8181 H         1 79B         0.0265
     50 H12         3.2890  -30.0271  -20.4404 H         1 79B         0.0266
     51 H13         2.4236  -30.8332  -21.7925 H         1 79B         0.0266
     52 H14        -1.2086  -37.2722  -23.7523 H         1 79B         0.0541
     53 H15        -2.2332  -36.4278  -26.6103 H         1 79B         0.0439
     54 H16        -1.0250  -37.7439  -26.4238 H         1 79B         0.0439
     55 H17         0.5714  -36.6565  -27.8037 H         1 79B         0.0612
     56 H18        -0.6966  -33.9050  -27.4512 H         1 79B         0.0436
     57 H19         1.0385  -34.3562  -27.5621 H         1 79B         0.0436
     58 H20         1.2919  -33.1664  -24.9975 H         1 79B         0.0549
     59 H21        -2.1082  -35.7306  -28.9360 H         1 79B         0.1918
     60 H22        -4.2504  -36.2574  -32.7405 H         1 79B         0.0626
     61 H23        -3.1143  -35.9799  -30.5567 H         1 79B         0.0687
     62 H24         2.7427  -39.4103  -32.5574 H         1 79B         0.0777
     63 H25         5.1580  -39.9301  -32.4312 H         1 79B         0.0719
     64 H26         6.5745  -38.7744  -30.7617 H         1 79B         0.0850
     65 H27         3.2607  -36.5998  -29.3580 H         1 79B         0.0869
     66 H28         0.7861  -31.5896  -19.8578 H         1 79B         0.0274
     67 H29         2.2221  -31.2790  -18.8243 H         1 79B         0.0274
     68 H30         3.5229  -32.7472  -20.4841 H         1 79B         0.0394
     69 H31         2.3542  -33.5667  -19.3936 H         1 79B         0.0394
     70 H32        -0.1029  -35.9210  -21.9896 H         1 79B         0.0558
     71 H33        -2.9970  -37.2350  -34.6625 H         1 79B         0.0674
     72 H34        -0.6511  -37.9629  -34.3731 H         1 79B         0.0627
@<TRIPOS>BOND
     1    2    1 1  
     2    1   27 2  
     3    3    2 1  
     4    4    3 1  
     5    5    4 1  
     6    6    5 1  
     7    7    6 1  
     8   28    7 1  
     9    9    8 3  
    10    8   29 1  
    11   30    9 1  
    12   11   10 ar 
    13   10   32 ar 
    14   12   11 1  
    15   31   11 ar 
    16   13   12 1  
    17   13   14 1  
    18   16   13 1  
    19   14   31 1  
    20   15   30 ar 
    21   31   15 ar 
    22   17   16 1  
    23   21   17 ar 
    24   17   37 ar 
    25   18   21 ar 
    26   18   34 ar 
    27   35   18 ar 
    28   20   19 ar 
    29   33   19 ar 
    30   21   20 ar 
    31   22   23 ar 
    32   22   26 ar 
    33   36   22 1  
    34   23   24 ar 
    35   24   25 ar 
    36   38   25 ar 
    37   26   38 ar 
    38   29   28 1  
    39   30   32 ar 
    40   34   33 ar 
    41   35   36 ar 
    42   36   37 ar 
    43    1   39 1  
    44    2   40 1  
    45    2   41 1  
    46    3   42 1  
    47    3   43 1  
    48    4   44 1  
    49    4   45 1  
    50    5   46 1  
    51    5   47 1  
    52    6   48 1  
    53    6   49 1  
    54    7   50 1  
    55    7   51 1  
    56   10   52 1  
    57   12   53 1  
    58   12   54 1  
    59   13   55 1  
    60   14   56 1  
    61   14   57 1  
    62   15   58 1  
    63   16   59 1  
    64   19   60 1  
    65   20   61 1  
    66   23   62 1  
    67   24   63 1  
    68   25   64 1  
    69   26   65 1  
    70   28   66 1  
    71   28   67 1  
    72   29   68 1  
    73   29   69 1  
    74   32   70 1  
    75   33   71 1  
    76   34   72 1  
@<TRIPOS>SUBSTRUCTURE
     1 79B         1

