### 
### Created by X-TOOL on Mon Sep 10 21:13:26 2018
### 

@<TRIPOS>MOLECULE
5lwm_ligand
   58    62     1     0     0
SMALL
GAST_HUCK


@<TRIPOS>ATOM
      1 C4         40.9140   23.1440   53.7500 C.ar      1 79T        -0.0068
      2 C5         37.1580   22.6460   55.5120 C.2       1 79T        -0.0607
      3 C6         37.5420   21.5810   56.2560 C.2       1 79T         0.0214
      4 N1         38.8690   21.2990   56.0160 N.pl3     1 79T        -0.2739
      5 C7         38.9640   25.5610   52.1680 C.2       1 79T         0.1583
      6 C8         38.8020   26.5890   51.1690 C.2       1 79T         0.1606
      7 N2         38.0080   25.0270   53.0020 N.pl3     1 79T        -0.2329
      8 C9         39.5770   27.6450   50.8490 C.2       1 79T        -0.0531
      9 C10        38.9180   28.3480   49.8160 C.2       1 79T        -0.0519
     10 C11        37.7880   27.6800   49.5370 C.2       1 79T         0.1135
     11 C12        36.7930   28.0610   48.6150 C.3       1 79T         0.0615
     12 N3         40.1550   25.0220   52.3210 N.2       1 79T        -0.3189
     13 C13        36.4250   29.1970   47.9910 C.3       1 79T         0.1854
     14 C14        36.6130   30.5330   48.6470 C.2       1 79T         0.2097
     15 C15        37.2420   32.8770   48.5990 C.3       1 79T         0.0223
     16 N4         37.2210   31.5340   47.9990 N.am      1 79T        -0.2772
     17 N5         35.3950   28.9940   45.6520 N.1       1 79T        -0.3003
     18 C17        35.8500   29.1090   46.6900 C.1       1 79T         0.1176
     19 O1         36.1240   30.6840   49.7550 O.2       1 79T        -0.3940
     20 C16        37.9680   31.4520   46.7400 C.3       1 79T         0.0223
     21 O          37.6830   26.5730   50.3500 O.3       1 79T        -0.2475
     22 C          39.9830   24.0560   53.2760 C.ar      1 79T         0.0364
     23 N          40.6410   22.1770   54.6110 N.ar      1 79T        -0.3042
     24 C1         38.6460   24.0110   53.7600 C.ar      1 79T         0.0888
     25 C2         38.3120   23.0420   54.7380 C.ar      1 79T         0.0205
     26 C3         39.3690   22.1690   55.1000 C.ar      1 79T         0.1204
     27 C18        36.5910   25.4200   53.0870 C.3       1 79T         0.0667
     28 C20        36.2290   25.9990   54.4440 C.3       1 79T        -0.0234
     29 C21        34.7520   26.3950   54.4760 C.3       1 79T        -0.0504
     30 C22        33.8590   25.2450   54.0910 C.3       1 79T        -0.0529
     31 C23        34.2100   24.7340   52.7090 C.3       1 79T        -0.0504
     32 C19        35.6690   24.2930   52.6520 C.3       1 79T        -0.0234
     33 H1         41.9334   23.2290   53.3912 H         1 79T         0.0693
     34 H2         36.1737   23.1118   55.4997 H         1 79T         0.0295
     35 H3         36.8985   21.0306   56.9408 H         1 79T         0.0916
     36 H4         39.4029   20.5409   56.4645 H         1 79T         0.2284
     37 H5         40.5320   27.9069   51.3020 H         1 79T         0.0429
     38 H6         39.2629   29.2623   49.3353 H         1 79T         0.0287
     39 H7         35.8676   27.7646   49.1306 H         1 79T         0.0536
     40 H8         36.9781   27.3784   47.7725 H         1 79T         0.0536
     41 H9         37.4278   29.2794   47.5465 H         1 79T         0.0865
     42 H10        37.7799   33.5677   47.9330 H         1 79T         0.0486
     43 H11        37.7514   32.8355   49.5730 H         1 79T         0.0486
     44 H12        36.2104   33.2320   48.7395 H         1 79T         0.0486
     45 H13        37.9122   30.4262   46.3467 H         1 79T         0.0486
     46 H14        39.0199   31.7190   46.9196 H         1 79T         0.0486
     47 H15        37.5324   32.1491   46.0091 H         1 79T         0.0486
     48 H16        36.4492   26.2331   52.3598 H         1 79T         0.0638
     49 H17        36.8472   26.8884   54.6355 H         1 79T         0.0294
     50 H18        36.4194   25.2455   55.2224 H         1 79T         0.0294
     51 H19        34.5897   27.2239   53.7713 H         1 79T         0.0266
     52 H20        34.4926   26.7227   55.4935 H         1 79T         0.0266
     53 H21        32.8123   25.5832   54.0958 H         1 79T         0.0265
     54 H22        33.9846   24.4306   54.8197 H         1 79T         0.0265
     55 H23        34.0465   25.5367   51.9749 H         1 79T         0.0266
     56 H24        33.5641   23.8774   52.4658 H         1 79T         0.0266
     57 H25        35.8117   23.4317   53.3211 H         1 79T         0.0294
     58 H26        35.9175   24.0014   51.6209 H         1 79T         0.0294
@<TRIPOS>BOND
     1    1   22 ar 
     2   23    1 ar 
     3    3    2 2  
     4    2   25 1  
     5    4    3 1  
     6   26    4 1  
     7    5    6 1  
     8    7    5 1  
     9   12    5 2  
    10    6    8 2  
    11    6   21 1  
    12   24    7 1  
    13    7   27 1  
    14    8    9 1  
    15   10    9 2  
    16   10   11 1  
    17   21   10 1  
    18   11   13 1  
    19   22   12 1  
    20   13   14 1  
    21   13   18 1  
    22   14   16 am 
    23   14   19 2  
    24   16   15 1  
    25   16   20 1  
    26   18   17 3  
    27   22   24 ar 
    28   23   26 ar 
    29   24   25 ar 
    30   25   26 ar 
    31   27   28 1  
    32   27   32 1  
    33   28   29 1  
    34   29   30 1  
    35   30   31 1  
    36   31   32 1  
    37    1   33 1  
    38    2   34 1  
    39    3   35 1  
    40    4   36 1  
    41    8   37 1  
    42    9   38 1  
    43   11   39 1  
    44   11   40 1  
    45   13   41 1  
    46   15   42 1  
    47   15   43 1  
    48   15   44 1  
    49   20   45 1  
    50   20   46 1  
    51   20   47 1  
    52   27   48 1  
    53   28   49 1  
    54   28   50 1  
    55   29   51 1  
    56   29   52 1  
    57   30   53 1  
    58   30   54 1  
    59   31   55 1  
    60   31   56 1  
    61   32   57 1  
    62   32   58 1  
@<TRIPOS>SUBSTRUCTURE
     1 79T         1

