#	Name:			5lwn_ligand
#	Creating user name:	wangrx
#	Creation time:		Thu Aug  5 17:04:57 2021

#	Modifying user name:	wangrx
#	Modification time:	Thu Aug  5 17:05:42 2021

@<TRIPOS>MOLECULE
5lwn_ligand
   59    63     1     0     0
SMALL
GAST_HUCK


@<TRIPOS>ATOM
      1 C1         16.1810   23.3560   26.9250 C.3       1 79R        -0.0141 
      2 C2         14.7090   23.5070   27.2960 C.3       1 79R        -0.0477 
      3 C3         14.2140   24.9340   27.1130 C.3       1 79R        -0.0526 
      4 C4         15.0870   25.9300   27.8550 C.3       1 79R        -0.0503 
      5 C5         16.5470   25.8100   27.4200 C.3       1 79R        -0.0229 
      6 C6         17.0110   24.3880   27.6830 C.3       1 79R         0.0706 
      7 C7         19.1420   23.1440   28.1240 C.ar      1 79R         0.0950 
      8 C8         18.8550   22.1410   29.0660 C.ar      1 79R         0.0237 
      9 C9         17.7220   21.6820   29.8280 C.2       1 79R        -0.0596 
     10 C12        21.4260   22.3200   27.9910 C.ar      1 79R        -0.0019 
     11 C14        19.3310   24.7210   26.5850 C.2       1 79R         0.1849 
     12 C15        19.1270   25.8410   25.6960 C.2       1 79R         0.1890 
     13 C18        18.2040   26.9060   23.9970 C.2       1 79R         0.1504 
     14 O          16.3520   29.4340   24.3920 O.2       1 79R        -0.3953 
     15 C22        16.7090   29.4740   23.2230 C.2       1 79R         0.2104 
     16 N5         17.0270   30.6260   22.6360 N.am      1 79R        -0.2813 
     17 C24        17.5220   30.7470   21.2690 C.3       1 79R         0.0211 
     18 C23        16.9020   31.8750   23.3820 C.3       1 79R         0.0211 
     19 C20        16.7180   28.2080   22.4220 C.2       1 79R         0.1510 
     20 C21        16.2370   28.2300   21.0750 C.1       1 79R         0.0723 
     21 N4         15.8800   28.2840   19.9910 N.1       1 79R        -0.3643 
     22 C19        17.2720   27.1010   22.9510 C.2       1 79R         0.0296 
     23 C17        19.1300   27.7370   24.5370 C.2       1 79R        -0.0220 
     24 C16        19.7310   27.0520   25.6080 C.2       1 79R        -0.0176 
     25 O1         18.1740   25.7260   24.7000 O.3       1 79R        -0.2307 
     26 N          18.4470   24.1370   27.4640 N.pl3     1 79R        -0.2261 
     27 C          16.3680   23.4210   25.4160 C.3       1 79R        -0.0597 
     28 N3         20.5380   24.1880   26.6400 N.2       1 79R        -0.2991 
     29 C13        20.4340   23.2020   27.6000 C.ar      1 79R         0.0492 
     30 N2         21.1980   21.3420   28.8650 N.ar      1 79R        -0.3011 
     31 C11        19.9430   21.2780   29.3740 C.ar      1 79R         0.1228 
     32 N1         19.4710   20.3620   30.2660 N.pl3     1 79R        -0.2729 
     33 C10        18.1420   20.6030   30.5300 C.2       1 79R         0.0222 
     34 H1         16.5134   22.3598   27.2523 H         1 79R         0.0327 
     35 H2         14.5777   23.2189   28.3494 H         1 79R         0.0269 
     36 H3         14.1122   22.8402   26.6563 H         1 79R         0.0269 
     37 H4         13.1855   25.0066   27.4962 H         1 79R         0.0265 
     38 H5         14.2242   25.1803   26.0410 H         1 79R         0.0265 
     39 H6         15.0165   25.7351   28.9353 H         1 79R         0.0266 
     40 H7         14.7310   26.9488   27.6421 H         1 79R         0.0266 
     41 H8         17.1651   26.5147   27.9955 H         1 79R         0.0294 
     42 H9         16.6347   26.0368   26.3472 H         1 79R         0.0294 
     43 H10        16.8316   24.2122   28.7539 H         1 79R         0.0644 
     44 H11        16.7238   22.1173   29.8376 H         1 79R         0.0299 
     45 H12        22.4200   22.4288   27.5725 H         1 79R         0.0713 
     46 H13        17.7053   31.8067   21.0379 H         1 79R         0.0484 
     47 H14        16.7736   30.3437   20.5710 H         1 79R         0.0484 
     48 H15        18.4603   30.1820   21.1674 H         1 79R         0.0484 
     49 H16        16.5225   31.6622   24.3923 H         1 79R         0.0484 
     50 H17        16.2021   32.5448   22.8610 H         1 79R         0.0484 
     51 H18        17.8872   32.3588   23.4548 H         1 79R         0.0484 
     52 H19        16.9378   26.1763   22.4828 H         1 79R         0.0956 
     53 H20        19.3644   28.7468   24.2033 H         1 79R         0.0593 
     54 H21        20.5309   27.4240   26.2465 H         1 79R         0.0523 
     55 H22        15.7434   22.6534   24.9358 H         1 79R         0.0233 
     56 H23        17.4247   23.2408   25.1694 H         1 79R         0.0233 
     57 H24        16.0710   24.4157   25.0522 H         1 79R         0.0233 
     58 H25        20.0272   19.6012   30.6815 H         1 79R         0.2291 
     59 H26        17.5209   20.0138   31.2030 H         1 79R         0.0918 
@<TRIPOS>BOND
     1    1    2 1    
     2    6    1 1    
     3    1   27 1    
     4    2    3 1    
     5    4    3 1    
     6    5    4 1    
     7    6    5 1    
     8   26    6 1    
     9    7    8 ar   
    10   26    7 1    
    11    7   29 ar   
    12    8    9 1    
    13    8   31 ar   
    14    9   33 2    
    15   29   10 ar   
    16   10   30 ar   
    17   12   11 1    
    18   11   26 1    
    19   11   28 2    
    20   12   24 2    
    21   25   12 1    
    22   22   13 1    
    23   13   23 2    
    24   13   25 1    
    25   15   14 2    
    26   15   16 am   
    27   19   15 1    
    28   16   17 1    
    29   16   18 1    
    30   19   20 1    
    31   19   22 2    
    32   20   21 3    
    33   23   24 1    
    34   28   29 1    
    35   30   31 ar   
    36   31   32 1    
    37   32   33 1    
    38    1   34 1    
    39    2   35 1    
    40    2   36 1    
    41    3   37 1    
    42    3   38 1    
    43    4   39 1    
    44    4   40 1    
    45    5   41 1    
    46    5   42 1    
    47    6   43 1    
    48    9   44 1    
    49   10   45 1    
    50   17   46 1    
    51   17   47 1    
    52   17   48 1    
    53   18   49 1    
    54   18   50 1    
    55   18   51 1    
    56   22   52 1    
    57   23   53 1    
    58   24   54 1    
    59   27   55 1    
    60   27   56 1    
    61   27   57 1    
    62   32   58 1    
    63   33   59 1    
@<TRIPOS>SUBSTRUCTURE
     1 79R         1 PERM              0 ****  ****    0 ROOT 
