### 
### Created by X-TOOL on Mon Sep 10 21:13:30 2018
### 

@<TRIPOS>MOLECULE
5lws_ligand
   67    72     1     0     0
SMALL
GAST_HUCK


@<TRIPOS>ATOM
      1 N          -3.4880    4.1690    5.3790 N.2       1 7B2        -0.2892
      2 C          -2.2640    9.9220    7.0030 C.3       1 7B2        -0.0070
      3 O          -0.6470    5.8220    7.2160 O.2       1 7B2        -0.3879
      4 CL         -7.2020   -3.5040    8.1220 Cl        1 7B2        -0.0167
      5 N2         -4.9450   -0.7610    6.5920 N.2       1 7B2        -0.2782
      6 C18        -6.6380   -2.2280    7.1180 C.2       1 7B2         0.1674
      7 C17        -7.5230   -1.6880    6.1120 C.2       1 7B2         0.1163
      8 C15        -8.7820   -1.9470    5.6010 C.2       1 7B2         0.1518
      9 C16        -9.7680   -3.0070    5.9480 C.3       1 7B2         0.0364
     10 N3         -9.0220   -1.0040    4.6100 N.pl3     1 7B2        -0.1706
     11 C14       -10.2840   -0.9340    3.8500 C.3       1 7B2         0.0699
     12 C12        -7.9600   -0.1810    4.4760 C.2       1 7B2         0.1521
     13 C13        -7.7890    0.9090    3.4760 C.3       1 7B2         0.0368
     14 C11        -6.9720   -0.6030    5.3640 C.2       1 7B2         0.1015
     15 C10        -5.7610   -0.1620    5.7080 C.2       1 7B2         0.0474
     16 N4         -5.4260   -1.8160    7.3260 N.2       1 7B2        -0.1985
     17 C9         -3.5560   -0.4310    6.8700 C.3       1 7B2         0.0801
     18 C8         -3.4580    0.4420    8.0790 C.2       1 7B2         0.0748
     19 N5         -3.4230   -0.0050    9.3830 N.pl3     1 7B2        -0.2595
     20 C19        -3.5270   -1.3910    9.8470 C.3       1 7B2         0.0462
     21 C20        -3.2820    1.0870   10.2290 C.2       1 7B2         0.0555
     22 C21        -3.1720    0.9320   11.7060 C.3       1 7B2        -0.0082
     23 C22        -3.2430    2.2310    9.4570 C.2       1 7B2        -0.0038
     24 C7         -3.3570    1.8130    8.0800 C.2       1 7B2         0.0261
     25 C23        -3.1700    3.6140    9.7530 C.2       1 7B2         0.0209
     26 N6         -3.2270    4.5570    8.8740 N.2       1 7B2        -0.1810
     27 N7         -3.3280    4.1300    7.5740 N.pl3     1 7B2        -0.1342
     28 C6         -3.3810    2.8350    7.1060 C.2       1 7B2         0.1470
     29 N1         -3.4780    2.8530    5.7820 N.2       1 7B2        -0.2913
     30 C5         -3.4110    4.9350    6.4620 C.2       1 7B2         0.1460
     31 C4         -3.4920    6.4120    6.5020 C.2       1 7B2         0.0214
     32 C2         -2.4230    7.3150    6.8700 C.2       1 7B2         0.0141
     33 C3         -1.0860    6.9490    7.2590 C.2       1 7B2         0.0889
     34 C24        -4.5910    7.1740    6.1640 C.2       1 7B2         0.0557
     35 C25        -5.9400    6.7720    5.6810 C.3       1 7B2        -0.0080
     36 N8         -4.2250    8.5020    6.3180 N.pl3     1 7B2        -0.2582
     37 C26        -5.0940    9.6370    6.0070 C.3       1 7B2         0.0463
     38 C1         -2.9140    8.6050    6.7490 C.2       1 7B2         0.0565
     39 H1         -1.2280    9.7614    7.3359 H         1 7B2         0.0423
     40 H2         -2.8206   10.4611    7.7838 H         1 7B2         0.0423
     41 H3         -2.2637   10.5155    6.0768 H         1 7B2         0.0423
     42 H4         -9.3633   -3.6337    6.7564 H         1 7B2         0.0621
     43 H5         -9.9626   -3.6306    5.0630 H         1 7B2         0.0621
     44 H6        -10.7066   -2.5399    6.2811 H         1 7B2         0.0621
     45 H7        -10.9573   -1.7379    4.1824 H         1 7B2         0.0615
     46 H8        -10.0730   -1.0528    2.7770 H         1 7B2         0.0615
     47 H9        -10.7631    0.0408    4.0238 H         1 7B2         0.0615
     48 H10        -6.8143    1.3958    3.6274 H         1 7B2         0.0623
     49 H11        -8.5923    1.6501    3.6004 H         1 7B2         0.0623
     50 H12        -7.8340    0.4863    2.4615 H         1 7B2         0.0623
     51 H13        -5.4065    0.7534    5.2365 H         1 7B2         0.1107
     52 H14        -3.1296    0.0987    6.0054 H         1 7B2         0.0631
     53 H15        -2.9917   -1.3586    7.0465 H         1 7B2         0.0631
     54 H16        -3.6304   -2.0609    8.9807 H         1 7B2         0.0587
     55 H17        -4.4077   -1.4947   10.4978 H         1 7B2         0.0587
     56 H18        -2.6210   -1.6579   10.4107 H         1 7B2         0.0587
     57 H19        -3.0686    1.9231   12.1720 H         1 7B2         0.0416
     58 H20        -2.2898    0.3203   11.9458 H         1 7B2         0.0416
     59 H21        -4.0763    0.4383   12.0913 H         1 7B2         0.0416
     60 H22        -3.0577    3.9023   10.7971 H         1 7B2         0.0871
     61 H23        -0.4261    7.7385    7.6155 H         1 7B2         0.1233
     62 H24        -6.0022    5.6746    5.6384 H         1 7B2         0.0419
     63 H25        -6.1090    7.1880    4.6768 H         1 7B2         0.0419
     64 H26        -6.7060    7.1561    6.3707 H         1 7B2         0.0419
     65 H27        -6.0801    9.2675    5.6890 H         1 7B2         0.0583
     66 H28        -4.6460   10.2305    5.1964 H         1 7B2         0.0583
     67 H29        -5.2095   10.2664    6.9017 H         1 7B2         0.0583
@<TRIPOS>BOND
     1    1   29 1  
     2   30    1 2  
     3   38    2 1  
     4   33    3 2  
     5    6    4 1  
     6    5   15 2  
     7    5   16 1  
     8   17    5 1  
     9    6    7 1  
    10   16    6 2  
    11    7    8 2  
    12   14    7 1  
    13    8    9 1  
    14    8   10 1  
    15   10   11 1  
    16   12   10 1  
    17   12   13 1  
    18   14   12 2  
    19   15   14 1  
    20   18   17 1  
    21   18   19 1  
    22   24   18 2  
    23   19   20 1  
    24   21   19 1  
    25   21   22 1  
    26   23   21 2  
    27   24   23 1  
    28   25   23 1  
    29   28   24 1  
    30   26   25 2  
    31   27   26 1  
    32   27   28 1  
    33   30   27 1  
    34   28   29 2  
    35   31   30 1  
    36   32   31 1  
    37   31   34 2  
    38   32   33 1  
    39   32   38 2  
    40   34   35 1  
    41   34   36 1  
    42   36   37 1  
    43   36   38 1  
    44    2   39 1  
    45    2   40 1  
    46    2   41 1  
    47    9   42 1  
    48    9   43 1  
    49    9   44 1  
    50   11   45 1  
    51   11   46 1  
    52   11   47 1  
    53   13   48 1  
    54   13   49 1  
    55   13   50 1  
    56   15   51 1  
    57   17   52 1  
    58   17   53 1  
    59   20   54 1  
    60   20   55 1  
    61   20   56 1  
    62   22   57 1  
    63   22   58 1  
    64   22   59 1  
    65   25   60 1  
    66   33   61 1  
    67   35   62 1  
    68   35   63 1  
    69   35   64 1  
    70   37   65 1  
    71   37   66 1  
    72   37   67 1  
@<TRIPOS>SUBSTRUCTURE
     1 7B2         1

