### 
### Created by X-TOOL on Mon Sep 10 21:13:33 2018
### 

@<TRIPOS>MOLECULE
5lx6_ligand
   35    37     1     0     0
SMALL
GAST_HUCK


@<TRIPOS>ATOM
      1 C4         43.6940   16.8220   80.0260 C.ar      1 78P         0.1080
      2 C5         43.5220   16.0560   78.8430 C.ar      1 78P         0.0734
      3 C6         44.6210   15.2390   78.4330 C.ar      1 78P        -0.0399
      4 C8         43.4840   18.1270   81.7950 C.2       1 78P         0.1615
      5 C10        42.2850   15.9800   78.0890 C.2       1 78P         0.2052
      6 C13        42.8860   19.0920   82.8360 C.3       1 78P         0.0223
      7 C15        41.4230   20.9800   83.0520 C.3       1 78P        -0.0383
      8 C17        43.7770   20.3370   83.0090 C.3       1 78P        -0.0211
      9 C1         45.8370   15.2630   79.1660 C.ar      1 78P        -0.0531
     10 C2         45.9410   16.0370   80.3500 C.ar      1 78P        -0.0167
     11 C3         44.8920   16.7890   80.7620 C.ar      1 78P         0.1148
     12 N7         44.7260   17.6040   81.8460 N.pl3     1 78P        -0.2403
     13 N9         42.8500   17.6600   80.7100 N.2       1 78P        -0.2398
     14 N11        41.2990   16.7910   78.4370 N.am      1 78P        -0.2999
     15 O12        42.1120   15.1110   77.1800 O.2       1 78P        -0.3837
     16 N14        41.6390   19.6940   82.3340 N.4       1 78P         0.1873
     17 C16        42.8320   21.5040   83.2910 C.3       1 78P        -0.0148
     18 C18        42.6240   18.3480   84.1690 C.3       1 78P        -0.0376
     19 H1         44.5261   14.6007   77.5620 H         1 78P         0.0640
     20 H2         40.9000   20.8135   84.0053 H         1 78P         0.0814
     21 H3         40.8438   21.6815   82.4336 H         1 78P         0.0814
     22 H4         44.3512   20.5253   82.0898 H         1 78P         0.0225
     23 H5         44.4698   20.1956   83.8516 H         1 78P         0.0225
     24 H6         46.6882   14.6881   78.8196 H         1 78P         0.0674
     25 H7         46.8597   16.0269   80.9252 H         1 78P         0.0631
     26 H8         45.4286   17.7874   82.5765 H         1 78P         0.2356
     27 H9         40.4319   16.7662   77.9394 H         1 78P         0.1807
     28 H10        41.4209   17.4287   79.1976 H         1 78P         0.1807
     29 H11        40.8653   19.0718   82.5079 H         1 78P         0.1976
     30 H12        41.7168   19.8648   81.3436 H         1 78P         0.1976
     31 H13        42.9419   21.8399   84.3327 H         1 78P         0.0311
     32 H14        43.0474   22.3414   82.6110 H         1 78P         0.0311
     33 H15        43.5628   17.9040   84.5317 H         1 78P         0.0187
     34 H16        41.8816   17.5530   84.0054 H         1 78P         0.0187
     35 H17        42.2417   19.0586   84.9166 H         1 78P         0.0187
@<TRIPOS>BOND
     1    1    2 ar 
     2    1   11 ar 
     3   13    1 1  
     4    2    3 ar 
     5    2    5 1  
     6    3    9 ar 
     7    4    6 1  
     8    4   12 1  
     9    4   13 2  
    10    5   14 am 
    11    5   15 2  
    12    6    8 1  
    13    6   16 1  
    14    6   18 1  
    15   16    7 1  
    16    7   17 1  
    17    8   17 1  
    18    9   10 ar 
    19   10   11 ar 
    20   11   12 1  
    21    3   19 1  
    22    7   20 1  
    23    7   21 1  
    24    8   22 1  
    25    8   23 1  
    26    9   24 1  
    27   10   25 1  
    28   12   26 1  
    29   14   27 1  
    30   14   28 1  
    31   16   29 1  
    32   16   30 1  
    33   17   31 1  
    34   17   32 1  
    35   18   33 1  
    36   18   34 1  
    37   18   35 1  
@<TRIPOS>SUBSTRUCTURE
     1 78P         1

