### 
### Created by X-TOOL on Mon Sep 10 21:13:29 2018
### 

@<TRIPOS>MOLECULE
5lxb_ligand
   47    51     1     0     0
SMALL
GAST_HUCK


@<TRIPOS>ATOM
      1 C22        34.8260  -25.0340   58.4250 C.3       1 7A9        -0.0315
      2 C13        34.9770  -29.4860   52.4340 C.ar      1 7A9        -0.0554
      3 C21        34.4960  -26.5390   58.4520 C.3       1 7A9        -0.0072
      4 C14        39.2670  -29.5610   51.7430 C.3       1 7A9        -0.0204
      5 C11        36.8930  -30.2600   51.1750 C.ar      1 7A9        -0.0625
      6 C16        36.2570  -25.0250   56.5430 C.3       1 7A9        -0.0079
      7 C20        35.4680  -27.2330   57.5030 C.3       1 7A9        -0.0033
      8 C19        36.7800  -27.2470   58.2660 C.3       1 7A9        -0.0072
      9 O07        34.0660  -27.9420   54.5160 O.2       1 7A9        -0.3884
     10 C06        35.2810  -27.9110   54.3540 C.2       1 7A9         0.2014
     11 N05        36.1230  -27.1600   55.0990 N.am      1 7A9        -0.2630
     12 C15        35.5400  -26.3760   56.2260 C.3       1 7A9         0.0873
     13 C18        37.1440  -25.8030   58.6300 C.3       1 7A9        -0.0315
     14 N17        36.2240  -24.8190   57.9970 N.4       1 7A9         0.2369
     15 C04        37.5720  -26.9690   54.8530 C.3       1 7A9         0.0460
     16 C08        35.8410  -28.7340   53.2400 C.ar      1 7A9         0.0454
     17 C12        35.5060  -30.2410   51.3940 C.ar      1 7A9        -0.0698
     18 C10        37.7580  -29.5160   51.9840 C.ar      1 7A9        -0.0348
     19 C01        40.0310  -28.2690   52.1010 C.3       1 7A9        -0.0421
     20 C09        37.2290  -28.7480   53.0220 C.ar      1 7A9        -0.0155
     21 C03        38.2010  -27.9900   53.8880 C.3       1 7A9         0.0143
     22 C02        39.2900  -27.3040   53.0380 C.3       1 7A9        -0.0370
     23 H1         34.6872  -24.6147   59.4324 H         1 7A9         0.0814
     24 H2         34.1497  -24.5275   57.7206 H         1 7A9         0.0814
     25 H3         33.9089  -29.4792   52.6191 H         1 7A9         0.0592
     26 H4         33.4611  -26.7036   58.1176 H         1 7A9         0.0320
     27 H5         34.6190  -26.9332   59.4715 H         1 7A9         0.0320
     28 H6         39.4347  -29.7703   50.6762 H         1 7A9         0.0412
     29 H7         39.6833  -30.3804   52.3473 H         1 7A9         0.0412
     30 H8         37.2987  -30.8594   50.3680 H         1 7A9         0.0572
     31 H9         35.7352  -24.1988   56.0378 H         1 7A9         0.0837
     32 H10        37.3001  -25.0665   56.1963 H         1 7A9         0.0837
     33 H11        35.1458  -28.2559   57.2583 H         1 7A9         0.0329
     34 H12        37.5707  -27.6821   57.6372 H         1 7A9         0.0320
     35 H13        36.6701  -27.8447   59.1829 H         1 7A9         0.0320
     36 H14        34.5096  -26.1263   55.9330 H         1 7A9         0.0614
     37 H15        38.1701  -25.5991   58.2903 H         1 7A9         0.0814
     38 H16        37.0898  -25.6878   59.7226 H         1 7A9         0.0814
     39 H17        36.5159  -23.8827   58.2299 H         1 7A9         0.2034
     40 H18        38.0957  -27.0416   55.8176 H         1 7A9         0.0547
     41 H19        37.7183  -25.9637   54.4311 H         1 7A9         0.0547
     42 H20        34.8480  -30.8152   50.7519 H         1 7A9         0.0554
     43 H21        40.2489  -27.7332   51.1654 H         1 7A9         0.0287
     44 H22        40.9748  -28.5565   52.5873 H         1 7A9         0.0287
     45 H23        38.7023  -28.7420   54.5150 H         1 7A9         0.0480
     46 H24        38.8147  -26.5218   52.4279 H         1 7A9         0.0292
     47 H25        40.0238  -26.8446   53.7165 H         1 7A9         0.0292
@<TRIPOS>BOND
     1    3    1 1  
     2   14    1 1  
     3   16    2 ar 
     4    2   17 ar 
     5    7    3 1  
     6   18    4 1  
     7    4   19 1  
     8   17    5 ar 
     9    5   18 ar 
    10   12    6 1  
    11    6   14 1  
    12    7    8 1  
    13   12    7 1  
    14    8   13 1  
    15   10    9 2  
    16   11   10 am 
    17   10   16 1  
    18   11   12 1  
    19   11   15 1  
    20   13   14 1  
    21   15   21 1  
    22   16   20 ar 
    23   18   20 ar 
    24   19   22 1  
    25   20   21 1  
    26   21   22 1  
    27    1   23 1  
    28    1   24 1  
    29    2   25 1  
    30    3   26 1  
    31    3   27 1  
    32    4   28 1  
    33    4   29 1  
    34    5   30 1  
    35    6   31 1  
    36    6   32 1  
    37    7   33 1  
    38    8   34 1  
    39    8   35 1  
    40   12   36 1  
    41   13   37 1  
    42   13   38 1  
    43   14   39 1  
    44   15   40 1  
    45   15   41 1  
    46   17   42 1  
    47   19   43 1  
    48   19   44 1  
    49   21   45 1  
    50   22   46 1  
    51   22   47 1  
@<TRIPOS>SUBSTRUCTURE
     1 7A9         1

