### 
### Created by X-TOOL on Mon Sep 10 21:13:27 2018
### 

@<TRIPOS>MOLECULE
5lxp_ligand
   61    63     1     0     0
SMALL
GAST_HUCK


@<TRIPOS>ATOM
      1 CAY       -24.3650  -16.2980  -10.1480 C.ar      1 7AG        -0.0600
      2 CAZ       -25.2580  -17.1860   -9.4910 C.ar      1 7AG        -0.0686
      3 CBG       -26.0780  -16.6760   -8.4300 C.ar      1 7AG        -0.0687
      4 CBF       -25.9800  -15.3060   -8.0740 C.ar      1 7AG        -0.0686
      5 CBE       -25.1070  -14.4440   -8.7500 C.ar      1 7AG        -0.0600
      6 CAX       -24.3100  -14.9300   -9.7710 C.ar      1 7AG        -0.0374
      7 CAW       -23.3070  -14.2500  -10.5600 C.3       1 7AG         0.0201
      8 CAE       -23.6360  -13.2070  -11.6010 C.3       1 7AG        -0.0498
      9 CAV       -22.1000  -13.6940   -9.7000 C.3       1 7AG         0.0874
     10 NAU       -21.8760  -14.0040   -8.2700 N.pl3     1 7AG        -0.1790
     11 CAT       -21.9150  -15.1280   -7.6040 C.2       1 7AG         0.0715
     12 NAD       -21.6350  -13.1760   -7.5780 N.2       1 7AG        -0.1018
     13 NAC       -21.5010  -13.4040   -6.6300 N.2       1 7AG        -0.2245
     14 CAS       -21.6420  -14.6760   -6.4170 C.2       1 7AG         0.0589
     15 CAR       -21.5220  -15.4830   -5.0960 C.3       1 7AG         0.0654
     16 NAQ       -20.2490  -15.1200   -4.4560 N.am      1 7AG        -0.2790
     17 CAP       -19.1020  -15.6920   -4.6810 C.2       1 7AG         0.1774
     18 OAB       -19.0190  -16.6160   -5.4620 O.2       1 7AG        -0.3970
     19 CAO       -17.8110  -15.1640   -3.9010 C.3       1 7AG         0.0394
     20 CAN       -17.2670  -16.3320   -3.0320 C.3       1 7AG        -0.0186
     21 CAM       -18.2580  -16.6570   -1.8490 C.3       1 7AG         0.0452
     22 CAL       -18.3090  -15.5480   -0.7590 C.2       1 7AG         0.2037
     23 OBD       -17.4640  -14.6930   -0.7030 O.2       1 7AG        -0.3849
     24 NAK       -19.3730  -15.5610    0.1000 N.am      1 7AG        -0.2331
     25 CAJ       -19.5870  -14.7160    1.1470 C.ar      1 7AG         0.0717
     26 CAI       -20.8810  -14.5820    1.7280 C.ar      1 7AG        -0.0215
     27 CBC       -18.5030  -14.0410    1.8240 C.ar      1 7AG        -0.0369
     28 CBB       -18.7070  -13.2680    2.9860 C.ar      1 7AG        -0.0699
     29 CBA       -19.9930  -13.1470    3.4960 C.ar      1 7AG        -0.0574
     30 CAH       -21.1240  -13.7870    2.8960 C.ar      1 7AG         0.0361
     31 CAG       -22.4280  -13.6210    3.4920 C.2       1 7AG         0.1989
     32 OAF       -22.7090  -12.5720    4.0210 O.2       1 7AG        -0.3849
     33 NAA       -23.3170  -14.6090    3.3800 N.am      1 7AG        -0.3003
     34 H1        -23.7231  -16.6660  -10.9402 H         1 7AG         0.0557
     35 H2        -25.3187  -18.2275   -9.7852 H         1 7AG         0.0599
     36 H3        -26.7652  -17.3304   -7.9059 H         1 7AG         0.0559
     37 H4        -26.5906  -14.9201   -7.2657 H         1 7AG         0.0599
     38 H5        -25.0560  -13.3971   -8.4734 H         1 7AG         0.0557
     39 H6        -22.8834  -15.0733  -11.1539 H         1 7AG         0.0488
     40 H7        -22.7058  -12.8415  -12.0605 H         1 7AG         0.0255
     41 H8        -24.1642  -12.3677  -11.1250 H         1 7AG         0.0255
     42 H9        -24.2775  -13.6519  -12.3759 H         1 7AG         0.0255
     43 H10       -22.1770  -12.5982   -9.7563 H         1 7AG         0.0673
     44 H11       -21.1891  -14.0249  -10.2204 H         1 7AG         0.0673
     45 H12       -22.1166  -16.1429   -7.9436 H         1 7AG         0.0899
     46 H13       -21.5359  -16.5610   -5.3145 H         1 7AG         0.0636
     47 H14       -22.3599  -15.2333   -4.4285 H         1 7AG         0.0636
     48 H15       -20.2660  -14.3716   -3.7929 H         1 7AG         0.1870
     49 H16       -18.0845  -14.3151   -3.2571 H         1 7AG         0.0504
     50 H17       -17.0434  -14.8453   -4.6215 H         1 7AG         0.0504
     51 H18       -16.2894  -16.0472   -2.6158 H         1 7AG         0.0314
     52 H19       -17.1510  -17.2265   -3.6616 H         1 7AG         0.0314
     53 H20       -17.9379  -17.5965   -1.3749 H         1 7AG         0.0509
     54 H21       -19.2683  -16.7822   -2.2657 H         1 7AG         0.0509
     55 H22       -20.0664  -16.2643   -0.0568 H         1 7AG         0.2256
     56 H23       -21.7144  -15.1015    1.2689 H         1 7AG         0.0553
     57 H24       -17.4991  -14.1319    1.4252 H         1 7AG         0.0537
     58 H25       -17.8730  -12.7761    3.4733 H         1 7AG         0.0588
     59 H26       -20.1464  -12.5440    4.3836 H         1 7AG         0.0539
     60 H27       -24.2256  -14.5125    3.7863 H         1 7AG         0.1808
     61 H28       -23.0749  -15.4463    2.8897 H         1 7AG         0.1808
@<TRIPOS>BOND
     1    1    2 ar 
     2    1    6 ar 
     3    2    3 ar 
     4    3    4 ar 
     5    4    5 ar 
     6    5    6 ar 
     7    6    7 1  
     8    7    8 1  
     9    7    9 1  
    10    9   10 1  
    11   10   11 1  
    12   10   12 1  
    13   11   14 2  
    14   12   13 2  
    15   13   14 1  
    16   14   15 1  
    17   15   16 1  
    18   16   17 am 
    19   17   18 2  
    20   17   19 1  
    21   19   20 1  
    22   20   21 1  
    23   21   22 1  
    24   22   23 2  
    25   22   24 am 
    26   24   25 1  
    27   25   26 ar 
    28   25   27 ar 
    29   26   30 ar 
    30   27   28 ar 
    31   28   29 ar 
    32   29   30 ar 
    33   30   31 1  
    34   31   32 2  
    35   31   33 am 
    36    1   34 1  
    37    2   35 1  
    38    3   36 1  
    39    4   37 1  
    40    5   38 1  
    41    7   39 1  
    42    8   40 1  
    43    8   41 1  
    44    8   42 1  
    45    9   43 1  
    46    9   44 1  
    47   11   45 1  
    48   15   46 1  
    49   15   47 1  
    50   16   48 1  
    51   19   49 1  
    52   19   50 1  
    53   20   51 1  
    54   20   52 1  
    55   21   53 1  
    56   21   54 1  
    57   24   55 1  
    58   26   56 1  
    59   27   57 1  
    60   28   58 1  
    61   29   59 1  
    62   33   60 1  
    63   33   61 1  
@<TRIPOS>SUBSTRUCTURE
     1 7AG         1

