### 
### Created by X-TOOL on Mon Sep 10 21:13:28 2018
### 

@<TRIPOS>MOLECULE
5lyh_ligand
   65    67     1     0     0
SMALL
GAST_HUCK


@<TRIPOS>ATOM
      1 OBK        52.6090   70.8710   15.1500 O.co2     1 7B8        -0.5606
      2 CBL        53.6180   71.5670   15.3320 C.2       1 7B8         0.0630
      3 OBM        53.8180   72.1920   16.4070 O.co2     1 7B8        -0.5606
      4 CBI        54.5430   71.5940   14.3280 C.ar      1 7B8         0.0121
      5 CBJ        54.1800   71.4550   12.9800 C.ar      1 7B8        -0.0209
      6 CBH        55.8610   71.7610   14.6940 C.ar      1 7B8        -0.0475
      7 CBE        56.8150   71.7850   13.7180 C.ar      1 7B8        -0.0563
      8 CBF        56.5060   71.6450   12.3890 C.ar      1 7B8        -0.0325
      9 CBG        55.1810   71.4930   12.0130 C.ar      1 7B8         0.1116
     10 SAY        54.8870   71.3400   10.3940 S.o2      1 7B8         0.0689
     11 OAZ        54.9180   69.8280   10.1490 O.2       1 7B8        -0.1502
     12 OAE        53.5120   71.9140   10.0240 O.2       1 7B8        -0.1502
     13 NAX        56.2530   72.2460    9.5710 N.am      1 7B8        -0.2445
     14 CAW        55.9650   73.6520    9.2060 C.3       1 7B8         0.0568
     15 CAV        56.8810   74.6070    9.9860 C.3       1 7B8         0.0921
     16 NAU        56.1160   75.6650   10.7170 N.pl3     1 7B8        -0.1797
     17 CAT        56.1970   75.9730   12.0190 C.2       1 7B8         0.0695
     18 NAD        55.2850   76.4290   10.1810 N.2       1 7B8        -0.1019
     19 NAC        54.7920   77.2250   11.0160 N.2       1 7B8        -0.2264
     20 CAS        55.3490   76.9760   12.1930 C.2       1 7B8         0.0389
     21 CAR        55.0240   77.7190   13.5050 C.3       1 7B8         0.0018
     22 CAQ        56.1280   78.7120   13.9220 C.3       1 7B8         0.0375
     23 NAP        55.5940   80.1010   13.9620 N.am      1 7B8        -0.2854
     24 CAO        55.6950   81.0330   14.9650 C.2       1 7B8         0.1784
     25 OAB        55.1970   82.1530   14.8580 O.2       1 7B8        -0.3969
     26 CAN        56.4090   80.6670   16.2850 C.3       1 7B8         0.0545
     27 CAM        56.8450   81.9430   17.1140 C.3       1 7B8         0.0599
     28 CAL        57.8620   81.5730   18.2310 C.2       1 7B8         0.2058
     29 OBD        58.7320   82.3650   18.6050 O.2       1 7B8        -0.3848
     30 NAK        57.5770   80.3710   18.7530 N.am      1 7B8        -0.2329
     31 CAJ        58.2450   79.6460   19.6490 C.ar      1 7B8         0.0717
     32 CAI        57.5260   78.5040   20.0220 C.ar      1 7B8        -0.0215
     33 CBC        59.5480   79.8050   20.1500 C.ar      1 7B8        -0.0369
     34 CBB        60.0470   78.8220   21.0380 C.ar      1 7B8        -0.0699
     35 CBA        59.2770   77.7130   21.4040 C.ar      1 7B8        -0.0574
     36 CAH        57.9900   77.5420   20.9180 C.ar      1 7B8         0.0361
     37 CAG        57.1860   76.4170   21.2350 C.2       1 7B8         0.1989
     38 OAF        57.2860   75.7540   22.2780 O.2       1 7B8        -0.3849
     39 NAA        56.2500   76.0840   20.3790 N.am      1 7B8        -0.3003
     40 H1         53.1421   71.3209   12.6973 H         1 7B8         0.0671
     41 H2         56.1349   71.8712   15.7370 H         1 7B8         0.0651
     42 H3         57.8522   71.9193   14.0030 H         1 7B8         0.0625
     43 H4         57.2902   71.6532   11.6406 H         1 7B8         0.0658
     44 H5         57.1364   71.8176    9.3808 H         1 7B8         0.1673
     45 H6         54.9159   73.8807    9.4447 H         1 7B8         0.0505
     46 H7         56.1338   73.7882    8.1276 H         1 7B8         0.0505
     47 H8         57.5679   75.0939    9.2781 H         1 7B8         0.0664
     48 H9         57.4603   74.0226   10.7160 H         1 7B8         0.0664
     49 H10        56.8252   75.5001   12.7724 H         1 7B8         0.0898
     50 H11        54.8986   76.9766   14.3070 H         1 7B8         0.0400
     51 H12        54.0846   78.2751   13.3700 H         1 7B8         0.0400
     52 H13        56.9525   78.6623   13.1955 H         1 7B8         0.0537
     53 H14        56.5017   78.4393   14.9200 H         1 7B8         0.0537
     54 H15        55.0937   80.3952   13.1476 H         1 7B8         0.1852
     55 H16        57.3066   80.0768   16.0484 H         1 7B8         0.0527
     56 H17        55.7251   80.0638   16.9002 H         1 7B8         0.0527
     57 H18        55.9533   82.3916   17.5761 H         1 7B8         0.0532
     58 H19        57.3104   82.6706   16.4329 H         1 7B8         0.0532
     59 H20        56.7320   79.9543   18.4177 H         1 7B8         0.2256
     60 H21        56.5445   78.3583   19.5856 H         1 7B8         0.0553
     61 H22        60.1544   80.6569   19.8644 H         1 7B8         0.0537
     62 H23        61.0467   78.9309   21.4428 H         1 7B8         0.0588
     63 H24        59.6939   76.9746   22.0793 H         1 7B8         0.0539
     64 H25        55.6606   75.2975   20.5635 H         1 7B8         0.1808
     65 H26        56.1256   76.6166   19.5418 H         1 7B8         0.1808
@<TRIPOS>BOND
     1    1    2 ar 
     2    2    3 ar 
     3    2    4 1  
     4    4    5 ar 
     5    4    6 ar 
     6    5    9 ar 
     7    6    7 ar 
     8    7    8 ar 
     9    8    9 ar 
    10    9   10 1  
    11   10   11 2  
    12   10   12 2  
    13   10   13 am 
    14   13   14 1  
    15   14   15 1  
    16   15   16 1  
    17   16   17 1  
    18   16   18 1  
    19   17   20 2  
    20   18   19 2  
    21   19   20 1  
    22   20   21 1  
    23   21   22 1  
    24   22   23 1  
    25   23   24 am 
    26   24   25 2  
    27   24   26 1  
    28   26   27 1  
    29   27   28 1  
    30   28   29 2  
    31   28   30 am 
    32   30   31 1  
    33   31   32 ar 
    34   31   33 ar 
    35   32   36 ar 
    36   33   34 ar 
    37   34   35 ar 
    38   35   36 ar 
    39   36   37 1  
    40   37   38 2  
    41   37   39 am 
    42    5   40 1  
    43    6   41 1  
    44    7   42 1  
    45    8   43 1  
    46   13   44 1  
    47   14   45 1  
    48   14   46 1  
    49   15   47 1  
    50   15   48 1  
    51   17   49 1  
    52   21   50 1  
    53   21   51 1  
    54   22   52 1  
    55   22   53 1  
    56   23   54 1  
    57   26   55 1  
    58   26   56 1  
    59   27   57 1  
    60   27   58 1  
    61   30   59 1  
    62   32   60 1  
    63   33   61 1  
    64   34   62 1  
    65   35   63 1  
    66   39   64 1  
    67   39   65 1  
@<TRIPOS>SUBSTRUCTURE
     1 7B8         1

