### 
### Created by X-TOOL on Mon Sep 10 21:13:31 2018
### 

@<TRIPOS>MOLECULE
5lyn_ligand
  105   105     1     0     0
SMALL
GAST_HUCK


@<TRIPOS>ATOM
      1 N          14.4700    7.6580  -29.5100 N.4       1 PRO         0.2461
      2 CA         13.4980    8.5310  -30.1650 C.3       1 PRO         0.0670
      3 C          12.2060    7.7930  -30.5060 C.2       1 PRO         0.2268
      4 O          12.2730    6.7660  -31.1830 O.2       1 PRO        -0.3907
      5 CB         14.2320    8.9510  -31.4330 C.3       1 PRO         0.0127
      6 CG         15.1610    7.7760  -31.7380 C.3       1 PRO        -0.0053
      7 CD         15.2650    6.9150  -30.5000 C.3       1 PRO        -0.0313
      8 N          11.0560    8.2910  -30.0480 N.am      1 THR        -0.2586
      9 CA          9.7970    7.6120  -30.3350 C.3       1 THR         0.1566
     10 C           9.5860    7.5220  -31.8410 C.2       1 THR         0.2065
     11 O           9.5810    8.5400  -32.5430 O.2       1 THR        -0.3943
     12 CB          8.6150    8.3330  -29.6770 C.3       1 THR         0.0924
     13 OG1         8.6680    8.1680  -28.2530 O.3       1 THR        -0.3874
     14 CG2         7.2940    7.7780  -30.1940 C.3       1 THR        -0.0346
     15 N           9.4430    6.2980  -32.3370 N.am      1 VAL        -0.2634
     16 CA          9.1150    6.0400  -33.7340 C.3       1 VAL         0.1333
     17 C           7.6270    5.7100  -33.7710 C.2       1 VAL         0.2042
     18 O           7.2120    4.6040  -33.4140 O.2       1 VAL        -0.3944
     19 CB          9.9690    4.9150  -34.3220 C.3       1 VAL        -0.0063
     20 CG1         9.6070    4.6900  -35.7770 C.3       1 VAL        -0.0584
     21 CG2        11.4510    5.2460  -34.1770 C.3       1 VAL        -0.0584
     22 N           6.8180    6.6760  -34.1990 N.am      1 GLU        -0.2636
     23 CA          5.3700    6.5570  -34.1050 C.3       1 GLU         0.1325
     24 C           4.8030    5.7190  -35.2470 C.2       1 GLU         0.2040
     25 O           5.2570    5.8070  -36.3920 O.2       1 GLU        -0.3944
     26 CB          4.7260    7.9480  -34.0930 C.3       1 GLU        -0.0008
     27 CG          4.7930    8.6630  -32.7340 C.3       1 GLU         0.0044
     28 CD          5.6280    9.9430  -32.7510 C.2       1 GLU         0.0350
     29 OE1         6.1700   10.3030  -33.8230 O.co2     1 GLU        -0.5690
     30 OE2         5.7420   10.5910  -31.6830 O.co2     1 GLU        -0.5690
     31 N           3.8110    4.8940  -34.9180 N.am      1 GLU        -0.2636
     32 CA          3.0970    4.1030  -35.9100 C.3       1 GLU         0.1325
     33 C           2.2880    5.0010  -36.8430 C.2       1 GLU         0.2040
     34 O           1.8270    6.0810  -36.4620 O.2       1 GLU        -0.3944
     35 CB          2.1650    3.1060  -35.2150 C.3       1 GLU        -0.0008
     36 CG          1.4980    2.0910  -36.1380 C.3       1 GLU         0.0044
     37 CD          0.1710    1.5890  -35.5930 C.2       1 GLU         0.0350
     38 OE1        -0.6330    2.4220  -35.1180 O.co2     1 GLU        -0.5690
     39 OE2        -0.0680    0.3620  -35.6360 O.co2     1 GLU        -0.5690
     40 N           2.1070    4.5290  -38.0780 N.am      1 VAL        -0.2635
     41 CA          1.3540    5.2470  -39.1030 C.3       1 VAL         0.1332
     42 C          -0.1310    5.2790  -38.7550 C.2       1 VAL         0.2037
     43 O          -0.5930    4.5290  -37.8880 O.2       1 VAL        -0.3944
     44 CB          1.5770    4.6080  -40.4830 C.3       1 VAL        -0.0063
     45 CG1         3.0060    4.8460  -40.9440 C.3       1 VAL        -0.0584
     46 CG2         1.2640    3.1230  -40.4240 C.3       1 VAL        -0.0584
     47 N          -0.8910    6.1310  -39.4430 N.am      1 ASP        -0.2679
     48 CA         -2.3120    6.3080  -39.1400 C.3       1 ASP         0.1057
     49 C          -3.2240    6.0280  -40.3410 C.2       1 ASP         0.0618
     50 O          -4.4510    6.1000  -40.2320 O.co2     1 ASP        -0.5665
     51 CB         -2.5630    7.7270  -38.6160 C.3       1 ASP         0.0351
     52 CG         -1.6800    8.0750  -37.4260 C.2       1 ASP         0.0387
     53 OD1        -1.2170    9.2330  -37.3430 O.co2     1 ASP        -0.5688
     54 OD2        -1.4460    7.1880  -36.5760 O.co2     1 ASP        -0.5688
     55 OXT        -2.7770    5.7250  -41.4490 O.co2     1 ASP        -0.5665
     56 H1         13.9799    7.0022  -28.9220 H         1 PRO         0.2035
     57 H2         15.0883    8.2189  -28.9451 H         1 PRO         0.2035
     58 H3         13.2641    9.4015  -29.5345 H         1 PRO         0.1099
     59 H4         14.8104    9.8709  -31.2620 H         1 PRO         0.0347
     60 H5         13.5231    9.1118  -32.2586 H         1 PRO         0.0347
     61 H6         16.1573    8.1521  -32.0135 H         1 PRO         0.0320
     62 H7         14.7501    7.1836  -32.5688 H         1 PRO         0.0320
     63 H8         14.8412    5.9155  -30.6773 H         1 PRO         0.0814
     64 H9         16.3109    6.8172  -30.1737 H         1 PRO         0.0814
     65 H10        11.0571    9.1318  -29.5066 H         1 THR         0.1885
     66 H11         9.8515    6.5921  -29.9266 H         1 THR         0.0826
     67 H12         8.6732    9.4046  -29.9185 H         1 THR         0.0639
     68 H13         7.9319    8.6182  -27.8556 H         1 THR         0.2101
     69 H14         6.4597    8.3074  -29.7107 H         1 THR         0.0257
     70 H15         7.2311    6.7047  -29.9614 H         1 THR         0.0257
     71 H16         7.2373    7.9212  -31.2832 H         1 THR         0.0257
     72 H17         9.5660    5.5176  -31.7240 H         1 VAL         0.1883
     73 H18         9.2978    6.9508  -34.3230 H         1 VAL         0.0802
     74 H19         9.7626    3.9897  -33.7642 H         1 VAL         0.0343
     75 H20        10.2271    3.8797  -36.1880 H         1 VAL         0.0234
     76 H21         9.7863    5.6138  -36.3466 H         1 VAL         0.0234
     77 H22         8.5451    4.4131  -35.8521 H         1 VAL         0.0234
     78 H23        11.6890    5.4047  -33.1148 H         1 VAL         0.0234
     79 H24        11.6798    6.1601  -34.7445 H         1 VAL         0.0234
     80 H25        12.0529    4.4120  -34.5670 H         1 VAL         0.0234
     81 H26         7.2145    7.5042  -34.5950 H         1 GLU         0.1883
     82 H27         5.1275    6.0537  -33.1575 H         1 GLU         0.0801
     83 H28         3.6680    7.8405  -34.3741 H         1 GLU         0.0330
     84 H29         5.2415    8.5730  -34.8371 H         1 GLU         0.0330
     85 H30         5.2326    7.9719  -31.9998 H         1 GLU         0.0433
     86 H31         3.7687    8.9212  -32.4271 H         1 GLU         0.0433
     87 H32         3.5474    4.8150  -33.9566 H         1 GLU         0.1883
     88 H33         3.8317    3.5444  -36.5085 H         1 GLU         0.0801
     89 H34         1.3733    3.6766  -34.7075 H         1 GLU         0.0330
     90 H35         2.7538    2.5524  -34.4688 H         1 GLU         0.0330
     91 H36         2.1741    1.2326  -36.2649 H         1 GLU         0.0433
     92 H37         1.3209    2.5657  -37.1143 H         1 GLU         0.0433
     93 H38         2.5055    3.6423  -38.3126 H         1 VAL         0.1883
     94 H39         1.7217    6.2831  -39.1394 H         1 VAL         0.0802
     95 H40         0.8944    5.0803  -41.2047 H         1 VAL         0.0343
     96 H41         3.1542    4.3849  -41.9316 H         1 VAL         0.0234
     97 H42         3.7039    4.3976  -40.2216 H         1 VAL         0.0234
     98 H43         3.1939    5.9277  -41.0125 H         1 VAL         0.0234
     99 H44         0.2263    2.9801  -40.0883 H         1 VAL         0.0234
    100 H45         1.9489    2.6317  -39.7172 H         1 VAL         0.0234
    101 H46         1.3901    2.6817  -41.4237 H         1 VAL         0.0234
    102 H47        -0.4803    6.6621  -40.1841 H         1 ASP         0.1876
    103 H48        -2.5758    5.5941  -38.3459 H         1 ASP         0.0745
    104 H49        -3.6162    7.8083  -38.3091 H         1 ASP         0.0471
    105 H50        -2.3608    8.4429  -39.4263 H         1 ASP         0.0471
@<TRIPOS>BOND
     1    1    2 1  
     2    1    7 1  
     3    2    3 1  
     4    2    5 1  
     5    3    4 2  
     6    3    8 am 
     7    5    6 1  
     8    6    7 1  
     9    8    9 1  
    10    9   10 1  
    11    9   12 1  
    12   10   11 2  
    13   10   15 am 
    14   12   13 1  
    15   12   14 1  
    16   15   16 1  
    17   16   17 1  
    18   16   19 1  
    19   17   18 2  
    20   17   22 am 
    21   19   20 1  
    22   19   21 1  
    23   22   23 1  
    24   23   24 1  
    25   23   26 1  
    26   24   25 2  
    27   24   31 am 
    28   26   27 1  
    29   27   28 1  
    30   28   29 ar 
    31   28   30 ar 
    32   31   32 1  
    33   32   33 1  
    34   32   35 1  
    35   33   34 2  
    36   33   40 am 
    37   35   36 1  
    38   36   37 1  
    39   37   38 ar 
    40   37   39 ar 
    41   40   41 1  
    42   41   42 1  
    43   41   44 1  
    44   42   43 2  
    45   42   47 am 
    46   44   45 1  
    47   44   46 1  
    48   47   48 1  
    49   48   49 1  
    50   48   51 1  
    51   49   50 ar 
    52   49   55 ar 
    53   51   52 1  
    54   52   53 ar 
    55   52   54 ar 
    56    1   56 1  
    57    1   57 1  
    58    2   58 1  
    59    5   59 1  
    60    5   60 1  
    61    6   61 1  
    62    6   62 1  
    63    7   63 1  
    64    7   64 1  
    65    8   65 1  
    66    9   66 1  
    67   12   67 1  
    68   13   68 1  
    69   14   69 1  
    70   14   70 1  
    71   14   71 1  
    72   15   72 1  
    73   16   73 1  
    74   19   74 1  
    75   20   75 1  
    76   20   76 1  
    77   20   77 1  
    78   21   78 1  
    79   21   79 1  
    80   21   80 1  
    81   22   81 1  
    82   23   82 1  
    83   26   83 1  
    84   26   84 1  
    85   27   85 1  
    86   27   86 1  
    87   31   87 1  
    88   32   88 1  
    89   35   89 1  
    90   35   90 1  
    91   36   91 1  
    92   36   92 1  
    93   40   93 1  
    94   41   94 1  
    95   44   95 1  
    96   45   96 1  
    97   45   97 1  
    98   45   98 1  
    99   46   99 1  
   100   46  100 1  
   101   46  101 1  
   102   47  102 1  
   103   48  103 1  
   104   51  104 1  
   105   51  105 1  
@<TRIPOS>SUBSTRUCTURE
     1 PRO         1

