### 
### Created by X-TOOL on Mon Sep 10 21:13:30 2018
### 

@<TRIPOS>MOLECULE
5lyr_ligand
   46    47     1     0     0
SMALL
GAST_HUCK


@<TRIPOS>ATOM
      1 C1          3.0130   21.7440    6.8940 C.3       1 MAN         0.1887
      2 C2          2.0670   21.7450    8.0860 C.3       1 MAN         0.1341
      3 C3          2.6200   22.5430    9.2570 C.3       1 MAN         0.1141
      4 C4          4.0280   22.0570    9.5850 C.3       1 MAN         0.1119
      5 C5          4.8910   22.1820    8.3450 C.3       1 MAN         0.1130
      6 C6          6.3100   21.6560    8.5960 C.3       1 MAN         0.0730
      7 O2          1.8600   20.3690    8.4450 O.3       1 MAN        -0.3841
      8 O3          1.7510   22.4140   10.4010 O.3       1 MAN        -0.3864
      9 O4          4.5490   22.8690   10.6360 O.3       1 MAN        -0.3865
     10 O5          4.3250   21.3680    7.3150 O.3       1 MAN        -0.3405
     11 O6          7.1380   21.8540    7.4630 O.3       1 MAN        -0.3924
     12 C1          3.4520   23.1130    4.9680 C.3       1 MNM         0.1560
     13 C2          4.9860   23.3340    4.9500 C.3       1 MNM         0.1094
     14 C3          2.7180   24.2410    4.2400 C.3       1 MNM         0.0990
     15 O4          2.9670   23.0720    6.3230 O.3       1 MNM        -0.3346
     16 O5          5.2500   24.5700    5.6030 O.3       1 MNM        -0.3504
     17 N6          5.3900   23.4070    3.5410 N.4       1 MNM         0.2513
     18 O7          1.3310   23.8370    4.1170 O.3       1 MNM        -0.3884
     19 C8          3.2750   24.4200    2.8260 C.3       1 MNM         0.0509
     20 C9          2.7020   25.6440    2.1140 C.3       1 MNM         0.0543
     21 C10         4.7980   24.5180    2.8200 C.3       1 MNM        -0.0236
     22 O11         2.9610   26.8620    2.7860 O.3       1 MNM        -0.3945
     23 H1          2.6650   21.0176    6.1449 H         1 MAN         0.0938
     24 H2          1.1078   22.1923    7.7862 H         1 MAN         0.0671
     25 H3          2.6701   23.6044    8.9725 H         1 MAN         0.0648
     26 H4          3.9975   21.0062    9.9087 H         1 MAN         0.0647
     27 H5          4.9312   23.2343    8.0272 H         1 MAN         0.0647
     28 H6          6.2595   20.5802    8.8198 H         1 MAN         0.0584
     29 H7          6.7436   22.1893    9.4548 H         1 MAN         0.0584
     30 H8          2.6871   19.9843    8.7105 H         1 MAN         0.2101
     31 H9          2.0945   22.9336   11.1184 H         1 MAN         0.2100
     32 H10         5.4325   22.5883   10.8432 H         1 MAN         0.2100
     33 H11         7.1885   22.7823    7.2674 H         1 MAN         0.2095
     34 H12         3.2281   22.1572    4.4716 H         1 MAN         0.0707
     35 H13         5.5101   22.5119    5.4593 H         1 MAN         0.1211
     36 H14         2.8051   25.1808    4.8049 H         1 MAN         0.0628
     37 H15         6.1796   24.7597    5.5555 H         1 MAN         0.2155
     38 H16         5.1150   22.5503    3.0865 H         1 MAN         0.2042
     39 H17         6.3928   23.5010    3.5022 H         1 MAN         0.2042
     40 H18         0.8430   24.5169    3.6676 H         1 MAN         0.2099
     41 H19         2.9890   23.5289    2.2480 H         1 MAN         0.0401
     42 H20         1.6125   25.5186    2.0287 H         1 MAN         0.0562
     43 H21         3.1445   25.7005    1.1085 H         1 MAN         0.0562
     44 H22         5.1558   24.5043    1.7799 H         1 MAN         0.0819
     45 H23         5.1003   25.4608    3.2994 H         1 MAN         0.0819
     46 H24         3.8997   26.9887    2.8590 H         1 MAN         0.2094
@<TRIPOS>BOND
     1    1    2 1  
     2    1   10 1  
     3   15    1 1  
     4    2    3 1  
     5    2    7 1  
     6    3    4 1  
     7    3    8 1  
     8    5    4 1  
     9    4    9 1  
    10    5    6 1  
    11   10    5 1  
    12    6   11 1  
    13   12   13 1  
    14   12   14 1  
    15   12   15 1  
    16   13   16 1  
    17   13   17 1  
    18   14   18 1  
    19   14   19 1  
    20   17   21 1  
    21   19   20 1  
    22   19   21 1  
    23   20   22 1  
    24    1   23 1  
    25    2   24 1  
    26    3   25 1  
    27    4   26 1  
    28    5   27 1  
    29    6   28 1  
    30    6   29 1  
    31    7   30 1  
    32    8   31 1  
    33    9   32 1  
    34   11   33 1  
    35   12   34 1  
    36   13   35 1  
    37   14   36 1  
    38   16   37 1  
    39   17   38 1  
    40   17   39 1  
    41   18   40 1  
    42   19   41 1  
    43   20   42 1  
    44   20   43 1  
    45   21   44 1  
    46   21   45 1  
    47   22   46 1  
@<TRIPOS>SUBSTRUCTURE
     1 MAN         1

