### 
### Created by X-TOOL on Mon Sep 10 21:13:31 2018
### 

@<TRIPOS>MOLECULE
5lyw_ligand
   42    45     1     0     0
SMALL
GAST_HUCK


@<TRIPOS>ATOM
      1 C1         26.8220   17.2980   15.6130 C.3       1 7BH         0.0704
      2 C2         26.2560   15.9150   15.2890 C.3       1 7BH        -0.0251
      3 C3         24.8580   15.9380   15.8860 C.3       1 7BH        -0.0301
      4 C8         29.9560   17.0390   17.4960 C.ar      1 7BH         0.0926
      5 C9         29.7920   17.4620   18.8140 C.ar      1 7BH        -0.0396
      6 C10        30.8840   17.4570   19.6700 C.ar      1 7BH        -0.0776
      7 C11        32.1220   17.0380   19.2170 C.ar      1 7BH        -0.0797
      8 C12        32.2820   16.6360   17.9000 C.ar      1 7BH        -0.0691
      9 C13        31.2080   16.6280   17.0130 C.ar      1 7BH        -0.0167
     10 C14        25.6430   19.5400   15.5830 C.ar      1 7BH         0.1577
     11 C16        26.9070   21.4690   15.6680 C.ar      1 7BH         0.0502
     12 C19        24.4890   20.3500   15.5290 C.ar      1 7BH         0.1547
     13 C21        22.5720   21.2690   15.4570 C.2       1 7BH         0.1112
     14 C4         24.3870   17.3600   15.6860 C.3       1 7BH         0.0323
     15 N5         25.6240   18.1530   15.6330 N.pl3     1 7BH        -0.2815
     16 C6         27.6160   17.3650   16.9050 C.3       1 7BH         0.0920
     17 O7         28.9440   16.9290   16.5770 O.3       1 7BH        -0.3194
     18 N15        25.8980   22.3370   15.6090 N.ar      1 7BH        -0.2948
     19 N17        26.8660   20.1260   15.6430 N.ar      1 7BH        -0.2689
     20 C18        24.6980   21.7170   15.5220 C.ar      1 7BH         0.1017
     21 N20        23.1290   20.0750   15.4880 N.pl3     1 7BH        -0.2409
     22 N22        23.4560   22.2850   15.4570 N.2       1 7BH        -0.2857
     23 C23        31.3880   16.2020   15.5780 C.3       1 7BH        -0.0330
     24 H1         27.4900   17.6170   14.7993 H         1 7BH         0.0588
     25 H2         26.8655   15.1252   15.7522 H         1 7BH         0.0289
     26 H3         26.2137   15.7552   14.2015 H         1 7BH         0.0289
     27 H4         24.8875   15.6847   16.9560 H         1 7BH         0.0286
     28 H5         24.1985   15.2320   15.3601 H         1 7BH         0.0286
     29 H6         28.8213   17.7915   19.1666 H         1 7BH         0.0521
     30 H7         30.7666   17.7826   20.6973 H         1 7BH         0.0531
     31 H8         32.9690   17.0240   19.8934 H         1 7BH         0.0505
     32 H9         33.2603   16.3223   17.5543 H         1 7BH         0.0526
     33 H10        27.8960   21.9057   15.7469 H         1 7BH         0.0974
     34 H11        21.4938   21.4205   15.4335 H         1 7BH         0.1402
     35 H12        23.7544   17.6820   16.5263 H         1 7BH         0.0525
     36 H13        23.8239   17.4546   14.7458 H         1 7BH         0.0525
     37 H14        27.1718   16.7012   17.6614 H         1 7BH         0.0634
     38 H15        27.6360   18.3959   17.2882 H         1 7BH         0.0634
     39 H16        22.6650   19.1554   15.4830 H         1 7BH         0.2376
     40 H17        30.4240   16.2678   15.0523 H         1 7BH         0.0368
     41 H18        31.7527   15.1647   15.5464 H         1 7BH         0.0368
     42 H19        32.1185   16.8627   15.0882 H         1 7BH         0.0368
@<TRIPOS>BOND
     1    1    2 1  
     2    1   15 1  
     3   16    1 1  
     4    2    3 1  
     5   14    3 1  
     6    4    5 ar 
     7    4    9 ar 
     8   17    4 1  
     9    5    6 ar 
    10    6    7 ar 
    11    8    7 ar 
    12    9    8 ar 
    13    9   23 1  
    14   10   12 ar 
    15   15   10 1  
    16   10   19 ar 
    17   11   18 ar 
    18   19   11 ar 
    19   12   20 ar 
    20   12   21 1  
    21   21   13 1  
    22   13   22 2  
    23   15   14 1  
    24   16   17 1  
    25   18   20 ar 
    26   20   22 1  
    27    1   24 1  
    28    2   25 1  
    29    2   26 1  
    30    3   27 1  
    31    3   28 1  
    32    5   29 1  
    33    6   30 1  
    34    7   31 1  
    35    8   32 1  
    36   11   33 1  
    37   13   34 1  
    38   14   35 1  
    39   14   36 1  
    40   16   37 1  
    41   16   38 1  
    42   21   39 1  
    43   23   40 1  
    44   23   41 1  
    45   23   42 1  
@<TRIPOS>SUBSTRUCTURE
     1 7BH         1

