### 
### Created by X-TOOL on Mon Sep 10 21:13:32 2018
### 

@<TRIPOS>MOLECULE
5lyx_ligand
   44    48     1     0     0
SMALL
GAST_HUCK


@<TRIPOS>ATOM
      1 C1        -29.4880  -17.3360   17.7440 C.ar      1 7BF         0.1121
      2 C2        -29.2410  -17.5440   19.0940 C.ar      1 7BF        -0.0282
      3 C3        -30.2470  -17.3510   20.0540 C.ar      1 7BF        -0.0686
      4 O4        -28.5310  -17.5390   16.7880 O.3       1 7BF        -0.3085
      5 C7        -31.8220  -16.7640   18.3280 C.ar      1 7BF         0.0009
      6 C8        -33.1150  -16.3680   17.9030 C.ar      1 7BF         0.0152
      7 C10       -32.4080  -16.3230   15.6670 C.ar      1 7BF         0.0054
      8 C11       -31.1250  -16.7050   15.9720 C.ar      1 7BF        -0.0303
      9 C12       -26.3370  -17.4440   15.7810 C.3       1 7BF         0.0791
     10 C13       -26.1520  -16.0300   15.1920 C.3       1 7BF        -0.0238
     11 C14       -24.8220  -15.5700   15.8500 C.3       1 7BF        -0.0289
     12 C15       -24.0240  -16.8810   16.0230 C.3       1 7BF         0.0405
     13 C20       -22.8880  -21.0680   15.7710 C.2       1 7BF        -0.0049
     14 C21       -23.2560  -19.7210   15.8190 C.2       1 7BF         0.0234
     15 C22       -25.1320  -21.6880   15.8800 C.2       1 7BF         0.2210
     16 N23       -25.5460  -20.3730   15.9510 N.pl3     1 7BF        -0.0826
     17 N26       -26.2220  -22.4350   15.9380 N.2       1 7BF        -0.3001
     18 C5        -31.5180  -16.9750   19.6910 C.ar      1 7BF        -0.0598
     19 C6        -30.7940  -16.9380   17.3330 C.ar      1 7BF         0.0334
     20 N9        -33.3500  -16.1780   16.6130 N.ar      1 7BF        -0.3006
     21 N16       -24.9830  -18.0130   15.9360 N.pl3     1 7BF        -0.2481
     22 C17       -27.1360  -17.4180   17.0910 C.3       1 7BF         0.0972
     23 C18       -24.6130  -19.3620   15.9050 C.2       1 7BF         0.2328
     24 N19       -23.8230  -21.9970   15.7920 N.2       1 7BF        -0.2748
     25 N24       -26.9510  -20.4170   16.0390 N.2       1 7BF        -0.1804
     26 C25       -27.3050  -21.6730   16.0300 C.2       1 7BF         0.0444
     27 H1        -28.2545  -17.8609   19.4124 H         1 7BF         0.0535
     28 H2        -30.0166  -17.5016   21.1025 H         1 7BF         0.0607
     29 H3        -33.9066  -16.2215   18.6289 H         1 7BF         0.0845
     30 H4        -32.6682  -16.1328   14.6320 H         1 7BF         0.0749
     31 H5        -30.3820  -16.8259   15.1920 H         1 7BF         0.0722
     32 H6        -26.8973  -18.0597   15.0619 H         1 7BF         0.0602
     33 H7        -26.9851  -15.3690   15.4730 H         1 7BF         0.0290
     34 H8        -26.0638  -16.0631   14.0961 H         1 7BF         0.0290
     35 H9        -25.0105  -15.0946   16.8239 H         1 7BF         0.0287
     36 H10       -24.2841  -14.8672   15.1968 H         1 7BF         0.0287
     37 H11       -23.5248  -16.8884   17.0032 H         1 7BF         0.0539
     38 H12       -23.2700  -16.9677   15.2268 H         1 7BF         0.0539
     39 H13       -21.8371  -21.3482   15.7167 H         1 7BF         0.0941
     40 H14       -22.4902  -18.9473   15.7897 H         1 7BF         0.0435
     41 H15       -32.2833  -16.8410   20.4469 H         1 7BF         0.0527
     42 H16       -26.8233  -18.2565   17.7306 H         1 7BF         0.0644
     43 H17       -26.9534  -16.4686   17.6157 H         1 7BF         0.0644
     44 H18       -28.3290  -22.0389   16.0888 H         1 7BF         0.0859
@<TRIPOS>BOND
     1    1    2 ar 
     2    4    1 1  
     3    1   19 ar 
     4    2    3 ar 
     5    3   18 ar 
     6   22    4 1  
     7    5    6 ar 
     8    5   18 ar 
     9   19    5 ar 
    10    6   20 ar 
    11    8    7 ar 
    12    7   20 ar 
    13   19    8 ar 
    14    9   10 1  
    15   21    9 1  
    16    9   22 1  
    17   11   10 1  
    18   12   11 1  
    19   21   12 1  
    20   14   13 1  
    21   13   24 2  
    22   23   14 2  
    23   16   15 1  
    24   15   17 2  
    25   15   24 1  
    26   23   16 1  
    27   16   25 1  
    28   17   26 1  
    29   21   23 1  
    30   25   26 2  
    31    2   27 1  
    32    3   28 1  
    33    6   29 1  
    34    7   30 1  
    35    8   31 1  
    36    9   32 1  
    37   10   33 1  
    38   10   34 1  
    39   11   35 1  
    40   11   36 1  
    41   12   37 1  
    42   12   38 1  
    43   13   39 1  
    44   14   40 1  
    45   18   41 1  
    46   22   42 1  
    47   22   43 1  
    48   26   44 1  
@<TRIPOS>SUBSTRUCTURE
     1 7BF         1

