### 
### Created by X-TOOL on Mon Sep 10 21:13:27 2018
### 

@<TRIPOS>MOLECULE
5lyy_ligand
   41    43     1     0     0
SMALL
GAST_HUCK


@<TRIPOS>ATOM
      1 C2         22.5580    9.0260   -4.5260 C.ar      1 7BJ         0.1203
      2 C3         23.2160    7.9420   -5.0190 C.ar      1 7BJ        -0.0370
      3 C5         24.1190    7.5620   -2.8270 C.ar      1 7BJ         0.0872
      4 C7         25.5680    5.7080   -2.3270 C.3       1 7BJ         0.0941
      5 C8         26.2250    5.0710   -1.1380 C.3       1 7BJ         0.0867
      6 C10        28.1890    3.5960   -1.7310 C.2       1 7BJ         0.2899
      7 C13        27.1460    1.4920   -1.7320 C.3       1 7BJ         0.1388
      8 C14        26.8160    0.7230   -3.0170 C.3       1 7BJ        -0.0197
      9 C15        27.7060   -0.4930   -3.2200 C.3       1 7BJ        -0.0516
     10 C16        27.6630   -1.4080   -2.0070 C.3       1 7BJ        -0.0532
     11 C19        26.1290    2.6070   -1.5070 C.2       1 7BJ         0.2551
     12 C21        23.4360    8.6730   -2.3530 C.ar      1 7BJ        -0.0347
     13 C22        22.6470    9.4100   -3.2170 C.ar      1 7BJ        -0.0370
     14 F1         21.7800    9.7560   -5.3720 F         1 7BJ        -0.1929
     15 C4         24.0060    7.1980   -4.1680 C.ar      1 7BJ        -0.0347
     16 O6         24.8770    6.8900   -1.8990 O.3       1 7BJ        -0.3182
     17 N9         26.8260    3.7840   -1.4620 N.am      1 7BJ        -0.1661
     18 O11        29.0180    4.4820   -1.8270 O.2       1 7BJ        -0.3910
     19 N12        28.3730    2.2740   -1.8540 N.am      1 7BJ        -0.2568
     20 C17        28.0650   -0.6600   -0.7460 C.3       1 7BJ        -0.0516
     21 C18        27.1740    0.5500   -0.5250 C.3       1 7BJ        -0.0197
     22 O20        24.9340    2.4850   -1.3890 O.2       1 7BJ        -0.3311
     23 H1         23.1209    7.6677   -6.0634 H         1 7BJ         0.0577
     24 H2         24.8517    5.0033   -2.7745 H         1 7BJ         0.0636
     25 H3         26.3322    5.9763   -3.0713 H         1 7BJ         0.0636
     26 H4         25.4683    4.9206   -0.3540 H         1 7BJ         0.0602
     27 H5         27.0107    5.7444   -0.7650 H         1 7BJ         0.0602
     28 H6         26.9444    1.3998   -3.8746 H         1 7BJ         0.0277
     29 H7         25.7693    0.3883   -2.9675 H         1 7BJ         0.0277
     30 H8         28.7413   -0.1582   -3.3814 H         1 7BJ         0.0265
     31 H9         27.3587   -1.0496   -4.1029 H         1 7BJ         0.0265
     32 H10        28.3570   -2.2468   -2.1643 H         1 7BJ         0.0265
     33 H11        26.6409   -1.7957   -1.8848 H         1 7BJ         0.0265
     34 H12        23.5205    8.9615   -1.3115 H         1 7BJ         0.0533
     35 H13        22.1067   10.2799   -2.8614 H         1 7BJ         0.0577
     36 H14        24.5387    6.3309   -4.5415 H         1 7BJ         0.0533
     37 H15        29.2693    1.8608   -2.0147 H         1 7BJ         0.1840
     38 H16        29.1085   -0.3257   -0.8430 H         1 7BJ         0.0265
     39 H17        27.9751   -1.3356    0.1174 H         1 7BJ         0.0265
     40 H18        26.1497    0.2012   -0.3270 H         1 7BJ         0.0277
     41 H19        27.5468    1.1068    0.3473 H         1 7BJ         0.0277
@<TRIPOS>BOND
     1    2    1 ar 
     2    1   13 ar 
     3    1   14 1  
     4   15    2 ar 
     5    3   12 ar 
     6    3   15 ar 
     7   16    3 1  
     8    5    4 1  
     9    4   16 1  
    10   17    5 1  
    11    6   17 am 
    12    6   18 2  
    13   19    6 am 
    14    7    8 1  
    15    7   11 1  
    16    7   19 1  
    17    7   21 1  
    18    8    9 1  
    19    9   10 1  
    20   10   20 1  
    21   11   17 am 
    22   11   22 2  
    23   12   13 ar 
    24   20   21 1  
    25    2   23 1  
    26    4   24 1  
    27    4   25 1  
    28    5   26 1  
    29    5   27 1  
    30    8   28 1  
    31    8   29 1  
    32    9   30 1  
    33    9   31 1  
    34   10   32 1  
    35   10   33 1  
    36   12   34 1  
    37   13   35 1  
    38   15   36 1  
    39   19   37 1  
    40   20   38 1  
    41   20   39 1  
    42   21   40 1  
    43   21   41 1  
@<TRIPOS>SUBSTRUCTURE
     1 7BJ         1

