### 
### Created by X-TOOL on Mon Sep 10 21:13:27 2018
### 

@<TRIPOS>MOLECULE
5lz2_ligand
   25    26     1     0     0
SMALL
GAST_HUCK


@<TRIPOS>ATOM
      1 N4         25.4730    4.9660   -2.7160 N.am      1 7BX        -0.2442
      2 C5         25.3080    3.7330   -2.0130 C.3       1 7BX         0.0379
      3 C6         23.9670    3.0660   -2.0380 C.3       1 7BX        -0.0315
      4 C7         25.1060    2.4730   -2.7970 C.3       1 7BX        -0.0315
      5 C8         24.1110    7.3260   -2.9480 C.ar      1 7BX         0.1190
      6 C10        23.0430    7.7700   -5.0420 C.ar      1 7BX        -0.0488
      7 C11        22.2950    8.7660   -4.4490 C.ar      1 7BX        -0.0269
      8 C12        22.4510    9.0500   -3.0940 C.ar      1 7BX         0.0975
      9 C13        21.6710   10.0890   -2.4730 C.1       1 7BX         0.1005
     10 C15        23.3690    8.3190   -2.3470 C.ar      1 7BX        -0.0003
     11 O1         24.6770    6.1420   -0.7210 O.2       1 7BX        -0.1501
     12 S2         25.2690    6.4090   -1.9960 S.o2      1 7BX         0.0705
     13 O3         26.5090    7.1120   -2.0650 O.2       1 7BX        -0.1501
     14 C9         23.9500    7.0500   -4.2960 C.ar      1 7BX        -0.0265
     15 N14        21.0540   10.9120   -1.9810 N.1       1 7BX        -0.3284
     16 H1         25.7225    4.9403   -3.6840 H         1 7BX         0.1675
     17 H2         25.9191    3.7318   -1.0984 H         1 7BX         0.0511
     18 H3         23.1306    3.5335   -2.5783 H         1 7BX         0.0284
     19 H4         23.5862    2.5634   -1.1367 H         1 7BX         0.0284
     20 H5         25.5644    1.5334   -2.4550 H         1 7BX         0.0284
     21 H6         25.1088    2.5034   -3.8966 H         1 7BX         0.0284
     22 H7         22.9168    7.5536   -6.0967 H         1 7BX         0.0642
     23 H8         21.5826    9.3302   -5.0400 H         1 7BX         0.0718
     24 H9         23.5005    8.5307   -1.2920 H         1 7BX         0.0738
     25 H10        24.5374    6.2680   -4.7634 H         1 7BX         0.0708
@<TRIPOS>BOND
     1    1    2 1  
     2   12    1 am 
     3    2    3 1  
     4    2    4 1  
     5    4    3 1  
     6    5   10 ar 
     7    5   12 1  
     8   14    5 ar 
     9    6    7 ar 
    10    6   14 ar 
    11    7    8 ar 
    12    8    9 1  
    13    8   10 ar 
    14    9   15 3  
    15   12   11 2  
    16   12   13 2  
    17    1   16 1  
    18    2   17 1  
    19    3   18 1  
    20    3   19 1  
    21    4   20 1  
    22    4   21 1  
    23    6   22 1  
    24    7   23 1  
    25   10   24 1  
    26   14   25 1  
@<TRIPOS>SUBSTRUCTURE
     1 7BX         1

