### 
### Created by X-TOOL on Mon Sep 10 21:13:26 2018
### 

@<TRIPOS>MOLECULE
5lz4_ligand
   37    38     1     0     0
SMALL
GAST_HUCK


@<TRIPOS>ATOM
      1 C1         27.7020    0.3500   -0.4150 C.3       1 7BW        -0.0559
      2 C2         27.5060    1.2580   -1.6440 C.3       1 7BW         0.0022
      3 C3         27.2260    0.3930   -2.8890 C.3       1 7BW        -0.0559
      4 C6         26.2360    4.7840   -1.0430 C.3       1 7BW         0.0615
      5 C7         25.4770    5.3410   -2.2320 C.3       1 7BW         0.0899
      6 C10        24.0470    6.9580   -4.1260 C.ar      1 7BW        -0.0257
      7 C11        23.2680    7.7190   -4.9740 C.ar      1 7BW        -0.0248
      8 C12        22.5560    8.7800   -4.4750 C.ar      1 7BW         0.1573
      9 C14        22.5930    9.1150   -3.1300 C.ar      1 7BW         0.1204
     10 C15        21.8530   10.2170   -2.6140 C.1       1 7BW         0.0957
     11 C4         26.3450    2.2670   -1.4070 C.3       1 7BW         0.0412
     12 N5         26.9810    3.5780   -1.3600 N.am      1 7BW        -0.2700
     13 O8         24.8510    6.5740   -1.8410 O.3       1 7BW        -0.3165
     14 C9         24.1090    7.2660   -2.7690 C.ar      1 7BW         0.0978
     15 F13        21.7930    9.5240   -5.3100 F         1 7BW        -0.1810
     16 N16        21.2510   11.1130   -2.1950 N.1       1 7BW        -0.3322
     17 C17        23.3840    8.3420   -2.2730 C.ar      1 7BW        -0.0002
     18 C18        28.2920    3.5670   -1.6380 C.2       1 7BW         0.1791
     19 O19        29.0040    4.5600   -1.6970 O.2       1 7BW        -0.3969
     20 C20        28.7500    2.1550   -1.8660 C.3       1 7BW         0.0444
     21 H1         26.8089   -0.2769   -0.2762 H         1 7BW         0.0237
     22 H2         27.8562    0.9716    0.4793 H         1 7BW         0.0237
     23 H3         28.5808   -0.2931   -0.5706 H         1 7BW         0.0237
     24 H4         27.0866    1.0445   -3.7643 H         1 7BW         0.0237
     25 H5         26.3148   -0.2011   -2.7254 H         1 7BW         0.0237
     26 H6         28.0767   -0.2815   -3.0658 H         1 7BW         0.0237
     27 H7         25.5156    4.5514   -0.2449 H         1 7BW         0.0549
     28 H8         26.9421    5.5491   -0.6881 H         1 7BW         0.0549
     29 H9         24.7093    4.6210   -2.5516 H         1 7BW         0.0632
     30 H10        26.1741    5.5267   -3.0624 H         1 7BW         0.0632
     31 H11        24.6115    6.1192   -4.5168 H         1 7BW         0.0607
     32 H12        23.2190    7.4792   -6.0300 H         1 7BW         0.0602
     33 H13        25.8348    2.0516   -0.4566 H         1 7BW         0.0529
     34 H14        25.6188    2.2201   -2.2319 H         1 7BW         0.0529
     35 H15        23.4312    8.5839   -1.2174 H         1 7BW         0.0628
     36 H16        29.1272    2.0372   -2.8926 H         1 7BW         0.0508
     37 H17        29.5434    1.8910   -1.1513 H         1 7BW         0.0508
@<TRIPOS>BOND
     1    2    1 1  
     2    2    3 1  
     3   11    2 1  
     4    2   20 1  
     5    5    4 1  
     6    4   12 1  
     7   13    5 1  
     8    6    7 ar 
     9   14    6 ar 
    10    7    8 ar 
    11    8    9 ar 
    12    8   15 1  
    13    9   10 1  
    14    9   17 ar 
    15   10   16 3  
    16   12   11 1  
    17   12   18 am 
    18   13   14 1  
    19   14   17 ar 
    20   18   19 2  
    21   18   20 1  
    22    1   21 1  
    23    1   22 1  
    24    1   23 1  
    25    3   24 1  
    26    3   25 1  
    27    3   26 1  
    28    4   27 1  
    29    4   28 1  
    30    5   29 1  
    31    5   30 1  
    32    6   31 1  
    33    7   32 1  
    34   11   33 1  
    35   11   34 1  
    36   17   35 1  
    37   20   36 1  
    38   20   37 1  
@<TRIPOS>SUBSTRUCTURE
     1 7BW         1

