### 
### Created by X-TOOL on Mon Sep 10 21:13:28 2018
### 

@<TRIPOS>MOLECULE
5lz5_ligand
   44    46     1     0     0
SMALL
GAST_HUCK


@<TRIPOS>ATOM
      1 C1         27.5610    1.7710   -4.0870 C.3       1 7K4        -0.0792
      2 C2         27.7950    1.6730   -2.5810 C.3       1 7K4        -0.0024
      3 C3         26.8590    2.6400   -1.8160 C.3       1 7K4         0.0189
      4 N4         27.5850    3.9040   -1.8210 N.am      1 7K4        -0.2788
      5 C5         26.9560    5.1660   -1.4710 C.3       1 7K4         0.0606
      6 C6         26.2670    5.8150   -2.6380 C.3       1 7K4         0.0899
      7 C8         24.7390    7.6340   -3.0300 C.ar      1 7K4         0.0978
      8 C10        23.7970    8.1440   -5.1750 C.ar      1 7K4        -0.0248
      9 C11        23.0850    9.1650   -4.6000 C.ar      1 7K4         0.1573
     10 C13        23.1750    9.4480   -3.2500 C.ar      1 7K4         0.1204
     11 C14        22.4150   10.5280   -2.6720 C.1       1 7K4         0.0957
     12 C16        24.0130    8.6710   -2.4600 C.ar      1 7K4        -0.0002
     13 C19        29.1670    2.2890   -2.2180 C.3       1 7K4         0.0216
     14 C21        28.6130   -0.6710   -2.0320 C.ar      1 7K4        -0.0391
     15 C22        28.3830   -1.9830   -1.6700 C.ar      1 7K4        -0.0324
     16 C23        27.1010   -2.4250   -1.4500 C.ar      1 7K4        -0.0340
     17 C24        26.0430   -1.5600   -1.5910 C.ar      1 7K4        -0.0324
     18 C25        26.2630   -0.2480   -1.9520 C.ar      1 7K4        -0.0391
     19 O7         25.5270    6.9400   -2.1510 O.3       1 7K4        -0.3165
     20 C9         24.6280    7.3730   -4.3900 C.ar      1 7K4        -0.0257
     21 F12        22.2700    9.9210   -5.3700 F         1 7K4        -0.1810
     22 N15        21.8150   11.3800   -2.2170 N.1       1 7K4        -0.3322
     23 C17        28.8920    3.7600   -2.0740 C.2       1 7K4         0.1702
     24 O18        29.7000    4.6740   -2.1690 O.2       1 7K4        -0.3978
     25 C20        27.5530    0.2180   -2.1790 C.ar      1 7K4        -0.0429
     26 H1         27.7260    2.8073   -4.4170 H         1 7K4         0.0141
     27 H2         26.5276    1.4729   -4.3177 H         1 7K4         0.0141
     28 H3         28.2609    1.1035   -4.6110 H         1 7K4         0.0141
     29 H4         26.6898    2.2895   -0.7872 H         1 7K4         0.0431
     30 H5         25.8931    2.7410   -2.3326 H         1 7K4         0.0431
     31 H6         27.7290    5.8515   -1.0934 H         1 7K4         0.0548
     32 H7         26.2123    4.9814   -0.6818 H         1 7K4         0.0548
     33 H8         25.5828    5.0966   -3.1131 H         1 7K4         0.0632
     34 H9         27.0143    6.1504   -3.3722 H         1 7K4         0.0632
     35 H10        23.7074    7.9448   -6.2368 H         1 7K4         0.0602
     36 H11        24.1000    8.8744   -1.3988 H         1 7K4         0.0628
     37 H12        29.8992    2.1068   -3.0184 H         1 7K4         0.0412
     38 H13        29.5441    1.8696   -1.2736 H         1 7K4         0.0412
     39 H14        29.6278   -0.3306   -2.2031 H         1 7K4         0.0850
     40 H15        29.2167   -2.6668   -1.5589 H         1 7K4         0.0698
     41 H16        26.9243   -3.4559   -1.1653 H         1 7K4         0.0856
     42 H17        25.0319   -1.9104   -1.4178 H         1 7K4         0.0698
     43 H18        25.4218    0.4271   -2.0600 H         1 7K4         0.0850
     44 H19        25.1949    6.5629   -4.8342 H         1 7K4         0.0607
@<TRIPOS>BOND
     1    2    1 1  
     2    2    3 1  
     3    2   13 1  
     4   25    2 1  
     5    3    4 1  
     6    4    5 1  
     7   23    4 am 
     8    5    6 1  
     9    6   19 1  
    10    7   12 ar 
    11   19    7 1  
    12    7   20 ar 
    13    8    9 ar 
    14   20    8 ar 
    15   10    9 ar 
    16    9   21 1  
    17   10   11 1  
    18   12   10 ar 
    19   11   22 3  
    20   13   23 1  
    21   14   15 ar 
    22   14   25 ar 
    23   15   16 ar 
    24   16   17 ar 
    25   17   18 ar 
    26   18   25 ar 
    27   23   24 2  
    28    1   26 1  
    29    1   27 1  
    30    1   28 1  
    31    3   29 1  
    32    3   30 1  
    33    5   31 1  
    34    5   32 1  
    35    6   33 1  
    36    6   34 1  
    37    8   35 1  
    38   12   36 1  
    39   13   37 1  
    40   13   38 1  
    41   14   39 1  
    42   15   40 1  
    43   16   41 1  
    44   17   42 1  
    45   18   43 1  
    46   20   44 1  
@<TRIPOS>SUBSTRUCTURE
     1 7K4         1

