### 
### Created by X-TOOL on Mon Sep 10 21:13:28 2018
### 

@<TRIPOS>MOLECULE
5lz7_ligand
   44    46     1     0     0
SMALL
GAST_HUCK


@<TRIPOS>ATOM
      1 C1         27.5140    0.5560   -0.5230 C.3       1 7BK        -0.0792
      2 C2         27.3820    1.3590   -1.8280 C.3       1 7BK        -0.0024
      3 C3         26.1920    2.3480   -1.6930 C.3       1 7BK         0.0189
      4 N4         26.8080    3.6500   -1.4890 N.am      1 7BK        -0.2788
      5 C5         26.0290    4.8240   -1.1430 C.3       1 7BK         0.0606
      6 C6         25.3970    5.4770   -2.3480 C.3       1 7BK         0.0899
      7 C8         23.9240    7.3220   -2.8410 C.ar      1 7BK         0.0978
      8 C10        23.0660    7.7710   -5.0380 C.ar      1 7BK        -0.0248
      9 C11        22.3720    8.8420   -4.5330 C.ar      1 7BK         0.1573
     10 C13        22.4300    9.1810   -3.1910 C.ar      1 7BK         0.1204
     11 C14        21.7070   10.2990   -2.6650 C.1       1 7BK         0.0957
     12 C16        23.2190    8.4070   -2.3410 C.ar      1 7BK        -0.0002
     13 C19        28.6080    2.2920   -2.0260 C.3       1 7BK         0.0216
     14 C21        26.2350    0.2740   -3.8450 C.ar      1 7BK        -0.0391
     15 C22        26.2330   -0.5920   -4.9230 C.ar      1 7BK        -0.0324
     16 C23        27.3490   -1.3440   -5.2100 C.ar      1 7BK        -0.0340
     17 C24        28.4700   -1.2350   -4.4230 C.ar      1 7BK        -0.0324
     18 C25        28.4800   -0.3700   -3.3420 C.ar      1 7BK        -0.0391
     19 O7         24.6650    6.6330   -1.9140 O.3       1 7BK        -0.3165
     20 C9         23.8440    7.0080   -4.1940 C.ar      1 7BK        -0.0257
     21 F12        21.6080    9.5900   -5.3640 F         1 7BK        -0.1810
     22 N15        21.1240   11.1980   -2.2420 N.1       1 7BK        -0.3322
     23 C17        28.1090    3.6900   -1.7920 C.2       1 7BK         0.1702
     24 O18        28.7780    4.7120   -1.8640 O.2       1 7BK        -0.3978
     25 C20        27.3600    0.4010   -3.0330 C.ar      1 7BK        -0.0429
     26 H1         27.5290    1.2470    0.3327 H         1 7BK         0.0141
     27 H2         28.4484   -0.0240   -0.5423 H         1 7BK         0.0141
     28 H3         26.6590   -0.1292   -0.4260 H         1 7BK         0.0141
     29 H4         25.5613    2.0794   -0.8328 H         1 7BK         0.0431
     30 H5         25.5827    2.3475   -2.6088 H         1 7BK         0.0431
     31 H6         26.6903    5.5538   -0.6532 H         1 7BK         0.0548
     32 H7         25.2323    4.5253   -0.4458 H         1 7BK         0.0548
     33 H8         24.7130    4.7679   -2.8371 H         1 7BK         0.0632
     34 H9         26.1804    5.7801   -3.0582 H         1 7BK         0.0632
     35 H10        23.0028    7.5271   -6.0923 H         1 7BK         0.0602
     36 H11        23.2816    8.6536   -1.2873 H         1 7BK         0.0628
     37 H12        29.0019    2.1933   -3.0483 H         1 7BK         0.0412
     38 H13        29.3984    2.0426   -1.3028 H         1 7BK         0.0412
     39 H14        25.3500    0.8615   -3.6289 H         1 7BK         0.0850
     40 H15        25.3490   -0.6788   -5.5443 H         1 7BK         0.0698
     41 H16        27.3438   -2.0217   -6.0561 H         1 7BK         0.0856
     42 H17        29.3489   -1.8278   -4.6491 H         1 7BK         0.0698
     43 H18        29.3699   -0.2911   -2.7280 H         1 7BK         0.0850
     44 H19        24.3952    6.1607   -4.5856 H         1 7BK         0.0607
@<TRIPOS>BOND
     1    2    1 1  
     2    2    3 1  
     3    2   13 1  
     4   25    2 1  
     5    3    4 1  
     6    4    5 1  
     7   23    4 am 
     8    5    6 1  
     9    6   19 1  
    10    7   12 ar 
    11   19    7 1  
    12    7   20 ar 
    13    8    9 ar 
    14   20    8 ar 
    15   10    9 ar 
    16    9   21 1  
    17   10   11 1  
    18   12   10 ar 
    19   11   22 3  
    20   13   23 1  
    21   14   15 ar 
    22   14   25 ar 
    23   15   16 ar 
    24   16   17 ar 
    25   17   18 ar 
    26   18   25 ar 
    27   23   24 2  
    28    1   26 1  
    29    1   27 1  
    30    1   28 1  
    31    3   29 1  
    32    3   30 1  
    33    5   31 1  
    34    5   32 1  
    35    6   33 1  
    36    6   34 1  
    37    8   35 1  
    38   12   36 1  
    39   13   37 1  
    40   13   38 1  
    41   14   39 1  
    42   15   40 1  
    43   16   41 1  
    44   17   42 1  
    45   18   43 1  
    46   20   44 1  
@<TRIPOS>SUBSTRUCTURE
     1 7BK         1

