### 
### Created by X-TOOL on Mon Sep 10 21:13:28 2018
### 

@<TRIPOS>MOLECULE
5lz8_ligand
   43    44     1     0     0
SMALL
GAST_HUCK


@<TRIPOS>ATOM
      1 C1         25.9900   -0.4430   -2.6410 C.3       1 7BP        -0.0596
      2 C2         27.3860    0.1030   -2.2740 C.3       1 7BP        -0.0310
      3 C3         27.6450   -0.1440   -0.7760 C.3       1 7BP        -0.0596
      4 C5         27.4500    1.6290   -2.6000 C.3       1 7BP         0.0011
      5 C7         26.3900    2.5040   -1.9220 C.3       1 7BP         0.0393
      6 C10        25.6600    5.7070   -2.5500 C.3       1 7BP         0.0899
      7 C12        24.1280    7.5310   -2.9050 C.ar      1 7BP         0.0978
      8 C13        24.0600    7.2960   -4.2770 C.ar      1 7BP        -0.0257
      9 C14        23.2650    8.0880   -5.0810 C.ar      1 7BP        -0.0248
     10 C15        22.5430    9.1060   -4.5140 C.ar      1 7BP         0.1573
     11 C21        28.3590    3.7700   -2.0620 C.2       1 7BP         0.1789
     12 C23        28.7730    2.3440   -2.3010 C.3       1 7BP         0.0425
     13 C4         28.4460   -0.6480   -3.1030 C.3       1 7BP        -0.0596
     14 N8         27.0390    3.8040   -1.8200 N.am      1 7BP        -0.2702
     15 C9         26.3230    4.9980   -1.4050 C.3       1 7BP         0.0615
     16 O11        24.8900    6.7970   -2.0290 O.3       1 7BP        -0.3165
     17 F16        21.7580    9.8890   -5.2950 F         1 7BP        -0.1810
     18 C17        22.5940    9.3590   -3.1510 C.ar      1 7BP         0.1204
     19 C18        21.8090   10.4520   -2.5930 C.1       1 7BP         0.0957
     20 N19        21.2070   11.2910   -2.1660 N.1       1 7BP        -0.3322
     21 C20        23.3920    8.5650   -2.3420 C.ar      1 7BP        -0.0002
     22 O22        29.0930    4.7480   -2.0800 O.2       1 7BP        -0.3969
     23 H1         25.9447   -1.5178   -2.4115 H         1 7BP         0.0235
     24 H2         25.8068   -0.2894   -3.7147 H         1 7BP         0.0235
     25 H3         25.2234    0.0889   -2.0584 H         1 7BP         0.0235
     26 H4         28.6390    0.2429   -0.5071 H         1 7BP         0.0235
     27 H5         27.6038   -1.2237   -0.5699 H         1 7BP         0.0235
     28 H6         26.8773    0.3724   -0.1811 H         1 7BP         0.0235
     29 H7         27.2837    1.6942   -3.6854 H         1 7BP         0.0350
     30 H8         26.1348    2.1125   -0.9262 H         1 7BP         0.0527
     31 H9         25.4795    2.5660   -2.5361 H         1 7BP         0.0527
     32 H10        24.9993    5.0092   -3.0852 H         1 7BP         0.0632
     33 H11        26.4250    6.0908   -3.2410 H         1 7BP         0.0632
     34 H12        24.6341    6.4875   -4.7149 H         1 7BP         0.0607
     35 H13        23.2123    7.9070   -6.1485 H         1 7BP         0.0602
     36 H14        29.4600    2.2729   -3.1571 H         1 7BP         0.0506
     37 H15        29.2552    1.9202   -1.4078 H         1 7BP         0.0506
     38 H16        28.3988   -1.7223   -2.8716 H         1 7BP         0.0235
     39 H17        29.4461   -0.2630   -2.8547 H         1 7BP         0.0235
     40 H18        28.2497   -0.4948   -4.1744 H         1 7BP         0.0235
     41 H19        25.5512    4.7093   -0.6763 H         1 7BP         0.0549
     42 H20        27.0361    5.6879   -0.9301 H         1 7BP         0.0549
     43 H21        23.4412    8.7505   -1.2751 H         1 7BP         0.0628
@<TRIPOS>BOND
     1    2    1 1  
     2    2    3 1  
     3    4    2 1  
     4    2   13 1  
     5    5    4 1  
     6   12    4 1  
     7   14    5 1  
     8   15    6 1  
     9    6   16 1  
    10    7    8 ar 
    11   16    7 1  
    12    7   21 ar 
    13    8    9 ar 
    14    9   10 ar 
    15   10   17 1  
    16   10   18 ar 
    17   11   12 1  
    18   14   11 am 
    19   11   22 2  
    20   14   15 1  
    21   18   19 1  
    22   18   21 ar 
    23   19   20 3  
    24    1   23 1  
    25    1   24 1  
    26    1   25 1  
    27    3   26 1  
    28    3   27 1  
    29    3   28 1  
    30    4   29 1  
    31    5   30 1  
    32    5   31 1  
    33    6   32 1  
    34    6   33 1  
    35    8   34 1  
    36    9   35 1  
    37   12   36 1  
    38   12   37 1  
    39   13   38 1  
    40   13   39 1  
    41   13   40 1  
    42   15   41 1  
    43   15   42 1  
    44   21   43 1  
@<TRIPOS>SUBSTRUCTURE
     1 7BP         1

