### 
### Created by X-TOOL on Mon Sep 10 21:13:28 2018
### 

@<TRIPOS>MOLECULE
5lz9_ligand
   50    52     1     0     0
SMALL
GAST_HUCK


@<TRIPOS>ATOM
      1 C1         27.7630   -0.2030   -0.4370 C.3       1 7BR        -0.0590
      2 C2         27.4310    0.0750   -1.9180 C.3       1 7BR        -0.0224
      3 C3         28.4580   -0.6050   -2.8450 C.3       1 7BR        -0.0277
      4 C8         25.8420   -1.9500   -2.1030 C.3       1 7BR         0.0663
      5 C10        27.4570    1.5990   -2.2150 C.3       1 7BR         0.0017
      6 C12        26.4060    2.4480   -1.4940 C.3       1 7BR         0.0393
      7 C14        26.2630    4.9640   -1.1390 C.3       1 7BR         0.0615
      8 C15        25.5280    5.5200   -2.3290 C.3       1 7BR         0.0899
      9 C19        23.2510    7.7950   -5.0770 C.ar      1 7BR        -0.0248
     10 C22        22.5690    9.1970   -3.2380 C.ar      1 7BR         0.1204
     11 C23        21.8280   10.3100   -2.7130 C.1       1 7BR         0.0957
     12 C25        23.3410    8.4280   -2.3740 C.ar      1 7BR        -0.0002
     13 C26        28.3280    3.7610   -1.7490 C.2       1 7BR         0.1789
     14 C28        28.7690    2.3360   -1.9360 C.3       1 7BR         0.0426
     15 C4         28.5110   -2.1180   -2.7070 C.3       1 7BR         0.0663
     16 S5         26.9630   -2.8580   -3.1180 S.o2      1 7BR        -0.0310
     17 O6         26.6740   -2.5960   -4.5030 O.2       1 7BR        -0.1744
     18 O7         26.9770   -4.2260   -2.6810 O.2       1 7BR        -0.1744
     19 C9         26.0210   -0.4490   -2.2720 C.3       1 7BR        -0.0277
     20 N13        27.0160    3.7690   -1.4680 N.am      1 7BR        -0.2702
     21 O16        24.7850    6.6710   -1.9120 O.3       1 7BR        -0.3165
     22 C17        24.0630    7.3510   -2.8610 C.ar      1 7BR         0.0978
     23 C18        24.0150    7.0370   -4.2160 C.ar      1 7BR        -0.0257
     24 C20        22.5410    8.8600   -4.5850 C.ar      1 7BR         0.1573
     25 F21        21.7910    9.6030   -5.4300 F         1 7BR        -0.1810
     26 N24        21.2370   11.1960   -2.2960 N.1       1 7BR        -0.3322
     27 O27        29.0350    4.7540   -1.8340 O.2       1 7BR        -0.3969
     28 H1         27.7381   -1.2872   -0.2529 H         1 7BR         0.0235
     29 H2         27.0213    0.2950    0.2048 H         1 7BR         0.0235
     30 H3         28.7663    0.1849   -0.2070 H         1 7BR         0.0235
     31 H4         29.4544   -0.2016   -2.6118 H         1 7BR         0.0286
     32 H5         28.1983   -0.3618   -3.8859 H         1 7BR         0.0286
     33 H6         26.0202   -2.2141   -1.0501 H         1 7BR         0.0500
     34 H7         24.8120   -2.2197   -2.3795 H         1 7BR         0.0500
     35 H8         27.2606    1.6795   -3.2943 H         1 7BR         0.0350
     36 H9         26.2272    2.0748   -0.4748 H         1 7BR         0.0527
     37 H10        25.4578    2.4611   -2.0514 H         1 7BR         0.0527
     38 H11        25.5320    4.7171   -0.3550 H         1 7BR         0.0549
     39 H12        26.9589    5.7288   -0.7637 H         1 7BR         0.0549
     40 H13        24.8402    4.7598   -2.7278 H         1 7BR         0.0632
     41 H14        26.2490    5.8072   -3.1085 H         1 7BR         0.0632
     42 H15        23.2118    7.5517   -6.1326 H         1 7BR         0.0602
     43 H16        23.3777    8.6717   -1.3184 H         1 7BR         0.0628
     44 H17        29.4611    2.2454   -2.7862 H         1 7BR         0.0506
     45 H18        29.2528    1.9501   -1.0266 H         1 7BR         0.0506
     46 H19        28.7649   -2.3737   -1.6677 H         1 7BR         0.0500
     47 H20        29.2858   -2.5117   -3.3812 H         1 7BR         0.0500
     48 H21        25.8143   -0.1950   -3.3221 H         1 7BR         0.0286
     49 H22        25.2932    0.0585   -1.6219 H         1 7BR         0.0286
     50 H23        24.5803    6.1935   -4.5954 H         1 7BR         0.0607
@<TRIPOS>BOND
     1    2    1 1  
     2    2    3 1  
     3    5    2 1  
     4    2   19 1  
     5    3   15 1  
     6    4   16 1  
     7   19    4 1  
     8    6    5 1  
     9   14    5 1  
    10   20    6 1  
    11    8    7 1  
    12    7   20 1  
    13   21    8 1  
    14    9   23 ar 
    15   24    9 ar 
    16   10   11 1  
    17   12   10 ar 
    18   10   24 ar 
    19   11   26 3  
    20   22   12 ar 
    21   13   14 1  
    22   20   13 am 
    23   13   27 2  
    24   15   16 1  
    25   16   17 2  
    26   16   18 2  
    27   21   22 1  
    28   22   23 ar 
    29   24   25 1  
    30    1   28 1  
    31    1   29 1  
    32    1   30 1  
    33    3   31 1  
    34    3   32 1  
    35    4   33 1  
    36    4   34 1  
    37    5   35 1  
    38    6   36 1  
    39    6   37 1  
    40    7   38 1  
    41    7   39 1  
    42    8   40 1  
    43    8   41 1  
    44    9   42 1  
    45   12   43 1  
    46   14   44 1  
    47   14   45 1  
    48   15   46 1  
    49   15   47 1  
    50   19   48 1  
    51   19   49 1  
    52   23   50 1  
@<TRIPOS>SUBSTRUCTURE
     1 7BR         1

