### 
### Created by X-TOOL on Mon Sep 10 21:13:31 2018
### 

@<TRIPOS>MOLECULE
5lzg_ligand
   81    83     1     0     0
SMALL
GAST_HUCK


@<TRIPOS>ATOM
      1 C4        -19.4880    6.5620    0.7800 C.3       1 7BN         0.1117
      2 C5        -18.3600    7.6270    0.5590 C.3       1 7BN         0.1104
      3 C6        -17.0920    7.1370    1.2720 C.3       1 7BN         0.0729
      4 C3        -20.7150    7.0070   -0.0700 C.3       1 7BN         0.1117
      5 O2        -21.5280    7.8700   -2.1180 O.3       1 7BN        -0.3866
      6 C2        -20.3050    7.3040   -1.4660 C.3       1 7BN         0.1096
      7 O3        -21.7500    5.9710    0.0100 O.3       1 7BN        -0.3865
      8 O4        -19.0170    5.2930    0.3460 O.3       1 7BN        -0.3865
      9 O6        -16.1610    8.2240    1.2260 O.3       1 7BN        -0.3924
     10 O5        -18.0580    7.8010   -0.8020 O.3       1 7BN        -0.3657
     11 C1        -19.2010    8.3950   -1.4840 C.3       1 7BN         0.0894
     12 CBQ       -18.6450    8.6610   -2.8470 C.3       1 7BN        -0.0038
     13 CBE       -18.0880   10.0890   -2.8070 C.3       1 7BN         0.0333
     14 NAA       -17.5100   10.4830   -4.0930 N.am      1 7BN        -0.2868
     15 CAB       -18.2680   10.8980   -5.1380 C.2       1 7BN         0.1774
     16 OAD       -19.4960   10.8050   -5.1260 O.2       1 7BN        -0.3969
     17 CAC       -17.5240   11.4400   -6.3460 C.3       1 7BN         0.0439
     18 CAE       -18.1530   12.7400   -6.9180 C.3       1 7BN        -0.0015
     19 CAF       -18.5150   13.7410   -5.8320 C.2       1 7BN         0.0392
     20 CAH       -17.8810   13.9060   -4.6680 C.2       1 7BN         0.0717
     21 NAG       -19.4970   14.6320   -5.8950 N.2       1 7BN        -0.2264
     22 NAJ       -19.5370   15.3140   -4.7660 N.2       1 7BN        -0.1003
     23 NAI       -18.5020   14.8760   -4.0140 N.pl3     1 7BN        -0.1465
     24 CAR       -18.3040   15.4330   -2.6970 C.3       1 7BN         0.2460
     25 CBA       -19.2520   14.5930   -1.7950 C.2       1 7BN         0.1122
     26 OBC       -20.2820   15.1160   -1.3170 O.co2     1 7BN        -0.5421
     27 OBB       -18.8230   13.4450   -1.4700 O.co2     1 7BN        -0.5421
     28 OAS       -16.8970   15.1720   -2.4430 O.3       1 7BN        -0.3327
     29 CAQ       -18.5520   16.9270   -2.6680 C.3       1 7BN         0.0426
     30 CAP       -18.0660   17.4480   -1.2910 C.3       1 7BN         0.0857
     31 OBD       -18.1440   18.8910   -1.3540 O.3       1 7BN        -0.3893
     32 CAO       -16.6120   17.0360   -0.9800 C.3       1 7BN         0.0965
     33 NAN       -16.3350   17.4850    0.3840 N.am      1 7BN        -0.2790
     34 CAL       -15.0690   17.8470    0.7610 C.2       1 7BN         0.1733
     35 OAM       -14.1020   17.7190    0.0390 O.2       1 7BN        -0.3974
     36 CAK       -14.9610   18.3150    2.1800 C.3       1 7BN         0.0257
     37 CAT       -16.5300   15.5390   -1.0980 C.3       1 7BN         0.1150
     38 CAU       -15.1240   14.9360   -0.9230 C.3       1 7BN         0.1114
     39 OAZ       -14.1540   15.6640   -1.7030 O.3       1 7BN        -0.3865
     40 CAV       -15.1180   13.4500   -1.3520 C.3       1 7BN         0.1065
     41 OAY       -16.1990   12.7810   -0.6760 O.3       1 7BN        -0.3869
     42 CAW       -13.8580   12.8110   -0.8490 C.3       1 7BN         0.0727
     43 OAX       -13.6240   11.6090   -1.5970 O.3       1 7BN        -0.3924
     44 H1        -19.7639    6.5115    1.8436 H         1 7BN         0.0647
     45 H2        -18.6824    8.5890    0.9839 H         1 7BN         0.0646
     46 H3        -16.6786    6.2591    0.7540 H         1 7BN         0.0584
     47 H4        -17.3192    6.8738    2.3156 H         1 7BN         0.0584
     48 H5        -21.1234    7.9318    0.3635 H         1 7BN         0.0647
     49 H6        -21.7966    8.6558   -1.6566 H         1 7BN         0.2100
     50 H7        -19.9570    6.3951   -1.9786 H         1 7BN         0.0646
     51 H8        -22.5212    6.2581   -0.4648 H         1 7BN         0.2100
     52 H9        -18.2698    5.0364    0.8736 H         1 7BN         0.2100
     53 H10       -15.9797    8.4461    0.3203 H         1 7BN         0.2095
     54 H11       -19.5577    9.3198   -1.0071 H         1 7BN         0.0623
     55 H12       -19.4380    8.5816   -3.6051 H         1 7BN         0.0310
     56 H13       -17.8430    7.9447   -3.0788 H         1 7BN         0.0310
     57 H14       -17.3077   10.1454   -2.0337 H         1 7BN         0.0521
     58 H15       -18.9040   10.7826   -2.5559 H         1 7BN         0.0521
     59 H16       -16.5171   10.4446   -4.2052 H         1 7BN         0.1851
     60 H17       -17.5300   10.6725   -7.1339 H         1 7BN         0.0519
     61 H18       -16.4863   11.6541   -6.0506 H         1 7BN         0.0519
     62 H19       -19.0658   12.4757   -7.4719 H         1 7BN         0.0405
     63 H20       -17.4312   13.2089   -7.6029 H         1 7BN         0.0405
     64 H21       -17.0137   13.3464   -4.3208 H         1 7BN         0.0898
     65 H22       -19.6255   17.1329   -2.7909 H         1 7BN         0.0343
     66 H23       -17.9896   17.4178   -3.4760 H         1 7BN         0.0343
     67 H24       -18.7249   17.0642   -0.4982 H         1 7BN         0.0618
     68 H25       -17.8544   19.2590   -0.5275 H         1 7BN         0.2099
     69 H26       -15.9100   17.5069   -1.6838 H         1 7BN         0.0608
     70 H27       -17.0796   17.5283    1.0501 H         1 7BN         0.1856
     71 H28       -13.9172   18.5844    2.3988 H         1 7BN         0.0467
     72 H29       -15.2814   17.5095    2.8572 H         1 7BN         0.0467
     73 H30       -15.6050   19.1947    2.3260 H         1 7BN         0.0467
     74 H31       -17.2162   15.0898   -0.3650 H         1 7BN         0.0646
     75 H32       -14.8446   15.0005    0.1390 H         1 7BN         0.0647
     76 H33       -14.1367   16.5704   -1.4189 H         1 7BN         0.2100
     77 H34       -15.2069   13.3560   -2.4444 H         1 7BN         0.0643
     78 H35       -17.0226   13.1877   -0.9185 H         1 7BN         0.2100
     79 H36       -13.9662   12.5680    0.2183 H         1 7BN         0.0584
     80 H37       -13.0127   13.5018   -0.9839 H         1 7BN         0.0584
     81 H38       -13.5332   11.8231   -2.5180 H         1 7BN         0.2095
@<TRIPOS>BOND
     1    1    2 1  
     2    1    4 1  
     3    1    8 1  
     4    2    3 1  
     5    2   10 1  
     6    3    9 1  
     7    4    6 1  
     8    4    7 1  
     9    6    5 1  
    10    6   11 1  
    11   10   11 1  
    12   11   12 1  
    13   12   13 1  
    14   13   14 1  
    15   14   15 am 
    16   15   16 2  
    17   15   17 1  
    18   17   18 1  
    19   18   19 1  
    20   19   20 2  
    21   19   21 1  
    22   20   23 1  
    23   21   22 2  
    24   22   23 1  
    25   23   24 1  
    26   24   25 1  
    27   24   28 1  
    28   24   29 1  
    29   25   26 ar 
    30   25   27 ar 
    31   28   37 1  
    32   29   30 1  
    33   30   31 1  
    34   30   32 1  
    35   32   33 1  
    36   32   37 1  
    37   33   34 am 
    38   34   35 2  
    39   34   36 1  
    40   37   38 1  
    41   38   39 1  
    42   38   40 1  
    43   40   41 1  
    44   40   42 1  
    45   42   43 1  
    46    1   44 1  
    47    2   45 1  
    48    3   46 1  
    49    3   47 1  
    50    4   48 1  
    51    5   49 1  
    52    6   50 1  
    53    7   51 1  
    54    8   52 1  
    55    9   53 1  
    56   11   54 1  
    57   12   55 1  
    58   12   56 1  
    59   13   57 1  
    60   13   58 1  
    61   14   59 1  
    62   17   60 1  
    63   17   61 1  
    64   18   62 1  
    65   18   63 1  
    66   20   64 1  
    67   29   65 1  
    68   29   66 1  
    69   30   67 1  
    70   31   68 1  
    71   32   69 1  
    72   33   70 1  
    73   36   71 1  
    74   36   72 1  
    75   36   73 1  
    76   37   74 1  
    77   38   75 1  
    78   39   76 1  
    79   40   77 1  
    80   41   78 1  
    81   42   79 1  
    82   42   80 1  
    83   43   81 1  
@<TRIPOS>SUBSTRUCTURE
     1 7BN         1

