### 
### Created by X-TOOL on Mon Sep 10 21:13:33 2018
### 

@<TRIPOS>MOLECULE
5lzh_ligand
   81    83     1     0     0
SMALL
GAST_HUCK


@<TRIPOS>ATOM
      1 C4        -19.4180    6.7020    0.7780 C.3       1 7BO         0.1117
      2 C5        -18.2810    7.7570    0.6250 C.3       1 7BO         0.1104
      3 C6        -16.9780    7.2510    1.1890 C.3       1 7BO         0.0729
      4 C3        -20.6530    7.1260   -0.0600 C.3       1 7BO         0.1117
      5 O2        -21.4300    7.9840   -2.1720 O.3       1 7BO        -0.3866
      6 C2        -20.2530    7.3910   -1.4980 C.3       1 7BO         0.1096
      7 O3        -21.7340    6.1240   -0.0250 O.3       1 7BO        -0.3865
      8 O4        -18.9930    5.4110    0.3650 O.3       1 7BO        -0.3865
      9 O6        -16.1320    8.4200    1.2970 O.3       1 7BO        -0.3924
     10 O5        -18.0050    7.9300   -0.7680 O.3       1 7BO        -0.3657
     11 C1        -19.1510    8.4710   -1.5150 C.3       1 7BO         0.0894
     12 CBQ       -18.5730    8.7120   -2.8750 C.3       1 7BO        -0.0038
     13 CBE       -17.9950   10.1000   -2.7770 C.3       1 7BO         0.0333
     14 NAA       -17.3730   10.5310   -4.0670 N.am      1 7BO        -0.2868
     15 CAB       -18.1200   10.9980   -5.0880 C.2       1 7BO         0.1774
     16 OAD       -19.3470   10.9850   -5.0430 O.2       1 7BO        -0.3969
     17 CAC       -17.3790   11.5530   -6.3070 C.3       1 7BO         0.0439
     18 CAE       -18.1010   12.8220   -6.8420 C.3       1 7BO        -0.0015
     19 CAF       -18.4150   13.8460   -5.7500 C.2       1 7BO         0.0392
     20 CAH       -17.7950   14.0280   -4.5760 C.2       1 7BO         0.0717
     21 NAG       -19.3970   14.7330   -5.8010 N.2       1 7BO        -0.2264
     22 NAJ       -19.4330   15.4270   -4.6790 N.2       1 7BO        -0.1003
     23 NAI       -18.4020   14.9900   -3.8950 N.pl3     1 7BO        -0.1465
     24 CAR       -18.1750   15.5500   -2.6060 C.3       1 7BO         0.2460
     25 CBA       -19.0930   14.7280   -1.6660 C.2       1 7BO         0.1122
     26 OBC       -18.7200   13.5550   -1.3560 O.co2     1 7BO        -0.5421
     27 OBB       -20.1360   15.2670   -1.2320 O.co2     1 7BO        -0.5421
     28 OAS       -16.7450   15.3500   -2.3570 O.3       1 7BO        -0.3327
     29 CAQ       -18.4590   17.0230   -2.5530 C.3       1 7BO         0.0426
     30 CAP       -17.9930   17.5560   -1.1710 C.3       1 7BO         0.0857
     31 OBD       -18.0560   19.0260   -1.0870 O.3       1 7BO        -0.3893
     32 CAO       -16.5040   17.1620   -0.9090 C.3       1 7BO         0.0965
     33 NAN       -16.2520   17.5780    0.4540 N.am      1 7BO        -0.2790
     34 CAL       -14.9790   17.8930    0.8410 C.2       1 7BO         0.1733
     35 OAM       -14.0420   17.8800    0.0630 O.2       1 7BO        -0.3974
     36 CAK       -14.9040   18.3650    2.2610 C.3       1 7BO         0.0257
     37 CAT       -16.4110   15.6830   -1.0300 C.3       1 7BO         0.1150
     38 CAU       -15.0270   15.0430   -0.8380 C.3       1 7BO         0.1114
     39 OAZ       -14.0480   15.7320   -1.6300 O.3       1 7BO        -0.3865
     40 CAV       -15.0450   13.5570   -1.2840 C.3       1 7BO         0.1065
     41 OAY       -16.1830   12.8960   -0.6420 O.3       1 7BO        -0.3869
     42 CAW       -13.7900   12.8850   -0.7900 C.3       1 7BO         0.0727
     43 OAX       -13.5730   11.7300   -1.5480 O.3       1 7BO        -0.3924
     44 H1        -19.7067    6.6533    1.8383 H         1 7BO         0.0647
     45 H2        -18.5766    8.7035    1.1011 H         1 7BO         0.0646
     46 H3        -16.5270    6.5096    0.5130 H         1 7BO         0.0584
     47 H4        -17.1363    6.7968    2.1782 H         1 7BO         0.0584
     48 H5        -21.0439    8.0606    0.3686 H         1 7BO         0.0647
     49 H6        -21.2160    8.1646   -3.0798 H         1 7BO         0.2100
     50 H7        -19.9192    6.4689   -1.9962 H         1 7BO         0.0646
     51 H8        -22.4841    6.4521   -0.5069 H         1 7BO         0.2100
     52 H9        -18.2367    5.1490    0.8768 H         1 7BO         0.2100
     53 H10       -16.0145    8.8051    0.4365 H         1 7BO         0.2095
     54 H11       -19.5309    9.4061   -1.0776 H         1 7BO         0.0623
     55 H12       -19.3550    8.6665   -3.6472 H         1 7BO         0.0310
     56 H13       -17.7884    7.9758   -3.1038 H         1 7BO         0.0310
     57 H14       -17.2273   10.1120   -1.9893 H         1 7BO         0.0521
     58 H15       -18.7991   10.8037   -2.5161 H         1 7BO         0.0521
     59 H16       -16.3806   10.4715   -4.1749 H         1 7BO         0.1851
     60 H17       -17.3553   10.7881   -7.0972 H         1 7BO         0.0519
     61 H18       -16.3502   11.8146   -6.0189 H         1 7BO         0.0519
     62 H19       -19.0459   12.5134   -7.3131 H         1 7BO         0.0405
     63 H20       -17.4555   13.3001   -7.5935 H         1 7BO         0.0405
     64 H21       -16.9246   13.4703   -4.2333 H         1 7BO         0.0898
     65 H22       -19.5378   17.1992   -2.6758 H         1 7BO         0.0343
     66 H23       -17.9098   17.5375   -3.3552 H         1 7BO         0.0343
     67 H24       -18.6354   17.1188   -0.3924 H         1 7BO         0.0618
     68 H25       -17.7630   19.3058   -0.2277 H         1 7BO         0.2099
     69 H26       -15.8167   17.6555   -1.6118 H         1 7BO         0.0608
     70 H27       -17.0051   17.6348    1.1095 H         1 7BO         0.1856
     71 H28       -13.8601   18.6024    2.5138 H         1 7BO         0.0467
     72 H29       -15.2725   17.5737    2.9304 H         1 7BO         0.0467
     73 H30       -15.5242   19.2655    2.3814 H         1 7BO         0.0467
     74 H31       -17.1172   15.2322   -0.3173 H         1 7BO         0.0646
     75 H32       -14.7488   15.1030    0.2245 H         1 7BO         0.0647
     76 H33       -14.0098   16.6427   -1.3624 H         1 7BO         0.2100
     77 H34       -15.1189   13.4842   -2.3791 H         1 7BO         0.0643
     78 H35       -16.9879   13.3253   -0.9070 H         1 7BO         0.2100
     79 H36       -13.9068   12.6157    0.2701 H         1 7BO         0.0584
     80 H37       -12.9352   13.5680   -0.9028 H         1 7BO         0.0584
     81 H38       -13.4747   11.9667   -2.4627 H         1 7BO         0.2095
@<TRIPOS>BOND
     1    1    2 1  
     2    1    4 1  
     3    1    8 1  
     4    2    3 1  
     5    2   10 1  
     6    3    9 1  
     7    4    6 1  
     8    4    7 1  
     9    6    5 1  
    10    6   11 1  
    11   10   11 1  
    12   11   12 1  
    13   12   13 1  
    14   13   14 1  
    15   14   15 am 
    16   15   16 2  
    17   15   17 1  
    18   17   18 1  
    19   18   19 1  
    20   19   20 2  
    21   19   21 1  
    22   20   23 1  
    23   21   22 2  
    24   22   23 1  
    25   23   24 1  
    26   24   25 1  
    27   24   28 1  
    28   24   29 1  
    29   25   26 ar 
    30   25   27 ar 
    31   28   37 1  
    32   29   30 1  
    33   30   31 1  
    34   30   32 1  
    35   32   33 1  
    36   32   37 1  
    37   33   34 am 
    38   34   35 2  
    39   34   36 1  
    40   37   38 1  
    41   38   39 1  
    42   38   40 1  
    43   40   41 1  
    44   40   42 1  
    45   42   43 1  
    46    1   44 1  
    47    2   45 1  
    48    3   46 1  
    49    3   47 1  
    50    4   48 1  
    51    5   49 1  
    52    6   50 1  
    53    7   51 1  
    54    8   52 1  
    55    9   53 1  
    56   11   54 1  
    57   12   55 1  
    58   12   56 1  
    59   13   57 1  
    60   13   58 1  
    61   14   59 1  
    62   17   60 1  
    63   17   61 1  
    64   18   62 1  
    65   18   63 1  
    66   20   64 1  
    67   29   65 1  
    68   29   66 1  
    69   30   67 1  
    70   31   68 1  
    71   32   69 1  
    72   33   70 1  
    73   36   71 1  
    74   36   72 1  
    75   36   73 1  
    76   37   74 1  
    77   38   75 1  
    78   39   76 1  
    79   40   77 1  
    80   41   78 1  
    81   42   79 1  
    82   42   80 1  
    83   43   81 1  
@<TRIPOS>SUBSTRUCTURE
     1 7BO         1

