### 
### Created by X-TOOL on Mon Sep 10 21:13:33 2018
### 

@<TRIPOS>MOLECULE
5lzj_ligand
   61    62     1     0     0
SMALL
GAST_HUCK


@<TRIPOS>ATOM
      1 C4         14.1210    8.2320   20.0430 C.3       1 7BT         0.1117
      2 C5         14.3620    6.9590   19.2910 C.3       1 7BT         0.1104
      3 C6         13.0430    6.4340   18.7930 C.3       1 7BT         0.0729
      4 C3         15.5140    8.7530   20.5610 C.3       1 7BT         0.1117
      5 CBB        26.1880    5.6150   21.2990 C.3       1 7BT         0.0563
      6 OAY        24.9760    6.3210   21.6610 O.3       1 7BT        -0.3297
      7 CAU        24.0190    6.4210   20.6600 C.ar      1 7BT         0.1048
      8 CAT        23.6530    5.3540   19.8180 C.ar      1 7BT        -0.0506
      9 CAV        23.3610    7.6550   20.4920 C.ar      1 7BT         0.1394
     10 OAZ        23.6930    8.6910   21.2950 O.3       1 7BT        -0.3342
     11 CBC        24.4910    9.6750   20.6200 C.3       1 7BT         0.0526
     12 CAW        22.3650    7.8500   19.5280 C.ar      1 7BT         0.1048
     13 OBA        21.7670    9.0900   19.3490 O.3       1 7BT        -0.3297
     14 CBD        21.1420    9.8060   20.4170 C.3       1 7BT         0.0563
     15 CAX        22.0630    6.7930   18.6760 C.ar      1 7BT        -0.0506
     16 CAF        22.6720    5.5300   18.8280 C.ar      1 7BT        -0.0683
     17 CAE        22.3360    4.4280   18.0230 C.3       1 7BT        -0.0119
     18 CAC        20.8580    4.0050   17.7250 C.3       1 7BT         0.0451
     19 CAB        19.6680    4.9140   18.0730 C.2       1 7BT         0.1777
     20 OAD        19.8630    5.8870   18.7610 O.2       1 7BT        -0.3969
     21 NAA        18.4300    4.5400   17.7830 N.am      1 7BT        -0.2867
     22 CAG        17.2140    5.3280   18.0470 C.3       1 7BT         0.0333
     23 CAS        17.3850    6.5090   19.0740 C.3       1 7BT        -0.0038
     24 C1         16.5570    7.6630   18.5120 C.3       1 7BT         0.0894
     25 O5         15.1930    7.2250   18.1860 O.3       1 7BT        -0.3657
     26 O6         13.3110    5.0890   18.1870 O.3       1 7BT        -0.3924
     27 O4         13.5550    9.2530   19.3040 O.3       1 7BT        -0.3865
     28 O3         15.3410    9.9940   21.2020 O.3       1 7BT        -0.3865
     29 C2         16.4540    8.9340   19.3650 C.3       1 7BT         0.1096
     30 O2         17.8090    9.2640   19.8890 O.3       1 7BT        -0.3866
     31 H1         13.4613    8.0114   20.8951 H         1 7BT         0.0647
     32 H2         14.8385    6.2178   19.9494 H         1 7BT         0.0646
     33 H3         12.6268    7.1142   18.0353 H         1 7BT         0.0584
     34 H4         12.3341    6.3380   19.6286 H         1 7BT         0.0584
     35 H5         15.9436    8.0269   21.2668 H         1 7BT         0.0647
     36 H6         26.8720    5.5954   22.1603 H         1 7BT         0.0572
     37 H7         26.6740    6.1288   20.4565 H         1 7BT         0.0572
     38 H8         25.9384    4.5847   21.0054 H         1 7BT         0.0572
     39 H9         24.1321    4.3886   19.9345 H         1 7BT         0.0364
     40 H10        24.7318   10.4921   21.3160 H         1 7BT         0.0565
     41 H11        23.9305   10.0767   19.7630 H         1 7BT         0.0565
     42 H12        25.4223    9.2104   20.2638 H         1 7BT         0.0565
     43 H13        20.7416   10.7570   20.0359 H         1 7BT         0.0572
     44 H14        21.8823   10.0093   21.2048 H         1 7BT         0.0572
     45 H15        20.3212    9.2027   20.8320 H         1 7BT         0.0572
     46 H16        21.3444    6.9431   17.8784 H         1 7BT         0.0364
     47 H17        22.8118    3.5543   18.4923 H         1 7BT         0.0427
     48 H18        22.8000    4.6162   17.0436 H         1 7BT         0.0427
     49 H19        20.6927    3.0604   18.2639 H         1 7BT         0.0523
     50 H20        20.8013    3.8238   16.6415 H         1 7BT         0.0523
     51 H21        18.3115    3.6473   17.3482 H         1 7BT         0.1851
     52 H22        16.4457    4.6455   18.4394 H         1 7BT         0.0521
     53 H23        16.8723    5.7550   17.0926 H         1 7BT         0.0521
     54 H24        18.4432    6.7986   19.1539 H         1 7BT         0.0310
     55 H25        17.0098    6.2138   20.0650 H         1 7BT         0.0310
     56 H26        17.0481    7.9566   17.5725 H         1 7BT         0.0623
     57 H27        13.9286    5.1828   17.4712 H         1 7BT         0.2095
     58 H28        13.4429   10.0178   19.8564 H         1 7BT         0.2100
     59 H29        16.1816   10.3078   21.5143 H         1 7BT         0.2100
     60 H30        16.0847    9.7585   18.7375 H         1 7BT         0.0646
     61 H31        18.1267    8.5424   20.4190 H         1 7BT         0.2100
@<TRIPOS>BOND
     1    2    1 1  
     2    1    4 1  
     3    1   27 1  
     4    2    3 1  
     5   25    2 1  
     6    3   26 1  
     7    4   28 1  
     8    4   29 1  
     9    6    5 1  
    10    7    6 1  
    11    8    7 ar 
    12    7    9 ar 
    13   16    8 ar 
    14    9   10 1  
    15   12    9 ar 
    16   10   11 1  
    17   12   13 1  
    18   15   12 ar 
    19   13   14 1  
    20   16   15 ar 
    21   17   16 1  
    22   18   17 1  
    23   19   18 1  
    24   19   20 2  
    25   21   19 am 
    26   22   21 1  
    27   23   22 1  
    28   24   23 1  
    29   24   25 1  
    30   24   29 1  
    31   29   30 1  
    32    1   31 1  
    33    2   32 1  
    34    3   33 1  
    35    3   34 1  
    36    4   35 1  
    37    5   36 1  
    38    5   37 1  
    39    5   38 1  
    40    8   39 1  
    41   11   40 1  
    42   11   41 1  
    43   11   42 1  
    44   14   43 1  
    45   14   44 1  
    46   14   45 1  
    47   15   46 1  
    48   17   47 1  
    49   17   48 1  
    50   18   49 1  
    51   18   50 1  
    52   21   51 1  
    53   22   52 1  
    54   22   53 1  
    55   23   54 1  
    56   23   55 1  
    57   24   56 1  
    58   26   57 1  
    59   27   58 1  
    60   28   59 1  
    61   29   60 1  
    62   30   61 1  
@<TRIPOS>SUBSTRUCTURE
     1 7BT         1

