### 
### Created by X-TOOL on Mon Sep 10 21:13:34 2018
### 

@<TRIPOS>MOLECULE
5m0d_ligand
   99   104     1     0     0
SMALL
GAST_HUCK


@<TRIPOS>ATOM
      1 C1        -17.1820  -21.9040    3.4010 C.3       1 7C8        -0.0621
      2 C2        -16.5690  -22.2440    4.7650 C.3       1 7C8        -0.0404
      3 C3        -16.4080  -20.9800    5.6450 C.3       1 7C8        -0.0454
      4 C4        -17.4920  -19.8970    5.5100 C.3       1 7C8        -0.0123
      5 C5        -17.1580  -18.5850    6.2190 C.3       1 7C8        -0.0318
      6 N1        -15.8890  -17.9740    5.7680 N.4       1 7C8         0.2381
      7 C6        -15.6830  -16.6850    6.4390 C.3       1 7C8        -0.0110
      8 C7        -14.1980  -16.3510    6.3410 C.3       1 7C8         0.0759
      9 N2        -13.6900  -16.5830    4.9820 N.am      1 7C8        -0.2386
     10 C8        -12.3530  -16.6010    4.7490 C.2       1 7C8         0.3245
     11 O2        -11.5360  -16.7980    5.6510 O.2       1 7C8        -0.3773
     12 O3        -11.8370  -16.3420    3.3900 O.3       1 7C8        -0.2505
     13 C9        -10.4470  -16.3880    3.0200 C.3       1 7C8         0.1113
     14 C10       -10.2700  -16.5330    1.5140 C.ar      1 7C8        -0.0121
     15 C11       -10.7820  -17.6690    0.8900 C.ar      1 7C8        -0.0438
     16 C12       -10.6400  -17.8370   -0.4880 C.ar      1 7C8         0.0344
     17 CL1       -11.3000  -19.2850   -1.3050 Cl        1 7C8        -0.0725
     18 C13        -9.9860  -16.8820   -1.2550 C.ar      1 7C8        -0.0409
     19 C14        -9.4690  -15.7480   -0.6480 C.ar      1 7C8         0.0344
     20 CL2        -8.6410  -14.5750   -1.7260 Cl        1 7C8        -0.0725
     21 C15        -9.6060  -15.5670    0.7400 C.ar      1 7C8        -0.0438
     22 C16       -15.2090  -22.9880    4.6710 C.3       1 7C8        -0.0328
     23 C17       -14.7380  -23.4340    6.0620 C.3       1 7C8        -0.0492
     24 C18       -13.9550  -24.7350    5.8830 C.3       1 7C8        -0.0491
     25 C19       -13.7740  -24.8840    4.3790 C.3       1 7C8        -0.0299
     26 C20       -13.4310  -26.2680    3.8080 C.3       1 7C8        -0.0083
     27 C21       -12.1920  -26.9250    4.4320 C.3       1 7C8         0.0589
     28 O4        -12.3720  -27.2190    5.8230 O.3       1 7C8        -0.3915
     29 C22       -11.8430  -28.2580    3.7600 C.3       1 7C8        -0.0232
     30 C23       -11.7510  -28.2010    2.2330 C.3       1 7C8        -0.0307
     31 C24       -10.3970  -27.5990    1.8330 C.3       1 7C8        -0.0234
     32 C25       -10.2300  -27.5380    0.3140 C.3       1 7C8         0.0555
     33 O5         -8.9880  -26.9150   -0.0160 O.3       1 7C8        -0.3918
     34 C26       -11.3820  -26.7510   -0.3060 C.3       1 7C8        -0.0263
     35 C27       -12.7100  -27.4030    0.0680 C.3       1 7C8        -0.0448
     36 C28       -12.9640  -27.5070    1.5870 C.3       1 7C8        -0.0258
     37 C29       -14.1670  -28.4590    1.7170 C.3       1 7C8        -0.0590
     38 C30       -13.2130  -26.1420    2.2830 C.3       1 7C8        -0.0299
     39 C31       -14.2930  -25.2790    1.5940 C.3       1 7C8        -0.0489
     40 C32       -14.7370  -24.0140    2.3390 C.3       1 7C8        -0.0468
     41 C33       -15.0430  -24.2540    3.8050 C.3       1 7C8        -0.0258
     42 C34       -16.2830  -25.1560    3.9450 C.3       1 7C8        -0.0590
     43 C35       -15.8040  -17.7430    4.3090 C.3       1 7C8        -0.0110
     44 C36       -14.6910  -16.7570    3.9080 C.3       1 7C8         0.0759
     45 H1        -18.1384  -21.3811    3.5489 H         1 7C8         0.0233
     46 H2        -17.3549  -22.8314    2.8353 H         1 7C8         0.0233
     47 H3        -16.4925  -21.2556    2.8405 H         1 7C8         0.0233
     48 H4        -17.2747  -22.9176    5.2732 H         1 7C8         0.0301
     49 H5        -15.4428  -20.5180    5.3901 H         1 7C8         0.0270
     50 H6        -16.3925  -21.3059    6.6955 H         1 7C8         0.0270
     51 H7        -18.4274  -20.2902    5.9347 H         1 7C8         0.0317
     52 H8        -17.6359  -19.6842    4.4404 H         1 7C8         0.0317
     53 H9        -17.0844  -18.7822    7.2987 H         1 7C8         0.0814
     54 H10       -17.9735  -17.8710    6.0314 H         1 7C8         0.0814
     55 H11       -15.1422  -18.5992    6.0276 H         1 7C8         0.2035
     56 H12       -15.9827  -16.7587    7.4948 H         1 7C8         0.0834
     57 H13       -16.2774  -15.9037    5.9428 H         1 7C8         0.0834
     58 H14       -13.6402  -16.9853    7.0457 H         1 7C8         0.0575
     59 H15       -14.0500  -15.2931    6.6036 H         1 7C8         0.0575
     60 H16        -9.9734  -17.2463    3.5189 H         1 7C8         0.0776
     61 H17        -9.9596  -15.4582    3.3484 H         1 7C8         0.0776
     62 H18       -11.2921  -18.4244    1.4768 H         1 7C8         0.0564
     63 H19        -9.8801  -17.0227   -2.3246 H         1 7C8         0.0571
     64 H20        -9.1986  -14.6808    1.2131 H         1 7C8         0.0564
     65 H21       -14.4992  -22.2450    4.2785 H         1 7C8         0.0309
     66 H22       -15.6057  -23.6042    6.7163 H         1 7C8         0.0268
     67 H23       -14.0903  -22.6631    6.5049 H         1 7C8         0.0268
     68 H24       -14.5211  -25.5858    6.2901 H         1 7C8         0.0268
     69 H25       -12.9784  -24.6704    6.3851 H         1 7C8         0.0268
     70 H26       -12.9248  -24.2452    4.0948 H         1 7C8         0.0310
     71 H27       -14.2906  -26.9293    3.9917 H         1 7C8         0.0331
     72 H28       -11.3467  -26.2305    4.3170 H         1 7C8         0.0596
     73 H29       -13.1046  -27.8146    5.9274 H         1 7C8         0.2098
     74 H30       -12.6182  -28.9905    4.0292 H         1 7C8         0.0293
     75 H31       -10.8704  -28.5935    4.1493 H         1 7C8         0.0293
     76 H32       -11.7606  -29.2386    1.8678 H         1 7C8         0.0308
     77 H33        -9.5927  -28.2194    2.2551 H         1 7C8         0.0293
     78 H34       -10.3261  -26.5797    2.2403 H         1 7C8         0.0293
     79 H35       -10.2366  -28.5616   -0.0886 H         1 7C8         0.0593
     80 H36        -8.8929  -26.8815   -0.9606 H         1 7C8         0.2098
     81 H37       -11.2732  -26.7447   -1.4006 H         1 7C8         0.0290
     82 H38       -11.3632  -25.7176    0.0704 H         1 7C8         0.0290
     83 H39       -12.7253  -28.4189   -0.3536 H         1 7C8         0.0271
     84 H40       -13.5221  -26.8091   -0.3767 H         1 7C8         0.0271
     85 H41       -14.4177  -28.5900    2.7800 H         1 7C8         0.0235
     86 H42       -13.9118  -29.4346    1.2776 H         1 7C8         0.0235
     87 H43       -15.0311  -28.0326    1.1864 H         1 7C8         0.0235
     88 H44       -12.2739  -25.5814    2.1660 H         1 7C8         0.0310
     89 H45       -15.1820  -25.9101    1.4481 H         1 7C8         0.0268
     90 H46       -13.8986  -24.9690    0.6150 H         1 7C8         0.0268
     91 H47       -15.6433  -23.6233    1.8532 H         1 7C8         0.0271
     92 H48       -13.9323  -23.2674    2.2686 H         1 7C8         0.0271
     93 H49       -16.4960  -25.3236    5.0111 H         1 7C8         0.0235
     94 H50       -16.0918  -26.1212    3.4532 H         1 7C8         0.0235
     95 H51       -17.1471  -24.6676    3.4709 H         1 7C8         0.0235
     96 H52       -16.7674  -17.3401    3.9634 H         1 7C8         0.0834
     97 H53       -15.6107  -18.7063    3.8144 H         1 7C8         0.0834
     98 H54       -14.1847  -17.1397    3.0096 H         1 7C8         0.0575
     99 H55       -15.1455  -15.7805    3.6849 H         1 7C8         0.0575
@<TRIPOS>BOND
     1    1    2 1  
     2    2    3 1  
     3    2   22 1  
     4    3    4 1  
     5    4    5 1  
     6    5    6 1  
     7    6    7 1  
     8    6   43 1  
     9    7    8 1  
    10    8    9 1  
    11    9   10 am 
    12    9   44 1  
    13   10   11 2  
    14   10   12 1  
    15   12   13 1  
    16   13   14 1  
    17   14   15 ar 
    18   14   21 ar 
    19   15   16 ar 
    20   16   17 1  
    21   16   18 ar 
    22   18   19 ar 
    23   19   20 1  
    24   19   21 ar 
    25   22   23 1  
    26   22   41 1  
    27   23   24 1  
    28   24   25 1  
    29   25   26 1  
    30   25   41 1  
    31   26   27 1  
    32   26   38 1  
    33   27   28 1  
    34   27   29 1  
    35   29   30 1  
    36   30   31 1  
    37   30   36 1  
    38   31   32 1  
    39   32   33 1  
    40   32   34 1  
    41   34   35 1  
    42   35   36 1  
    43   36   37 1  
    44   36   38 1  
    45   38   39 1  
    46   39   40 1  
    47   40   41 1  
    48   41   42 1  
    49   43   44 1  
    50    1   45 1  
    51    1   46 1  
    52    1   47 1  
    53    2   48 1  
    54    3   49 1  
    55    3   50 1  
    56    4   51 1  
    57    4   52 1  
    58    5   53 1  
    59    5   54 1  
    60    6   55 1  
    61    7   56 1  
    62    7   57 1  
    63    8   58 1  
    64    8   59 1  
    65   13   60 1  
    66   13   61 1  
    67   15   62 1  
    68   18   63 1  
    69   21   64 1  
    70   22   65 1  
    71   23   66 1  
    72   23   67 1  
    73   24   68 1  
    74   24   69 1  
    75   25   70 1  
    76   26   71 1  
    77   27   72 1  
    78   28   73 1  
    79   29   74 1  
    80   29   75 1  
    81   30   76 1  
    82   31   77 1  
    83   31   78 1  
    84   32   79 1  
    85   33   80 1  
    86   34   81 1  
    87   34   82 1  
    88   35   83 1  
    89   35   84 1  
    90   37   85 1  
    91   37   86 1  
    92   37   87 1  
    93   38   88 1  
    94   39   89 1  
    95   39   90 1  
    96   40   91 1  
    97   40   92 1  
    98   42   93 1  
    99   42   94 1  
   100   42   95 1  
   101   43   96 1  
   102   43   97 1  
   103   44   98 1  
   104   44   99 1  
@<TRIPOS>SUBSTRUCTURE
     1 7C8         1

