### 
### Created by X-TOOL on Mon Sep 10 21:13:33 2018
### 

@<TRIPOS>MOLECULE
5m0m_ligand
   97   102     1     0     0
SMALL
GAST_HUCK


@<TRIPOS>ATOM
      1 C1        -17.3650  -23.0060    3.3360 C.3       1 7CF        -0.0620
      2 C2        -16.6280  -22.9710    4.6750 C.3       1 7CF        -0.0385
      3 C3        -16.4040  -21.5260    5.1150 C.3       1 7CF        -0.0332
      4 C4        -17.6280  -20.8300    5.6710 C.3       1 7CF         0.0375
      5 C5        -17.5480  -19.3290    5.5470 C.2       1 7CF         0.1763
      6 O1        -18.5300  -18.6790    5.1880 O.2       1 7CF        -0.3971
      7 N1        -16.3540  -18.7780    5.8300 N.am      1 7CF        -0.2819
      8 C6        -16.0510  -17.3600    5.6920 C.3       1 7CF         0.0640
      9 N2        -13.8780  -16.9680    4.8860 N.am      1 7CF        -0.2465
     10 C8        -12.5200  -17.0130    4.8130 C.2       1 7CF         0.3242
     11 O2        -11.7990  -17.1550    5.7900 O.2       1 7CF        -0.3773
     12 O3        -12.1060  -16.8290    3.5280 O.3       1 7CF        -0.2505
     13 C9        -10.6860  -16.9570    3.2050 C.3       1 7CF         0.1113
     14 C10       -10.4900  -17.0090    1.7100 C.ar      1 7CF        -0.0121
     15 C11        -9.8390  -15.9850    1.0150 C.ar      1 7CF        -0.0438
     16 C12        -9.6730  -16.0730   -0.3570 C.ar      1 7CF         0.0344
     17 CL1        -8.8740  -14.8110   -1.2680 Cl        1 7CF        -0.0725
     18 C13       -10.1330  -17.1680   -1.0640 C.ar      1 7CF        -0.0409
     19 C14       -10.7630  -18.1760   -0.3640 C.ar      1 7CF         0.0344
     20 CL2       -11.3450  -19.5550   -1.2560 Cl        1 7CF        -0.0725
     21 C15       -10.9450  -18.1090    0.9980 C.ar      1 7CF        -0.0438
     22 C16       -15.2790  -23.7180    4.6510 C.3       1 7CF        -0.0326
     23 C17       -14.7240  -23.9720    6.0800 C.3       1 7CF        -0.0492
     24 C18       -13.8500  -25.2390    5.9900 C.3       1 7CF        -0.0491
     25 C19       -13.7940  -25.5420    4.4940 C.3       1 7CF        -0.0299
     26 C20       -13.3240  -26.9190    4.0320 C.3       1 7CF        -0.0083
     27 C21       -11.9360  -27.2850    4.5810 C.3       1 7CF         0.0589
     28 O4        -11.9480  -27.3610    6.0210 O.3       1 7CF        -0.3915
     29 C22       -11.4420  -28.6230    4.0300 C.3       1 7CF        -0.0232
     30 C23       -11.5090  -28.7290    2.5000 C.3       1 7CF        -0.0307
     31 C24       -10.3920  -27.9020    1.8320 C.3       1 7CF        -0.0234
     32 C25       -10.4270  -27.9820    0.3120 C.3       1 7CF         0.0555
     33 O5         -9.4160  -27.1420   -0.2690 O.3       1 7CF        -0.3918
     34 C26       -11.7880  -27.5690   -0.1980 C.3       1 7CF        -0.0263
     35 C27       -12.8670  -28.4610    0.4110 C.3       1 7CF        -0.0448
     36 C28       -12.9340  -28.4160    1.9580 C.3       1 7CF        -0.0258
     37 C29       -13.9370  -29.5160    2.4000 C.3       1 7CF        -0.0590
     38 C30       -13.3570  -27.0070    2.4860 C.3       1 7CF        -0.0299
     39 C31       -14.6890  -26.5010    1.9100 C.3       1 7CF        -0.0489
     40 C32       -15.1250  -25.1370    2.4550 C.3       1 7CF        -0.0468
     41 C33       -15.1830  -25.1160    3.9870 C.3       1 7CF        -0.0258
     42 C34       -16.3180  -26.0240    4.5020 C.3       1 7CF        -0.0590
     43 C35       -14.6360  -16.9890    6.1470 C.3       1 7CF         0.0588
     44 C7        -16.1590  -16.8480    4.2460 C.3       1 7CF        -0.0076
     45 C37       -14.7500  -16.8720    3.6990 C.3       1 7CF         0.0380
     46 H1        -18.3139  -22.4568    3.4253 H         1 7CF         0.0233
     47 H2        -17.5705  -24.0502    3.0577 H         1 7CF         0.0233
     48 H3        -16.7410  -22.5361    2.5616 H         1 7CF         0.0233
     49 H4        -17.2697  -23.4640    5.4201 H         1 7CF         0.0302
     50 H5        -16.0528  -20.9543    4.2434 H         1 7CF         0.0292
     51 H6        -15.6266  -21.5227    5.8932 H         1 7CF         0.0292
     52 H7        -17.7288  -21.0907    6.7349 H         1 7CF         0.0502
     53 H8        -18.5136  -21.1822    5.1217 H         1 7CF         0.0502
     54 H9        -15.6266  -19.3815    6.1566 H         1 7CF         0.1855
     55 H10       -16.7751  -16.8134    6.3139 H         1 7CF         0.0576
     56 H11       -10.2938  -17.8812    3.6544 H         1 7CF         0.0776
     57 H12       -10.1421  -16.0918    3.6120 H         1 7CF         0.0776
     58 H13        -9.4637  -15.1209    1.5511 H         1 7CF         0.0564
     59 H14       -10.0024  -17.2328   -2.1382 H         1 7CF         0.0571
     60 H15       -11.4457  -18.9186    1.5165 H         1 7CF         0.0564
     61 H16       -14.5852  -23.0545    4.1139 H         1 7CF         0.0309
     62 H17       -15.5518  -24.1306    6.7868 H         1 7CF         0.0268
     63 H18       -14.1186  -23.1152    6.4106 H         1 7CF         0.0268
     64 H19       -14.3108  -26.0721    6.5409 H         1 7CF         0.0268
     65 H20       -12.8426  -25.0485    6.3885 H         1 7CF         0.0268
     66 H21       -13.0606  -24.8455    4.0615 H         1 7CF         0.0310
     67 H22       -14.0361  -27.6596    4.4248 H         1 7CF         0.0331
     68 H23       -11.2306  -26.4983    4.2753 H         1 7CF         0.0596
     69 H24       -12.5684  -28.0255    6.2968 H         1 7CF         0.2098
     70 H25       -12.0609  -29.4243    4.4600 H         1 7CF         0.0293
     71 H26       -10.3959  -28.7606    4.3411 H         1 7CF         0.0293
     72 H27       -11.3086  -29.7805    2.2468 H         1 7CF         0.0308
     73 H28        -9.4192  -28.2784    2.1814 H         1 7CF         0.0293
     74 H29       -10.5070  -26.8497    2.1312 H         1 7CF         0.0293
     75 H30       -10.2359  -29.0226    0.0110 H         1 7CF         0.0593
     76 H31        -9.4568  -27.2080   -1.2158 H         1 7CF         0.2098
     77 H32       -11.8112  -27.6656   -1.2935 H         1 7CF         0.0290
     78 H33       -11.9797  -26.5227    0.0820 H         1 7CF         0.0290
     79 H34       -12.6690  -29.4988    0.1050 H         1 7CF         0.0271
     80 H35       -13.8421  -28.1415    0.0147 H         1 7CF         0.0271
     81 H36       -14.0165  -29.5203    3.4971 H         1 7CF         0.0235
     82 H37       -13.5805  -30.4976    2.0544 H         1 7CF         0.0235
     83 H38       -14.9245  -29.3094    1.9617 H         1 7CF         0.0235
     84 H39       -12.5881  -26.3089    2.1235 H         1 7CF         0.0310
     85 H40       -15.4714  -27.2358    2.1506 H         1 7CF         0.0268
     86 H41       -14.5852  -26.4201    0.8179 H         1 7CF         0.0268
     87 H42       -16.1239  -24.9006    2.0596 H         1 7CF         0.0271
     88 H43       -14.4072  -24.3749    2.1174 H         1 7CF         0.0271
     89 H44       -16.3413  -25.9939    5.6013 H         1 7CF         0.0235
     90 H45       -16.1419  -27.0569    4.1671 H         1 7CF         0.0235
     91 H46       -17.2804  -25.6689    4.1050 H         1 7CF         0.0235
     92 H47       -14.2324  -17.7434    6.8384 H         1 7CF         0.0544
     93 H48       -14.6228  -16.0021    6.6327 H         1 7CF         0.0544
     94 H49       -16.5593  -15.8236    4.2304 H         1 7CF         0.0307
     95 H50       -16.8119  -17.5059    3.6536 H         1 7CF         0.0307
     96 H51       -14.6056  -17.7426    3.0423 H         1 7CF         0.0522
     97 H52       -14.5380  -15.9501    3.1377 H         1 7CF         0.0522
@<TRIPOS>BOND
     1    2    1 1  
     2    3    2 1  
     3    2   22 1  
     4    4    3 1  
     5    5    4 1  
     6    5    6 2  
     7    7    5 am 
     8    8    7 1  
     9   43    8 1  
    10    8   44 1  
    11    9   10 am 
    12    9   43 1  
    13    9   45 1  
    14   10   11 2  
    15   10   12 1  
    16   12   13 1  
    17   13   14 1  
    18   14   15 ar 
    19   14   21 ar 
    20   15   16 ar 
    21   16   17 1  
    22   16   18 ar 
    23   18   19 ar 
    24   19   20 1  
    25   19   21 ar 
    26   22   23 1  
    27   22   41 1  
    28   23   24 1  
    29   24   25 1  
    30   25   26 1  
    31   25   41 1  
    32   26   27 1  
    33   26   38 1  
    34   27   28 1  
    35   27   29 1  
    36   29   30 1  
    37   30   31 1  
    38   30   36 1  
    39   31   32 1  
    40   32   33 1  
    41   32   34 1  
    42   34   35 1  
    43   35   36 1  
    44   36   37 1  
    45   36   38 1  
    46   38   39 1  
    47   39   40 1  
    48   40   41 1  
    49   41   42 1  
    50   44   45 1  
    51    1   46 1  
    52    1   47 1  
    53    1   48 1  
    54    2   49 1  
    55    3   50 1  
    56    3   51 1  
    57    4   52 1  
    58    4   53 1  
    59    7   54 1  
    60    8   55 1  
    61   13   56 1  
    62   13   57 1  
    63   15   58 1  
    64   18   59 1  
    65   21   60 1  
    66   22   61 1  
    67   23   62 1  
    68   23   63 1  
    69   24   64 1  
    70   24   65 1  
    71   25   66 1  
    72   26   67 1  
    73   27   68 1  
    74   28   69 1  
    75   29   70 1  
    76   29   71 1  
    77   30   72 1  
    78   31   73 1  
    79   31   74 1  
    80   32   75 1  
    81   33   76 1  
    82   34   77 1  
    83   34   78 1  
    84   35   79 1  
    85   35   80 1  
    86   37   81 1  
    87   37   82 1  
    88   37   83 1  
    89   38   84 1  
    90   39   85 1  
    91   39   86 1  
    92   40   87 1  
    93   40   88 1  
    94   42   89 1  
    95   42   90 1  
    96   42   91 1  
    97   43   92 1  
    98   43   93 1  
    99   44   94 1  
   100   44   95 1  
   101   45   96 1  
   102   45   97 1  
@<TRIPOS>SUBSTRUCTURE
     1 7CF         1

