### 
### Created by X-TOOL on Mon Sep 10 21:13:34 2018
### 

@<TRIPOS>MOLECULE
5m0s_ligand
   93    97     1     0     0
SMALL
GAST_HUCK


@<TRIPOS>ATOM
      1 C1        -17.2710  -23.4290    3.9570 C.3       1 7CW        -0.0620
      2 C2        -16.4580  -23.6210    5.2410 C.3       1 7CW        -0.0385
      3 C3        -16.0290  -22.2530    5.7990 C.3       1 7CW        -0.0332
      4 C4        -17.1550  -21.3960    6.3670 C.3       1 7CW         0.0375
      5 C5        -16.9690  -19.9320    6.0580 C.2       1 7CW         0.1760
      6 O1        -17.8750  -19.2510    5.5740 O.2       1 7CW        -0.3971
      7 N1        -15.7690  -19.4210    6.3480 N.am      1 7CW        -0.2850
      8 C6        -15.3770  -18.0420    6.0930 C.3       1 7CW         0.0510
      9 C7        -13.8680  -17.8980    6.1100 C.3       1 7CW         0.0529
     10 N2        -13.2680  -18.2480    4.8400 N.am      1 7CW        -0.2605
     11 C8        -11.9460  -18.1130    4.6250 C.2       1 7CW         0.3216
     12 O2        -11.1490  -17.7460    5.4680 O.2       1 7CW        -0.3774
     13 O3        -11.6300  -18.4340    3.3400 O.3       1 7CW        -0.2507
     14 C9        -10.4370  -17.8130    2.7830 C.3       1 7CW         0.1113
     15 C10       -10.3470  -17.9840    1.2920 C.ar      1 7CW        -0.0121
     16 C11       -10.8410  -19.1230    0.6690 C.ar      1 7CW        -0.0438
     17 C12       -10.7350  -19.2590   -0.6970 C.ar      1 7CW         0.0344
     18 CL1       -11.3640  -20.6870   -1.4740 Cl        1 7CW        -0.0725
     19 C13       -10.1330  -18.2870   -1.4770 C.ar      1 7CW        -0.0409
     20 C14        -9.6370  -17.1600   -0.8440 C.ar      1 7CW         0.0344
     21 CL2        -8.8760  -15.9240   -1.8100 Cl        1 7CW        -0.0725
     22 C15        -9.7360  -17.0060    0.5200 C.ar      1 7CW        -0.0438
     23 C16       -15.2090  -24.5220    5.0820 C.3       1 7CW        -0.0326
     24 C17       -14.6840  -25.0180    6.4590 C.3       1 7CW        -0.0492
     25 C18       -13.9140  -26.3260    6.1980 C.3       1 7CW        -0.0491
     26 C19       -13.8900  -26.4410    4.6730 C.3       1 7CW        -0.0299
     27 C20       -13.5250  -27.7840    4.0320 C.3       1 7CW        -0.0083
     28 C21       -12.1720  -28.3210    4.5280 C.3       1 7CW         0.0589
     29 O4        -12.1660  -28.5250    5.9560 O.3       1 7CW        -0.3915
     30 C22       -11.8180  -29.6430    3.8520 C.3       1 7CW        -0.0232
     31 C23       -11.8480  -29.5530    2.3160 C.3       1 7CW        -0.0307
     32 C24       -10.6210  -28.7850    1.7900 C.3       1 7CW        -0.0234
     33 C25       -10.5800  -28.7070    0.2800 C.3       1 7CW         0.0555
     34 O5         -9.4290  -27.9540   -0.1470 O.3       1 7CW        -0.3918
     35 C26       -11.8490  -28.0620   -0.2200 C.3       1 7CW        -0.0263
     36 C27       -13.0690  -28.8570    0.2390 C.3       1 7CW        -0.0448
     37 C28       -13.2100  -29.0200    1.7730 C.3       1 7CW        -0.0258
     38 C29       -14.3210  -30.0740    2.0150 C.3       1 7CW        -0.0590
     39 C30       -13.5430  -27.6660    2.4880 C.3       1 7CW        -0.0299
     40 C31       -14.8340  -26.9890    1.9990 C.3       1 7CW        -0.0489
     41 C32       -15.1580  -25.6710    2.7140 C.3       1 7CW        -0.0468
     42 C33       -15.2370  -25.8320    4.2370 C.3       1 7CW        -0.0258
     43 C34       -16.4470  -26.7020    4.6290 C.3       1 7CW        -0.0590
     44 H1        -18.1341  -22.7790    4.1633 H         1 7CW         0.0233
     45 H2        -17.6257  -24.4064    3.5979 H         1 7CW         0.0233
     46 H3        -16.6372  -22.9637    3.1878 H         1 7CW         0.0233
     47 H4        -17.1189  -24.1024    5.9768 H         1 7CW         0.0302
     48 H5        -15.5511  -21.6890    4.9845 H         1 7CW         0.0292
     49 H6        -15.2978  -22.4281    6.6019 H         1 7CW         0.0292
     50 H7        -17.1831  -21.5266    7.4588 H         1 7CW         0.0502
     51 H8        -18.1085  -21.7311    5.9329 H         1 7CW         0.0502
     52 H9        -15.0940  -20.0270    6.7689 H         1 7CW         0.1851
     53 H10       -15.8095  -17.3948    6.8702 H         1 7CW         0.0540
     54 H11       -15.7571  -17.7356    5.1073 H         1 7CW         0.0540
     55 H12       -13.4584  -18.5584    6.8885 H         1 7CW         0.0539
     56 H13       -13.6150  -16.8536    6.3447 H         1 7CW         0.0539
     57 H14       -13.8490  -18.5982    4.1053 H         1 7CW         0.1868
     58 H15        -9.5507  -18.2717    3.2456 H         1 7CW         0.0776
     59 H16       -10.4568  -16.7379    3.0150 H         1 7CW         0.0776
     60 H17       -11.3093  -19.9037    1.2575 H         1 7CW         0.0564
     61 H18       -10.0523  -18.4046   -2.5516 H         1 7CW         0.0571
     62 H19        -9.3350  -16.1170    0.9933 H         1 7CW         0.0564
     63 H20       -14.4473  -23.8720    4.6268 H         1 7CW         0.0309
     64 H21       -15.5270  -25.2047    7.1406 H         1 7CW         0.0268
     65 H22       -14.0140  -24.2663    6.9017 H         1 7CW         0.0268
     66 H23       -14.4362  -27.1838    6.6469 H         1 7CW         0.0268
     67 H24       -12.8926  -26.2661    6.6020 H         1 7CW         0.0268
     68 H25       -13.1018  -25.7572    4.3250 H         1 7CW         0.0310
     69 H26       -14.2961  -28.5122    4.3237 H         1 7CW         0.0331
     70 H27       -11.3995  -27.5792    4.2769 H         1 7CW         0.0596
     71 H28       -12.8396  -29.1536    6.1878 H         1 7CW         0.2098
     72 H29       -12.5410  -30.4071    4.1736 H         1 7CW         0.0293
     73 H30       -10.8067  -29.9394    4.1671 H         1 7CW         0.0293
     74 H31       -11.7537  -30.5821    1.9390 H         1 7CW         0.0308
     75 H32        -9.7111  -29.2944    2.1402 H         1 7CW         0.0293
     76 H33       -10.6471  -27.7622    2.1939 H         1 7CW         0.0293
     77 H34       -10.5102  -29.7251   -0.1306 H         1 7CW         0.0593
     78 H35        -9.4138  -27.9118   -1.0959 H         1 7CW         0.2098
     79 H36       -11.8302  -28.0302   -1.3194 H         1 7CW         0.0290
     80 H37       -11.9147  -27.0376    0.1754 H         1 7CW         0.0290
     81 H38       -13.0081  -29.8612   -0.2059 H         1 7CW         0.0271
     82 H39       -13.9687  -28.3450   -0.1330 H         1 7CW         0.0271
     83 H40       -14.4561  -30.2226    3.0965 H         1 7CW         0.0235
     84 H41       -14.0309  -31.0265    1.5475 H         1 7CW         0.0235
     85 H42       -15.2642  -29.7207    1.5728 H         1 7CW         0.0235
     86 H43       -12.7240  -26.9816    2.2219 H         1 7CW         0.0310
     87 H44       -15.6712  -27.6842    2.1596 H         1 7CW         0.0268
     88 H45       -14.7301  -26.7824    0.9236 H         1 7CW         0.0268
     89 H46       -16.1268  -25.3002    2.3480 H         1 7CW         0.0271
     90 H47       -14.3719  -24.9389    2.4772 H         1 7CW         0.0271
     91 H48       -16.4854  -26.8049    5.7235 H         1 7CW         0.0235
     92 H49       -16.3472  -27.6969    4.1705 H         1 7CW         0.0235
     93 H50       -17.3721  -26.2253    4.2729 H         1 7CW         0.0235
@<TRIPOS>BOND
     1    1    2 1  
     2    2    3 1  
     3    2   23 1  
     4    3    4 1  
     5    4    5 1  
     6    5    6 2  
     7    5    7 am 
     8    7    8 1  
     9    8    9 1  
    10    9   10 1  
    11   10   11 am 
    12   11   12 2  
    13   11   13 1  
    14   13   14 1  
    15   14   15 1  
    16   15   16 ar 
    17   15   22 ar 
    18   16   17 ar 
    19   17   18 1  
    20   17   19 ar 
    21   19   20 ar 
    22   20   21 1  
    23   20   22 ar 
    24   23   24 1  
    25   23   42 1  
    26   24   25 1  
    27   25   26 1  
    28   26   27 1  
    29   26   42 1  
    30   27   28 1  
    31   27   39 1  
    32   28   29 1  
    33   28   30 1  
    34   30   31 1  
    35   31   32 1  
    36   31   37 1  
    37   32   33 1  
    38   33   34 1  
    39   33   35 1  
    40   35   36 1  
    41   36   37 1  
    42   37   38 1  
    43   37   39 1  
    44   39   40 1  
    45   40   41 1  
    46   41   42 1  
    47   42   43 1  
    48    1   44 1  
    49    1   45 1  
    50    1   46 1  
    51    2   47 1  
    52    3   48 1  
    53    3   49 1  
    54    4   50 1  
    55    4   51 1  
    56    7   52 1  
    57    8   53 1  
    58    8   54 1  
    59    9   55 1  
    60    9   56 1  
    61   10   57 1  
    62   14   58 1  
    63   14   59 1  
    64   16   60 1  
    65   19   61 1  
    66   22   62 1  
    67   23   63 1  
    68   24   64 1  
    69   24   65 1  
    70   25   66 1  
    71   25   67 1  
    72   26   68 1  
    73   27   69 1  
    74   28   70 1  
    75   29   71 1  
    76   30   72 1  
    77   30   73 1  
    78   31   74 1  
    79   32   75 1  
    80   32   76 1  
    81   33   77 1  
    82   34   78 1  
    83   35   79 1  
    84   35   80 1  
    85   36   81 1  
    86   36   82 1  
    87   38   83 1  
    88   38   84 1  
    89   38   85 1  
    90   39   86 1  
    91   40   87 1  
    92   40   88 1  
    93   41   89 1  
    94   41   90 1  
    95   43   91 1  
    96   43   92 1  
    97   43   93 1  
@<TRIPOS>SUBSTRUCTURE
     1 7CW         1

