### 
### Created by X-TOOL on Mon Sep 10 21:13:30 2018
### 

@<TRIPOS>MOLECULE
5m17_ligand
   43    44     1     0     0
SMALL
GAST_HUCK


@<TRIPOS>ATOM
      1 C1          3.2610   21.8080    6.6190 C.3       1 MAN         0.1883
      2 C2          2.3130   21.6460    7.7860 C.3       1 MAN         0.1341
      3 C3          2.8120   22.3970    9.0080 C.3       1 MAN         0.1141
      4 C4          4.2450   21.9980    9.3440 C.3       1 MAN         0.1119
      5 C5          5.1000   22.2280    8.0940 C.3       1 MAN         0.1130
      6 C6          6.5300   21.7390    8.3290 C.3       1 MAN         0.0730
      7 O2          2.1930   20.2550    8.0900 O.3       1 MAN        -0.3841
      8 O3          1.9360   22.1270   10.1150 O.3       1 MAN        -0.3864
      9 O4          4.7210   22.8180   10.4160 O.3       1 MAN        -0.3865
     10 O5          4.5900   21.4780    6.9920 O.3       1 MAN        -0.3405
     11 O6          7.4420   22.1970    7.3580 O.3       1 MAN        -0.3924
     12 O4          1.4010   23.9870    4.0080 O.3       1 7D1        -0.3866
     13 C4          2.7540   24.4440    4.1460 C.3       1 7D1         0.1096
     14 C5          3.3220   24.7410    2.7550 C.3       1 7D1         0.1098
     15 C6          2.6510   25.8960    2.0220 C.3       1 7D1         0.0729
     16 O6          2.8620   27.1300    2.7330 O.3       1 7D1        -0.3924
     17 C3          3.5690   23.3490    4.7900 C.3       1 7D1         0.0922
     18 O3          3.1070   23.1400    6.1440 O.3       1 7D1        -0.3427
     19 C2          5.0400   23.7330    4.7910 C.3       1 7D1        -0.0004
     20 C1          5.5000   24.0550    3.3840 C.3       1 7D1         0.0507
     21 O5          4.7040   25.1150    2.8620 O.3       1 7D1        -0.3716
     22 H1          2.9610   21.1177    5.8168 H         1 MAN         0.0938
     23 H2          1.3266   22.0430    7.5041 H         1 MAN         0.0671
     24 H3          2.7916   23.4758    8.7940 H         1 MAN         0.0648
     25 H4          4.2853   20.9391    9.6390 H         1 MAN         0.0647
     26 H5          5.1037   23.3005    7.8496 H         1 MAN         0.0647
     27 H6          6.5295   20.6391    8.3162 H         1 MAN         0.0584
     28 H7          6.8628   22.0941    9.3155 H         1 MAN         0.0584
     29 H8          3.0420   19.9133    8.3449 H         1 MAN         0.2101
     30 H9          1.9576   21.1987   10.3154 H         1 MAN         0.2100
     31 H10         5.6242   22.5941   10.6075 H         1 MAN         0.2100
     32 H11         7.4591   23.1468    7.3643 H         1 MAN         0.2095
     33 H12         0.8817   24.6613    3.5859 H         1 MAN         0.2100
     34 H13         2.7850   25.3517    4.7665 H         1 MAN         0.0646
     35 H14         3.2263   23.8294    2.1469 H         1 MAN         0.0646
     36 H15         1.5711   25.7002    1.9480 H         1 MAN         0.0584
     37 H16         3.0782   25.9818    1.0120 H         1 MAN         0.0584
     38 H17         3.7941   27.3023    2.7964 H         1 MAN         0.2095
     39 H18         3.4413   22.4184    4.2176 H         1 MAN         0.0624
     40 H19         5.6337   22.8945    5.1839 H         1 MAN         0.0313
     41 H20         5.1842   24.6160    5.4309 H         1 MAN         0.0313
     42 H21         5.3895   23.1644    2.7479 H         1 MAN         0.0561
     43 H22         6.5558   24.3630    3.4035 H         1 MAN         0.0561
@<TRIPOS>BOND
     1    1    2 1  
     2    1   10 1  
     3   18    1 1  
     4    2    3 1  
     5    2    7 1  
     6    3    4 1  
     7    3    8 1  
     8    5    4 1  
     9    4    9 1  
    10    5    6 1  
    11   10    5 1  
    12    6   11 1  
    13   13   12 1  
    14   13   14 1  
    15   17   13 1  
    16   14   15 1  
    17   14   21 1  
    18   15   16 1  
    19   17   18 1  
    20   17   19 1  
    21   19   20 1  
    22   20   21 1  
    23    1   22 1  
    24    2   23 1  
    25    3   24 1  
    26    4   25 1  
    27    5   26 1  
    28    6   27 1  
    29    6   28 1  
    30    7   29 1  
    31    8   30 1  
    32    9   31 1  
    33   11   32 1  
    34   12   33 1  
    35   13   34 1  
    36   14   35 1  
    37   15   36 1  
    38   15   37 1  
    39   16   38 1  
    40   17   39 1  
    41   19   40 1  
    42   19   41 1  
    43   20   42 1  
    44   20   43 1  
@<TRIPOS>SUBSTRUCTURE
     1 MAN         1

