### 
### Created by X-TOOL on Mon Sep 10 21:13:26 2018
### 

@<TRIPOS>MOLECULE
5m1z_ligand
   40    41     1     0     0
SMALL
GAST_HUCK


@<TRIPOS>ATOM
      1 C3         77.4050   13.5080   19.0970 C.3       1 6LW         0.1173
      2 C2         78.7290   12.7550   19.0950 C.3       1 6LW         0.1530
      3 C1         78.8060   12.3140   17.6450 C.3       1 6LW         0.1432
      4 O3         77.5640   14.6990   19.8610 O.3       1 6LW        -0.3863
      5 O4         77.6000   12.5970   16.9160 O.3       1 6LW        -0.3258
      6 O1         80.4980   12.5870   16.0100 O.3       1 6LW        -0.3416
      7 C4         77.1230   13.7510   17.6060 C.3       1 6LW         0.1162
      8 N1         79.8800   11.8270   17.0120 N.4       1 6LW         0.4099
      9 O2         78.7080   11.7470   20.0980 O.3       1 6LW        -0.3811
     10 C5         75.6840   13.8820   17.1580 C.3       1 6LW         0.0797
     11 O5         75.7300   14.2380   15.7560 O.3       1 6LW        -0.3460
     12 O5'        73.0440   10.6680   13.8380 O.3       1 AHR        -0.3924
     13 C5'        72.9690   11.8900   13.0800 C.3       1 AHR         0.0730
     14 C4'        74.0510   12.8900   13.4970 C.3       1 AHR         0.1131
     15 O4'        74.0400   13.0460   14.9130 O.3       1 AHR        -0.3405
     16 C3'        73.8220   14.3240   12.9550 C.3       1 AHR         0.1141
     17 O3'        74.2250   14.4670   11.5760 O.3       1 AHR        -0.3864
     18 C2'        74.5550   15.2010   13.9780 C.3       1 AHR         0.1341
     19 O2'        74.0170   16.5180   14.1580 O.3       1 AHR        -0.3841
     20 C1'        74.3780   14.4050   15.2740 C.3       1 AHR         0.1880
     21 H1         76.6015   12.9005   19.5390 H         1 6LW         0.0649
     22 H2         79.5691   13.4297   19.3161 H         1 6LW         0.0705
     23 H3         78.4850   11.2935   17.9008 H         1 6LW         0.1224
     24 H4         77.8105   14.4730   20.7502 H         1 6LW         0.2100
     25 H5         81.2395   12.1063   15.6615 H         1 6LW         0.2694
     26 H6         77.6705   14.6530   17.2953 H         1 6LW         0.0648
     27 H7         79.5999   10.9565   16.5880 H         1 6LW         0.2381
     28 H8         80.5786   11.6483   17.7163 H         1 6LW         0.2381
     29 H9         77.9506   11.1884   19.9682 H         1 6LW         0.2103
     30 H10        75.1748   14.6682   17.7348 H         1 6LW         0.0587
     31 H11        75.1542   12.9274   17.2921 H         1 6LW         0.0587
     32 H12        72.3588   10.0759   13.5507 H         1 6LW         0.2095
     33 H13        71.9816   12.3475   13.2403 H         1 6LW         0.0584
     34 H14        73.0951   11.6545   12.0129 H         1 6LW         0.0584
     35 H15        75.0274   12.5154   13.1561 H         1 6LW         0.0647
     36 H16        72.7489   14.5619   12.9966 H         1 6LW         0.0648
     37 H17        73.7232   13.8671   11.0368 H         1 6LW         0.2100
     38 H18        75.6169   15.2890   13.7050 H         1 6LW         0.0671
     39 H19        73.1169   16.4533   14.4549 H         1 6LW         0.2101
     40 H20        73.6815   14.8693   15.9876 H         1 6LW         0.0937
@<TRIPOS>BOND
     1    1    2 1  
     2    1    4 1  
     3    7    1 1  
     4    3    2 1  
     5    2    9 1  
     6    5    3 1  
     7    3    8 1  
     8    7    5 1  
     9    8    6 1  
    10   10    7 1  
    11   11   10 1  
    12   20   11 1  
    13   13   12 1  
    14   14   13 1  
    15   15   14 1  
    16   14   16 1  
    17   15   20 1  
    18   16   17 1  
    19   16   18 1  
    20   18   19 1  
    21   18   20 1  
    22    1   21 1  
    23    2   22 1  
    24    3   23 1  
    25    4   24 1  
    26    6   25 1  
    27    7   26 1  
    28    8   27 1  
    29    8   28 1  
    30    9   29 1  
    31   10   30 1  
    32   10   31 1  
    33   12   32 1  
    34   13   33 1  
    35   13   34 1  
    36   14   35 1  
    37   16   36 1  
    38   17   37 1  
    39   18   38 1  
    40   19   39 1  
    41   20   40 1  
@<TRIPOS>SUBSTRUCTURE
     1 6LW         1

