### 
### Created by X-TOOL on Mon Sep 10 21:13:31 2018
### 

@<TRIPOS>MOLECULE
5m23_ligand
  103   104     1     0     0
SMALL
GAST_HUCK


@<TRIPOS>ATOM
      1 CBD       -19.1000   17.1820   14.0150 C.2       1 7DC         0.0603
      2 OBF       -18.9240   18.2920   14.5190 O.co2     1 7DC        -0.5666
      3 CBC       -17.9320   16.5270   13.2590 C.3       1 7DC         0.0962
      4 CBI       -17.1330   15.6120   14.2000 C.3       1 7DC        -0.0118
      5 CBH       -16.3360   14.5550   13.4150 C.3       1 7DC        -0.0590
      6 CBG       -16.2450   16.3770   15.1200 C.3       1 7DC        -0.0590
      7 NBE       -17.0400   17.5040   12.7700 N.am      1 7DC        -0.2701
      8 CDR       -16.8800   17.7800   11.3240 C.2       1 7DC         0.2085
      9 ODS       -17.5330   17.1570   10.4650 O.2       1 7DC        -0.3835
     10 CDO       -15.8060   18.8850   10.8710 C.ar      1 7DC         0.0528
     11 CDP       -15.8190   19.4150    9.5800 C.ar      1 7DC        -0.0370
     12 CDQ       -14.8450   20.3860    9.1980 C.ar      1 7DC        -0.0284
     13 CDN       -14.8170   19.3050   11.7850 C.ar      1 7DC        -0.0370
     14 CDM       -13.8640   20.2490   11.4020 C.ar      1 7DC        -0.0284
     15 CDL       -13.8800   20.7970   10.0910 C.ar      1 7DC         0.0797
     16 NDK       -12.8930   21.7870    9.7040 N.2       1 7DC        -0.1756
     17 NDJ       -12.2970   21.8280    8.4250 N.2       1 7DC        -0.1770
     18 CDG       -11.3500   22.8830    8.0830 C.ar      1 7DC         0.0750
     19 CDH       -11.0550   23.2000    6.7560 C.ar      1 7DC        -0.0369
     20 CDI       -10.1530   24.2170    6.4700 C.ar      1 7DC        -0.0502
     21 CDF       -10.7050   23.5790    9.1060 C.ar      1 7DC        -0.0369
     22 CDE        -9.7930   24.5920    8.8200 C.ar      1 7DC        -0.0502
     23 CDD        -9.5040   24.9320    7.5130 C.ar      1 7DC        -0.0146
     24 CDC        -8.4920   26.0550    7.2480 C.3       1 7DC         0.0674
     25 NDB        -8.3780   26.3870    5.8670 N.am      1 7DC        -0.2726
     26 CAZ        -7.2990   25.7890    5.1070 C.2       1 7DC         0.2034
     27 OBB        -6.5360   25.0210    5.6290 O.2       1 7DC        -0.3944
     28 CAY        -7.1710   26.0790    3.6550 C.3       1 7DC         0.1282
     29 CAX        -5.9250   26.8270    3.3160 C.3       1 7DC        -0.0244
     30 NBA        -8.4150   26.6390    3.1140 N.am      1 7DC        -0.2640
     31 CAN        -9.5040   25.7930    2.7740 C.2       1 7DC         0.2039
     32 OAP        -9.4760   24.5830    2.9180 O.2       1 7DC        -0.3944
     33 CAM       -10.7740   26.4110    2.1770 C.3       1 7DC         0.1311
     34 CAW       -10.5890   26.4230    0.6560 C.3       1 7DC        -0.0092
     35 CAR       -10.4270   24.9870    0.0840 C.3       1 7DC        -0.0156
     36 CAQ       -10.3880   24.9410   -1.4510 C.3       1 7DC         0.0627
     37 NAV       -11.4170   25.7710   -2.0920 N.pl3     1 7DC        -0.2723
     38 CAU       -12.6440   25.1950   -2.6620 C.cat     1 7DC         0.2882
     39 NAT       -12.7900   23.8610   -2.5290 N.pl3     1 7DC        -0.2849
     40 NAS       -13.5930   25.9890   -3.3080 N.pl3     1 7DC        -0.2849
     41 NAO       -10.9630   27.7410    2.6150 N.am      1 7DC        -0.2637
     42 CAJ       -11.1220   28.0270    4.0190 C.2       1 7DC         0.2036
     43 OAL       -11.0980   27.1330    4.8100 O.2       1 7DC        -0.3944
     44 CAI       -11.3380   29.4060    4.4540 C.3       1 7DC         0.1283
     45 CAH       -12.8050   29.8270    4.2220 C.3       1 7DC        -0.0244
     46 NAK       -10.5470   30.2970    3.6090 N.am      1 7DC        -0.2612
     47 C          -9.0620   30.2530    3.6580 C.2       1 7DC         0.2290
     48 O          -8.5120   29.4560    4.4070 O.2       1 7DC        -0.3906
     49 CA         -8.2000   31.2420    2.7220 C.3       1 7DC         0.0885
     50 N          -7.3130   31.9410    3.5920 N.4       1 7DC         0.2396
     51 CB         -7.4240   30.3470    1.8190 C.3       1 7DC         0.1041
     52 OG         -8.3750   29.3660    1.2820 O.3       1 7DC        -0.3870
     53 O1        -20.2112   16.5968   14.1165 O.co2     1 7DC        -0.5666
     54 H1        -18.3325   15.9389   12.4201 H         1 7DC         0.0728
     55 H2        -17.8623   15.0756   14.8248 H         1 7DC         0.0336
     56 H3        -15.7778   13.9196   14.1184 H         1 7DC         0.0234
     57 H4        -15.6312   15.0569   12.7358 H         1 7DC         0.0234
     58 H5        -17.0292   13.9329   12.8299 H         1 7DC         0.0234
     59 H6        -16.8396   17.1236   15.6669 H         1 7DC         0.0234
     60 H7        -15.4639   16.8863   14.5365 H         1 7DC         0.0234
     61 H8        -15.7760   15.6859   15.8359 H         1 7DC         0.0234
     62 H9        -16.4957   18.0296   13.4238 H         1 7DC         0.1869
     63 H10       -16.5684   19.0894    8.8677 H         1 7DC         0.0677
     64 H11       -14.8648   20.8031    8.1977 H         1 7DC         0.0676
     65 H12       -14.7975   18.8932   12.7875 H         1 7DC         0.0677
     66 H13       -13.1063   20.5666   12.1091 H         1 7DC         0.0676
     67 H14       -11.5294   22.6530    5.9493 H         1 7DC         0.0664
     68 H15        -9.9412   24.4688    5.4371 H         1 7DC         0.0577
     69 H16       -10.9169   23.3275   10.1389 H         1 7DC         0.0664
     70 H17        -9.3049   25.1191    9.6318 H         1 7DC         0.0577
     71 H18        -7.5061   25.7319    7.6134 H         1 7DC         0.0699
     72 H19        -8.8113   26.9519    7.7989 H         1 7DC         0.0699
     73 H20        -9.0247   27.0152    5.4344 H         1 7DC         0.1881
     74 H21        -7.0563   25.1014    3.1640 H         1 7DC         0.0797
     75 H22        -5.8904   27.0094    2.2318 H         1 7DC         0.0277
     76 H23        -5.0483   26.2343    3.6162 H         1 7DC         0.0277
     77 H24        -5.9178   27.7886    3.8500 H         1 7DC         0.0277
     78 H25        -8.4968   27.6270    2.9833 H         1 7DC         0.1883
     79 H26       -11.6495   25.8052    2.4537 H         1 7DC         0.0800
     80 H27        -9.6899   27.0075    0.4111 H         1 7DC         0.0313
     81 H28       -11.4694   26.8933    0.1937 H         1 7DC         0.0313
     82 H29       -11.2745   24.3767    0.4294 H         1 7DC         0.0301
     83 H30        -9.4882   24.5624    0.4692 H         1 7DC         0.0301
     84 H31       -10.5332   23.8987   -1.7712 H         1 7DC         0.0689
     85 H32        -9.4005   25.2929   -1.7842 H         1 7DC         0.0689
     86 H33       -11.2742   26.7897   -2.1438 H         1 7DC         0.2642
     87 H34       -13.6272   23.3944   -2.9062 H         1 7DC         0.2615
     88 H35       -12.0643   23.3087   -2.0502 H         1 7DC         0.2615
     89 H36       -13.4451   27.0051   -3.3892 H         1 7DC         0.2615
     90 H37       -14.4412   25.5588   -3.7035 H         1 7DC         0.2615
     91 H38       -10.9865   28.4864    1.9488 H         1 7DC         0.1883
     92 H39       -11.0630   29.5152    5.5135 H         1 7DC         0.0797
     93 H40       -12.9454   30.8658    4.5555 H         1 7DC         0.0277
     94 H41       -13.4714   29.1649    4.7943 H         1 7DC         0.0277
     95 H42       -13.0435   29.7504    3.1509 H         1 7DC         0.0277
     96 H43       -11.0063   30.9391    2.9952 H         1 7DC         0.1884
     97 H44        -8.8345   31.9379    2.1536 H         1 7DC         0.1122
     98 H45        -6.7465   32.5776    3.0535 H         1 7DC         0.2016
     99 H46        -6.7175   31.2803    4.0663 H         1 7DC         0.2016
    100 H47        -7.8477   32.4594    4.2713 H         1 7DC         0.2016
    101 H48        -6.6293   29.8361    2.3823 H         1 7DC         0.0640
    102 H49        -6.9766   30.9295    1.0001 H         1 7DC         0.0640
    103 H50        -9.0596   29.8191    0.8040 H         1 7DC         0.2099
@<TRIPOS>BOND
     1    1    2 ar 
     2    1    3 1  
     3    3    4 1  
     4    3    7 1  
     5    4    5 1  
     6    4    6 1  
     7    7    8 am 
     8    8    9 2  
     9    8   10 1  
    10   10   11 ar 
    11   10   13 ar 
    12   11   12 ar 
    13   12   15 ar 
    14   13   14 ar 
    15   14   15 ar 
    16   15   16 1  
    17   16   17 2  
    18   17   18 1  
    19   18   19 ar 
    20   18   21 ar 
    21   19   20 ar 
    22   20   23 ar 
    23   21   22 ar 
    24   22   23 ar 
    25   23   24 1  
    26   24   25 1  
    27   25   26 am 
    28   26   27 2  
    29   26   28 1  
    30   28   29 1  
    31   28   30 1  
    32   30   31 am 
    33   31   32 2  
    34   31   33 1  
    35   33   34 1  
    36   33   41 1  
    37   34   35 1  
    38   35   36 1  
    39   36   37 1  
    40   37   38 ar 
    41   38   39 ar 
    42   38   40 ar 
    43   41   42 am 
    44   42   43 2  
    45   42   44 1  
    46   44   45 1  
    47   44   46 1  
    48   46   47 am 
    49   47   48 2  
    50   47   49 1  
    51   49   50 1  
    52   49   51 1  
    53   51   52 1  
    54    1   53 ar 
    55    3   54 1  
    56    4   55 1  
    57    5   56 1  
    58    5   57 1  
    59    5   58 1  
    60    6   59 1  
    61    6   60 1  
    62    6   61 1  
    63    7   62 1  
    64   11   63 1  
    65   12   64 1  
    66   13   65 1  
    67   14   66 1  
    68   19   67 1  
    69   20   68 1  
    70   21   69 1  
    71   22   70 1  
    72   24   71 1  
    73   24   72 1  
    74   25   73 1  
    75   28   74 1  
    76   29   75 1  
    77   29   76 1  
    78   29   77 1  
    79   30   78 1  
    80   33   79 1  
    81   34   80 1  
    82   34   81 1  
    83   35   82 1  
    84   35   83 1  
    85   36   84 1  
    86   36   85 1  
    87   37   86 1  
    88   39   87 1  
    89   39   88 1  
    90   40   89 1  
    91   40   90 1  
    92   41   91 1  
    93   44   92 1  
    94   45   93 1  
    95   45   94 1  
    96   45   95 1  
    97   46   96 1  
    98   49   97 1  
    99   50   98 1  
   100   50   99 1  
   101   50  100 1  
   102   51  101 1  
   103   51  102 1  
   104   52  103 1  
@<TRIPOS>SUBSTRUCTURE
     1 7DC         1

