### 
### Created by X-TOOL on Mon Sep 10 21:13:32 2018
### 

@<TRIPOS>MOLECULE
5m25_ligand
   91    92     1     0     0
SMALL
GAST_HUCK


@<TRIPOS>ATOM
      1 NDJ       -12.5350   22.3480    8.1760 N.pl3     1 7DU        -0.2336
      2 CDG       -11.5170   23.3360    7.9500 C.ar      1 7DU         0.0535
      3 CDH       -11.0530   23.5840    6.6570 C.ar      1 7DU        -0.0488
      4 CDI       -10.0450   24.5500    6.4270 C.ar      1 7DU        -0.0697
      5 CDF       -10.9790   24.0590    9.0340 C.ar      1 7DU        -0.0488
      6 CDE        -9.9840   25.0260    8.8040 C.ar      1 7DU        -0.0697
      7 CDD        -9.5200   25.2730    7.5070 C.ar      1 7DU        -0.0338
      8 CDC        -8.4840   26.2960    7.2860 C.3       1 7DU         0.0587
      9 NDB        -8.3980   26.6290    5.8630 N.am      1 7DU        -0.2757
     10 CAZ        -7.4420   25.8440    5.0620 C.2       1 7DU         0.2030
     11 OBB        -6.7820   24.9700    5.5730 O.2       1 7DU        -0.3944
     12 CAY        -7.2870   26.1100    3.5800 C.3       1 7DU         0.1282
     13 CAX        -6.1200   27.0130    3.3800 C.3       1 7DU        -0.0244
     14 NBA        -8.5110   26.6370    3.0480 N.am      1 7DU        -0.2640
     15 CAN        -9.6840   25.8100    2.8940 C.2       1 7DU         0.2039
     16 OAP        -9.6460   24.6530    3.2350 O.2       1 7DU        -0.3944
     17 CAM       -10.9690   26.3750    2.3220 C.3       1 7DU         0.1311
     18 CAW       -10.9260   26.3350    0.7990 C.3       1 7DU        -0.0092
     19 CAR       -10.4630   24.9470    0.2770 C.3       1 7DU        -0.0156
     20 CAQ       -10.4070   24.9200   -1.2720 C.3       1 7DU         0.0627
     21 NAV       -11.3300   25.8490   -1.8930 N.pl3     1 7DU        -0.2723
     22 CAU       -12.5800   25.3470   -2.4490 C.cat     1 7DU         0.2882
     23 NAT       -12.8610   24.0580   -2.3390 N.pl3     1 7DU        -0.2849
     24 NAS       -13.4190   26.1520   -3.0340 N.pl3     1 7DU        -0.2849
     25 NAO       -11.1340   27.7370    2.7070 N.am      1 7DU        -0.2637
     26 CAJ       -11.2700   28.0260    4.1070 C.2       1 7DU         0.2036
     27 OAL       -11.2600   27.1530    4.9070 O.2       1 7DU        -0.3944
     28 CAI       -11.4280   29.4710    4.5380 C.3       1 7DU         0.1283
     29 CAH       -12.8490   29.8970    4.3090 C.3       1 7DU        -0.0244
     30 NAK       -10.5890   30.2740    3.7110 N.am      1 7DU        -0.2612
     31 C          -9.1550   30.1190    3.6790 C.2       1 7DU         0.2290
     32 O          -8.6270   29.2720    4.3810 O.2       1 7DU        -0.3906
     33 CA         -8.3340   31.0460    2.7810 C.3       1 7DU         0.0885
     34 N          -7.4160   31.7810    3.5810 N.4       1 7DU         0.2396
     35 CB         -7.5860   30.3280    1.6870 C.3       1 7DU         0.1041
     36 OG         -8.3950   29.2580    1.1930 O.3       1 7DU        -0.3870
     37 CDR       -17.2510   18.4520   11.0070 C.3       1 7DU         0.0723
     38 ODS       -18.1480   18.2460    9.8970 O.3       1 7DU        -0.3846
     39 CDO       -16.0650   19.3480   10.5660 C.ar      1 7DU        -0.0306
     40 CDP       -14.9480   19.4430   11.3910 C.ar      1 7DU        -0.0694
     41 CDQ       -13.8410   20.2560   11.0110 C.ar      1 7DU        -0.0488
     42 CDN       -16.0900   20.0810    9.3370 C.ar      1 7DU        -0.0694
     43 CDM       -14.9930   20.8910    8.9640 C.ar      1 7DU        -0.0488
     44 CDL       -13.8600   20.9800    9.7970 C.ar      1 7DU         0.0535
     45 NDK       -12.7210   21.7970    9.4540 N.pl3     1 7DU        -0.2336
     46 H1        -13.1327   22.0416    7.3951 H         1 7DU         0.2031
     47 H2        -11.4685   23.0317    5.8219 H         1 7DU         0.0499
     48 H3         -9.6811   24.7298    5.4219 H         1 7DU         0.0525
     49 H4        -11.3311   23.8702   10.0417 H         1 7DU         0.0499
     50 H5         -9.5734   25.5842    9.6376 H         1 7DU         0.0525
     51 H6         -7.5127   25.9093    7.6280 H         1 7DU         0.0658
     52 H7         -8.7397   27.2013    7.8562 H         1 7DU         0.0658
     53 H8         -8.9581   27.3507    5.4562 H         1 7DU         0.1875
     54 H9         -7.0771   25.1594    3.0680 H         1 7DU         0.0797
     55 H10        -5.9936   27.2164    2.3064 H         1 7DU         0.0277
     56 H11        -5.2120   26.5309    3.7712 H         1 7DU         0.0277
     57 H12        -6.2923   27.9588    3.9145 H         1 7DU         0.0277
     58 H13        -8.5523   27.5989    2.7778 H         1 7DU         0.1883
     59 H14       -11.8194   25.7804    2.6872 H         1 7DU         0.0800
     60 H15       -10.2246   27.1031    0.4412 H         1 7DU         0.0313
     61 H16       -11.9321   26.5462    0.4076 H         1 7DU         0.0313
     62 H17       -11.1703   24.1792    0.6237 H         1 7DU         0.0301
     63 H18        -9.4612   24.7297    0.6759 H         1 7DU         0.0301
     64 H19       -10.6520   23.9033   -1.6130 H         1 7DU         0.0689
     65 H20        -9.3857   25.1772   -1.5895 H         1 7DU         0.0689
     66 H21       -11.1049   26.8530   -1.9408 H         1 7DU         0.2642
     67 H22       -13.7404   23.6877   -2.7268 H         1 7DU         0.2615
     68 H23       -12.2002   23.4254   -1.8657 H         1 7DU         0.2615
     69 H24       -13.1976   27.1544   -3.1181 H         1 7DU         0.2615
     70 H25       -14.3044   25.7866   -3.4129 H         1 7DU         0.2615
     71 H26       -11.1544   28.4677    2.0246 H         1 7DU         0.1883
     72 H27       -11.1565   29.5886    5.5975 H         1 7DU         0.0797
     73 H28       -12.9721   30.9451    4.6194 H         1 7DU         0.0277
     74 H29       -13.5229   29.2584    4.8989 H         1 7DU         0.0277
     75 H30       -13.0934   29.7999    3.2409 H         1 7DU         0.0277
     76 H31       -11.0105   30.9712    3.1311 H         1 7DU         0.1884
     77 H32        -9.0285   31.7528    2.3035 H         1 7DU         0.1122
     78 H33        -6.8729   32.3933    2.9926 H         1 7DU         0.2016
     79 H34        -6.8006   31.1419    4.0595 H         1 7DU         0.2016
     80 H35        -7.9238   32.3288    4.2578 H         1 7DU         0.2016
     81 H36        -6.6449   29.9236    2.0881 H         1 7DU         0.0640
     82 H37        -7.3646   31.0302    0.8698 H         1 7DU         0.0640
     83 H38        -9.2073   29.6098    0.8482 H         1 7DU         0.2099
     84 H39       -16.8663   17.4804   11.3506 H         1 7DU         0.0696
     85 H40       -17.7935   18.9429   11.8284 H         1 7DU         0.0696
     86 H41       -18.8718   17.6966   10.1740 H         1 7DU         0.2122
     87 H42       -14.9200   18.8962   12.3266 H         1 7DU         0.0525
     88 H43       -12.9750   20.3199   11.6599 H         1 7DU         0.0499
     89 H44       -16.9557   20.0147    8.6880 H         1 7DU         0.0525
     90 H45       -15.0236   21.4459    8.0333 H         1 7DU         0.0499
     91 H46       -12.0133   21.9842   10.1786 H         1 7DU         0.2031
@<TRIPOS>BOND
     1    1    2 1  
     2   45    1 1  
     3    2    3 ar 
     4    2    5 ar 
     5    3    4 ar 
     6    4    7 ar 
     7    5    6 ar 
     8    6    7 ar 
     9    7    8 1  
    10    8    9 1  
    11    9   10 am 
    12   10   11 2  
    13   10   12 1  
    14   12   13 1  
    15   12   14 1  
    16   14   15 am 
    17   15   16 2  
    18   15   17 1  
    19   17   18 1  
    20   17   25 1  
    21   18   19 1  
    22   19   20 1  
    23   20   21 1  
    24   21   22 ar 
    25   22   23 ar 
    26   22   24 ar 
    27   25   26 am 
    28   26   27 2  
    29   26   28 1  
    30   28   29 1  
    31   28   30 1  
    32   30   31 am 
    33   31   32 2  
    34   31   33 1  
    35   33   34 1  
    36   33   35 1  
    37   35   36 1  
    38   37   38 1  
    39   39   37 1  
    40   40   39 ar 
    41   42   39 ar 
    42   41   40 ar 
    43   44   41 ar 
    44   43   42 ar 
    45   44   43 ar 
    46   44   45 1  
    47    1   46 1  
    48    3   47 1  
    49    4   48 1  
    50    5   49 1  
    51    6   50 1  
    52    8   51 1  
    53    8   52 1  
    54    9   53 1  
    55   12   54 1  
    56   13   55 1  
    57   13   56 1  
    58   13   57 1  
    59   14   58 1  
    60   17   59 1  
    61   18   60 1  
    62   18   61 1  
    63   19   62 1  
    64   19   63 1  
    65   20   64 1  
    66   20   65 1  
    67   21   66 1  
    68   23   67 1  
    69   23   68 1  
    70   24   69 1  
    71   24   70 1  
    72   25   71 1  
    73   28   72 1  
    74   29   73 1  
    75   29   74 1  
    76   29   75 1  
    77   30   76 1  
    78   33   77 1  
    79   34   78 1  
    80   34   79 1  
    81   34   80 1  
    82   35   81 1  
    83   35   82 1  
    84   36   83 1  
    85   37   84 1  
    86   37   85 1  
    87   38   86 1  
    88   40   87 1  
    89   41   88 1  
    90   42   89 1  
    91   43   90 1  
    92   45   91 1  
@<TRIPOS>SUBSTRUCTURE
     1 7DU         1

