### 
### Created by X-TOOL on Mon Sep 10 21:13:30 2018
### 

@<TRIPOS>MOLECULE
5m28_ligand
   66    68     1     0     0
SMALL
GAST_HUCK


@<TRIPOS>ATOM
      1 C1A         7.9580   12.3370   38.6780 C.3       1 MLR         0.1854
      2 C2A         7.9680   11.2730   37.5960 C.3       1 MLR         0.1339
      3 C3A         9.3960   11.0050   37.1520 C.3       1 MLR         0.1144
      4 C4A        10.0280   12.3080   36.6870 C.3       1 MLR         0.1184
      5 C5A         9.9400   13.3660   37.7760 C.3       1 MLR         0.1134
      6 C6A        10.4180   14.7150   37.3020 C.3       1 MLR         0.0730
      7 O1X         8.6020   11.8710   39.8160 O.3       1 MLR        -0.3649
      8 O2A         7.3170   10.0800   38.0320 O.3       1 MLR        -0.3841
      9 O3A         9.3610   10.0690   36.0900 O.3       1 MLR        -0.3864
     10 O4A        11.4090   12.0560   36.3920 O.3       1 MLR        -0.3401
     11 O5A         8.5640   13.5250   38.1690 O.3       1 MLR        -0.3407
     12 O6A        10.4590   15.6430   38.3640 O.3       1 MLR        -0.3924
     13 C1B        11.8090   12.2520   35.0590 C.3       1 MLR         0.1884
     14 C2B        12.6260   11.0530   34.6050 C.3       1 MLR         0.1341
     15 C3B        14.0010   11.0230   35.2610 C.3       1 MLR         0.1144
     16 C4B        14.6990   12.3730   35.1510 C.3       1 MLR         0.1184
     17 C5B        13.7950   13.5100   35.6060 C.3       1 MLR         0.1134
     18 C6B        14.4190   14.8580   35.3090 C.3       1 MLR         0.0730
     19 O2B        11.9130    9.8660   34.9240 O.3       1 MLR        -0.3841
     20 O3B        14.7930   10.0240   34.6220 O.3       1 MLR        -0.3864
     21 O4B        15.8540   12.3520   36.0050 O.3       1 MLR        -0.3401
     22 O5B        12.5460   13.4530   34.8920 O.3       1 MLR        -0.3405
     23 O6B        13.6830   15.9480   35.8480 O.3       1 MLR        -0.3924
     24 C1C        17.1120   12.2400   35.3780 C.3       1 MLR         0.1884
     25 C2C        17.9240   11.1350   36.0450 C.3       1 MLR         0.1341
     26 C3C        18.2980   11.5170   37.4730 C.3       1 MLR         0.1141
     27 C4C        19.0310   12.8480   37.4330 C.3       1 MLR         0.1119
     28 C5C        18.1530   13.8960   36.7660 C.3       1 MLR         0.1130
     29 C6C        18.8590   15.2200   36.6180 C.3       1 MLR         0.0730
     30 O2C        17.1650    9.9350   36.0040 O.3       1 MLR        -0.3841
     31 O3C        19.1060   10.5150   38.0870 O.3       1 MLR        -0.3864
     32 O4C        19.3490   13.2640   38.7690 O.3       1 MLR        -0.3865
     33 O5C        17.8120   13.4700   35.4340 O.3       1 MLR        -0.3405
     34 O6C        17.9840   16.2510   36.2050 O.3       1 MLR        -0.3924
     35 H1          6.9146   12.5642   38.9421 H         1 MLR         0.0935
     36 H2          7.4101   11.6608   36.7309 H         1 MLR         0.0671
     37 H3          9.9779   10.5933   37.9898 H         1 MLR         0.0648
     38 H4          9.5113   12.6673   35.7848 H         1 MLR         0.0651
     39 H5         10.5443   13.0450   38.6372 H         1 MLR         0.0647
     40 H6          9.7320   15.0869   36.5267 H         1 MLR         0.0584
     41 H7         11.4276   14.6096   36.8783 H         1 MLR         0.0584
     42 H8          8.5667   12.5362   40.4933 H         1 MLR         0.2126
     43 H9          7.7940    9.7103   38.7656 H         1 MLR         0.2101
     44 H10        10.2465    9.8959   35.7926 H         1 MLR         0.2100
     45 H11        10.7627   16.4821   38.0383 H         1 MLR         0.2095
     46 H12        10.9063   12.3182   34.4339 H         1 MLR         0.0938
     47 H13        12.7606   11.1101   33.5148 H         1 MLR         0.0671
     48 H14        13.8840   10.7696   36.3250 H         1 MLR         0.0648
     49 H15        15.0034   12.5430   34.1077 H         1 MLR         0.0651
     50 H16        13.6138   13.4164   36.6869 H         1 MLR         0.0647
     51 H17        14.4788   14.9825   34.2177 H         1 MLR         0.0584
     52 H18        15.4325   14.8756   35.7362 H         1 MLR         0.0584
     53 H19        11.8102    9.8032   35.8663 H         1 MLR         0.2101
     54 H20        15.6426    9.9769   35.0444 H         1 MLR         0.2100
     55 H21        12.8070   15.9499   35.4803 H         1 MLR         0.2095
     56 H22        16.9561   11.9748   34.3219 H         1 MLR         0.0938
     57 H23        18.8531   10.9841   35.4757 H         1 MLR         0.0671
     58 H24        17.3774   11.6315   38.0641 H         1 MLR         0.0648
     59 H25        19.9612   12.7334   36.8571 H         1 MLR         0.0647
     60 H26        17.2402   14.0297   37.3650 H         1 MLR         0.0647
     61 H27        19.6581   15.1132   35.8696 H         1 MLR         0.0584
     62 H28        19.2991   15.4967   37.5874 H         1 MLR         0.0584
     63 H29        17.6741    9.2266   36.3801 H         1 MLR         0.2101
     64 H30        19.9090   10.4092   37.5905 H         1 MLR         0.2100
     65 H31        18.5465   13.3669   39.2669 H         1 MLR         0.2100
     66 H32        17.2933   16.3554   36.8488 H         1 MLR         0.2095
@<TRIPOS>BOND
     1    1    2 1  
     2    1    7 1  
     3    1   11 1  
     4    2    3 1  
     5    2    8 1  
     6    3    4 1  
     7    3    9 1  
     8    4    5 1  
     9    4   10 1  
    10    5    6 1  
    11    5   11 1  
    12    6   12 1  
    13   10   13 1  
    14   13   14 1  
    15   13   22 1  
    16   14   15 1  
    17   14   19 1  
    18   15   16 1  
    19   15   20 1  
    20   16   17 1  
    21   16   21 1  
    22   17   18 1  
    23   17   22 1  
    24   18   23 1  
    25   21   24 1  
    26   24   25 1  
    27   24   33 1  
    28   25   26 1  
    29   25   30 1  
    30   26   27 1  
    31   26   31 1  
    32   27   28 1  
    33   27   32 1  
    34   28   29 1  
    35   28   33 1  
    36   29   34 1  
    37    1   35 1  
    38    2   36 1  
    39    3   37 1  
    40    4   38 1  
    41    5   39 1  
    42    6   40 1  
    43    6   41 1  
    44    7   42 1  
    45    8   43 1  
    46    9   44 1  
    47   12   45 1  
    48   13   46 1  
    49   14   47 1  
    50   15   48 1  
    51   16   49 1  
    52   17   50 1  
    53   18   51 1  
    54   18   52 1  
    55   19   53 1  
    56   20   54 1  
    57   23   55 1  
    58   24   56 1  
    59   25   57 1  
    60   26   58 1  
    61   27   59 1  
    62   28   60 1  
    63   29   61 1  
    64   29   62 1  
    65   30   63 1  
    66   31   64 1  
    67   32   65 1  
    68   34   66 1  
@<TRIPOS>SUBSTRUCTURE
     1 MLR         1

