### 
### Created by X-TOOL on Mon Sep 10 21:13:34 2018
### 

@<TRIPOS>MOLECULE
5m2v_ligand
   30    31     1     0     0
SMALL
GAST_HUCK


@<TRIPOS>ATOM
      1 N1         -3.1330   33.9240  -16.9090 N.4       1 7E5         0.2431
      2 C4         -4.4670   34.0170  -17.5240 C.3       1 7E5         0.0332
      3 C5         -5.1910   32.6880  -17.2510 C.2       1 7E5         0.0846
      4 C6         -1.9010   37.1470  -19.0680 C.ar      1 7E5         0.1070
      5 C7         -0.5380   36.8000  -19.2700 C.ar      1 7E5        -0.0291
      6 C8          0.3970   37.7380  -19.7360 C.ar      1 7E5        -0.0679
      7 C10        -1.3620   39.4120  -19.8190 C.ar      1 7E5        -0.0561
      8 O1         -4.7600   31.9530  -16.3350 O.co2     1 7E5        -0.5643
      9 O2         -6.1810   32.3890  -17.9500 O.co2     1 7E5        -0.5643
     10 C1         -4.2330   34.2870  -19.0250 C.3       1 7E5         0.0383
     11 C3         -2.1220   34.0650  -17.9680 C.3       1 7E5        -0.0003
     12 C2         -2.8200   34.8740  -19.0570 C.3       1 7E5         0.1284
     13 O3         -2.8280   36.2280  -18.6100 O.3       1 7E5        -0.3056
     14 C9         -0.0190   39.0450  -20.0120 C.ar      1 7E5        -0.0692
     15 C11        -2.3240   38.4850  -19.3490 C.ar      1 7E5         0.0388
     16 C12        -3.7500   38.9760  -19.1760 C.2       1 7E5         0.0582
     17 O5         -3.9660   40.2010  -19.0490 O.co2     1 7E5        -0.5643
     18 O4         -4.7300   38.2010  -19.1600 O.co2     1 7E5        -0.5643
     19 H1         -3.0287   33.0296  -16.4559 H         1 7E5         0.2031
     20 H2         -3.0193   34.6601  -16.2298 H         1 7E5         0.2031
     21 H3         -5.0436   34.8446  -17.0852 H         1 7E5         0.1026
     22 H4         -0.2125   35.7877  -19.0594 H         1 7E5         0.0550
     23 H5          1.4325   37.4520  -19.8807 H         1 7E5         0.0610
     24 H6         -1.6688   40.4290  -20.0351 H         1 7E5         0.0622
     25 H7         -4.9680   35.0060  -19.4160 H         1 7E5         0.0370
     26 H8         -4.2864   33.3550  -19.6067 H         1 7E5         0.0370
     27 H9         -1.8189   33.0790  -18.3500 H         1 7E5         0.0844
     28 H10        -1.2376   34.6004  -17.5924 H         1 7E5         0.0844
     29 H11        -2.3461   34.7769  -20.0449 H         1 7E5         0.0709
     30 H12         0.6951   39.7753  -20.3750 H         1 7E5         0.0531
@<TRIPOS>BOND
     1    1    2 1  
     2   11    1 1  
     3    2    3 1  
     4   10    2 1  
     5    3    8 ar 
     6    3    9 ar 
     7    4    5 ar 
     8   13    4 1  
     9    4   15 ar 
    10    5    6 ar 
    11    6   14 ar 
    12    7   14 ar 
    13   15    7 ar 
    14   12   10 1  
    15   12   11 1  
    16   12   13 1  
    17   15   16 1  
    18   16   17 ar 
    19   16   18 ar 
    20    1   19 1  
    21    1   20 1  
    22    2   21 1  
    23    5   22 1  
    24    6   23 1  
    25    7   24 1  
    26   10   25 1  
    27   10   26 1  
    28   11   27 1  
    29   11   28 1  
    30   12   29 1  
    31   14   30 1  
@<TRIPOS>SUBSTRUCTURE
     1 7E5         1

