### 
### Created by X-TOOL on Mon Sep 10 21:13:34 2018
### 

@<TRIPOS>MOLECULE
5m39_ligand
   34    36     1     0     0
SMALL
GAST_HUCK


@<TRIPOS>ATOM
      1 N3         -9.1230   -5.7880   -7.3040 N.2       1 7EA        -0.1392
      2 C4        -10.6820   -7.1470   -6.1450 C.2       1 7EA        -0.0194
      3 C5         -8.3080   -7.7770   -4.4140 C.ar      1 7EA        -0.0289
      4 C6         -6.9060   -7.1620   -6.2990 C.ar      1 7EA        -0.0682
      5 C8        -11.7380   -6.6720   -6.8890 C.2       1 7EA         0.0059
      6 C10        -5.7890   -7.6800   -5.6620 C.ar      1 7EA        -0.0367
      7 C13        -5.9360   -8.2530   -4.3980 C.ar      1 7EA         0.1237
      8 C17        -8.9390   -3.6160   -9.4550 C.3       1 7EA         0.0183
      9 C20        -3.5550   -8.6980   -4.2730 C.3       1 7EA         0.0580
     10 C1         -9.3600   -6.6810   -6.3900 C.2       1 7EA         0.0857
     11 C11       -11.4840   -5.6790   -7.8630 C.2       1 7EA         0.1775
     12 C12       -10.1870   -4.3200   -8.9820 C.2       1 7EA         0.1664
     13 C19        -8.5630   -8.9690   -1.9170 C.3       1 7EA         0.0569
     14 C2         -8.1700   -7.2160   -5.6810 C.ar      1 7EA        -0.0124
     15 C9         -7.1860   -8.2970   -3.7780 C.ar      1 7EA         0.1231
     16 N15       -12.2090   -4.9590   -8.7170 N.2       1 7EA        -0.2790
     17 N16       -11.4240   -4.1770   -9.3820 N.2       1 7EA        -0.2689
     18 N7        -10.1850   -5.2550   -8.0300 N.pl3     1 7EA        -0.1027
     19 O14        -7.2800   -8.8850   -2.5520 O.3       1 7EA        -0.3242
     20 O18        -4.8760   -8.7860   -3.7190 O.3       1 7EA        -0.3220
     21 H1        -10.8594   -7.8844   -5.3636 H         1 7EA         0.0712
     22 H2         -9.2774   -7.8080   -3.9298 H         1 7EA         0.0531
     23 H3         -6.8056   -6.7121   -7.2801 H         1 7EA         0.0529
     24 H4        -12.7462   -7.0523   -6.7311 H         1 7EA         0.0748
     25 H5         -4.8161   -7.6406   -6.1385 H         1 7EA         0.0523
     26 H6         -9.2015   -2.8934  -10.2417 H         1 7EA         0.0458
     27 H7         -8.2312   -4.3554   -9.8578 H         1 7EA         0.0458
     28 H8         -8.4746   -3.0859   -8.6104 H         1 7EA         0.0458
     29 H9         -2.8385   -9.1784   -3.5905 H         1 7EA         0.0575
     30 H10        -3.2826   -7.6405   -4.4055 H         1 7EA         0.0575
     31 H11        -3.5313   -9.2077   -5.2475 H         1 7EA         0.0575
     32 H12        -8.4578   -9.4685   -0.9426 H         1 7EA         0.0573
     33 H13        -9.2498   -9.5468   -2.5529 H         1 7EA         0.0573
     34 H14        -8.9656   -7.9562   -1.7683 H         1 7EA         0.0573
@<TRIPOS>BOND
     1   10    1 2  
     2    1   18 1  
     3    2    5 2  
     4   10    2 1  
     5    3   14 ar 
     6   15    3 ar 
     7    6    4 ar 
     8   14    4 ar 
     9    5   11 1  
    10    7    6 ar 
    11   15    7 ar 
    12    7   20 1  
    13   12    8 1  
    14   20    9 1  
    15   14   10 1  
    16   11   16 2  
    17   18   11 1  
    18   12   17 2  
    19   18   12 1  
    20   19   13 1  
    21   15   19 1  
    22   16   17 1  
    23    2   21 1  
    24    3   22 1  
    25    4   23 1  
    26    5   24 1  
    27    6   25 1  
    28    8   26 1  
    29    8   27 1  
    30    8   28 1  
    31    9   29 1  
    32    9   30 1  
    33    9   31 1  
    34   13   32 1  
    35   13   33 1  
    36   13   34 1  
@<TRIPOS>SUBSTRUCTURE
     1 7EA         1

