### 
### Created by X-TOOL on Mon Sep 10 21:13:32 2018
### 

@<TRIPOS>MOLECULE
5m3a_ligand
   37    40     1     0     0
SMALL
GAST_HUCK


@<TRIPOS>ATOM
      1 C4         27.3360   50.2650   -5.2170 C.ar      1 7E7        -0.0692
      2 C5         27.2400   51.2380   -4.2390 C.ar      1 7E7        -0.0270
      3 C6         28.0030   51.1210   -3.0900 C.ar      1 7E7         0.1259
      4 C8         28.5070   51.8080   -0.9070 C.2       1 7E7         0.2555
      5 C10        29.2420   51.1070    1.0420 C.2       1 7E7        -0.0033
      6 N12        29.7640   52.3170   -0.6290 N.pl3     1 7E7        -0.1724
      7 C13        26.8720   50.3500    0.3370 C.2       1 7E7         0.0671
      8 C15        25.4330   48.8960    1.6360 C.2       1 7E7         0.0040
      9 C21        24.4120   49.1580    0.6940 C.2       1 7E7         0.1738
     10 C22        23.4500   51.0210   -2.2710 C.3       1 7E7         0.0176
     11 C1         28.8570   50.0450   -2.9190 C.ar      1 7E7        -0.0270
     12 C14        26.6380   49.4910    1.4650 C.2       1 7E7        -0.0261
     13 C19        23.5770   50.1400   -1.0820 C.2       1 7E7         0.1628
     14 C2         28.9450   49.0860   -3.9110 C.ar      1 7E7        -0.0692
     15 C23        30.6190   53.1880   -1.4250 C.3       1 7E7         0.0622
     16 C3         28.1870   49.1940   -5.0550 C.ar      1 7E7        -0.0719
     17 C9         28.1570   51.0300    0.1520 C.2       1 7E7         0.0589
     18 N11        30.2070   51.8830    0.5780 N.2       1 7E7        -0.2286
     19 N16        25.9360   50.6210   -0.5620 N.2       1 7E7        -0.1616
     20 N17        23.1560   48.7690    0.5760 N.2       1 7E7        -0.2806
     21 N18        22.6360   49.3990   -0.5570 N.2       1 7E7        -0.2706
     22 N20        24.7260   50.0160   -0.3380 N.pl3     1 7E7        -0.1128
     23 O7         27.8520   52.0690   -2.0650 O.3       1 7E7        -0.2145
     24 H1         26.7375   50.3457   -6.1172 H         1 7E7         0.0591
     25 H2         26.5743   52.0833   -4.3708 H         1 7E7         0.0556
     26 H3         29.2831   50.5895    1.9993 H         1 7E7         0.0644
     27 H4         25.2549   48.2311    2.4799 H         1 7E7         0.0747
     28 H5         22.4333   50.9373   -2.6824 H         1 7E7         0.0457
     29 H6         24.1807   50.7147   -3.0341 H         1 7E7         0.0457
     30 H7         23.6419   52.0635   -1.9771 H         1 7E7         0.0457
     31 H8         29.4507   49.9552   -2.0165 H         1 7E7         0.0556
     32 H9         27.4345   49.3172    2.1870 H         1 7E7         0.0695
     33 H10        29.6155   48.2433   -3.7871 H         1 7E7         0.0591
     34 H11        31.5528   53.3847   -0.8779 H         1 7E7         0.0595
     35 H12        30.0986   54.1382   -1.6155 H         1 7E7         0.0595
     36 H13        30.8511   52.6986   -2.3824 H         1 7E7         0.0595
     37 H14        28.2597   48.4371   -5.8275 H         1 7E7         0.0531
@<TRIPOS>BOND
     1    2    1 ar 
     2    1   16 ar 
     3    3    2 ar 
     4    3   11 ar 
     5   23    3 1  
     6    4    6 1  
     7   17    4 2  
     8    4   23 1  
     9   17    5 1  
    10    5   18 2  
    11    6   15 1  
    12   18    6 1  
    13   12    7 1  
    14    7   17 1  
    15    7   19 2  
    16    9    8 1  
    17    8   12 2  
    18    9   20 2  
    19   22    9 1  
    20   13   10 1  
    21   11   14 ar 
    22   13   21 2  
    23   13   22 1  
    24   14   16 ar 
    25   19   22 1  
    26   20   21 1  
    27    1   24 1  
    28    2   25 1  
    29    5   26 1  
    30    8   27 1  
    31   10   28 1  
    32   10   29 1  
    33   10   30 1  
    34   11   31 1  
    35   12   32 1  
    36   14   33 1  
    37   15   34 1  
    38   15   35 1  
    39   15   36 1  
    40   16   37 1  
@<TRIPOS>SUBSTRUCTURE
     1 7E7         1

