### 
### Created by X-TOOL on Mon Sep 10 21:13:34 2018
### 

@<TRIPOS>MOLECULE
5m44_ligand
   35    37     1     0     0
SMALL
GAST_HUCK


@<TRIPOS>ATOM
      1 C4         -3.7680   18.0760  -18.1700 C.ar      1 7EY         0.1185
      2 C5         -4.5630   16.9870  -18.3250 C.ar      1 7EY         0.0484
      3 C6         -5.1720   16.4920  -17.2190 C.ar      1 7EY         0.1028
      4 N1         -4.9910   17.0490  -16.0120 N.ar      1 7EY        -0.2650
      5 N3         -3.5640   18.6620  -16.9820 N.ar      1 7EY        -0.2662
      6 OAB        -8.9800   13.3770  -17.5840 O.co2     1 7EY        -0.5690
      7 CAP        -9.2640   14.1390  -16.6310 C.2       1 7EY         0.0358
      8 OAC       -10.3000   14.8350  -16.5340 O.co2     1 7EY        -0.5690
      9 CAK        -8.2610   14.2160  -15.4710 C.3       1 7EY         0.0119
     10 CAJ        -7.2460   15.3370  -15.7190 C.3       1 7EY         0.0236
     11 SAN        -6.2500   15.0700  -17.2310 S.3       1 7EY        -0.0701
     12 C2         -4.1790   18.1620  -15.8480 C.ar      1 7EY         0.0687
     13 SAO        -3.1530   18.4970  -19.6240 S.3       1 7EY        -0.0092
     14 CAI        -3.8640   17.3260  -20.4900 C.2       1 7EY         0.0134
     15 CAS        -4.5950   16.6000  -19.6390 C.2       1 7EY        -0.0059
     16 CAR        -5.2640   15.5610  -20.1480 C.ar      1 7EY        -0.0352
     17 CAG        -6.4770   15.7410  -20.8020 C.ar      1 7EY        -0.0653
     18 CAE        -7.1480   14.6430  -21.3350 C.ar      1 7EY        -0.0629
     19 CAQ        -6.6080   13.3660  -21.2270 C.ar      1 7EY        -0.0483
     20 CAA        -7.2830   12.2730  -21.7620 C.3       1 7EY        -0.0322
     21 CAF        -5.3920   13.1840  -20.5800 C.ar      1 7EY        -0.0629
     22 CAH        -4.7210   14.2820  -20.0530 C.ar      1 7EY        -0.0653
     23 H1         -7.7290   13.2569  -15.3870 H         1 7EY         0.0441
     24 H2         -8.8031   14.4178  -14.5354 H         1 7EY         0.0441
     25 H3         -6.5664   15.3931  -14.8559 H         1 7EY         0.0427
     26 H4         -7.7900   16.2877  -15.8199 H         1 7EY         0.0427
     27 H5         -4.0331   18.6189  -14.8759 H         1 7EY         0.1042
     28 H6         -3.7648   17.1620  -21.5620 H         1 7EY         0.0836
     29 H7         -6.9002   16.7344  -20.8971 H         1 7EY         0.0577
     30 H8         -8.0979   14.7848  -21.8376 H         1 7EY         0.0552
     31 H9         -6.7021   11.3573  -21.5777 H         1 7EY         0.0388
     32 H10        -7.4099   12.4148  -22.8454 H         1 7EY         0.0388
     33 H11        -8.2705   12.1828  -21.2858 H         1 7EY         0.0388
     34 H12        -4.9683   12.1906  -20.4865 H         1 7EY         0.0552
     35 H13        -3.7646   14.1409  -19.5627 H         1 7EY         0.0577
@<TRIPOS>BOND
     1    2    1 ar 
     2    1    5 ar 
     3    1   13 1  
     4    3    2 ar 
     5    2   15 1  
     6    3    4 ar 
     7   11    3 1  
     8    4   12 ar 
     9   12    5 ar 
    10    7    6 ar 
    11    7    8 ar 
    12    9    7 1  
    13   10    9 1  
    14   10   11 1  
    15   13   14 1  
    16   14   15 2  
    17   15   16 1  
    18   16   17 ar 
    19   16   22 ar 
    20   17   18 ar 
    21   18   19 ar 
    22   19   20 1  
    23   19   21 ar 
    24   21   22 ar 
    25    9   23 1  
    26    9   24 1  
    27   10   25 1  
    28   10   26 1  
    29   12   27 1  
    30   14   28 1  
    31   17   29 1  
    32   18   30 1  
    33   20   31 1  
    34   20   32 1  
    35   20   33 1  
    36   21   34 1  
    37   22   35 1  
@<TRIPOS>SUBSTRUCTURE
     1 7EY         1

