### 
### Created by X-TOOL on Mon Sep 10 21:13:31 2018
### 

@<TRIPOS>MOLECULE
5m4c_ligand
   35    37     1     0     0
SMALL
GAST_HUCK


@<TRIPOS>ATOM
      1 C4        -12.7410   -8.4420  -11.0340 C.ar      1 7EY         0.1185
      2 C5        -13.0640   -7.1350  -10.7660 C.ar      1 7EY         0.0484
      3 C6        -13.0030   -6.2650  -11.8310 C.ar      1 7EY         0.1028
      4 N1        -12.6090   -6.6600  -13.0570 N.ar      1 7EY        -0.2650
      5 N3        -12.3800   -8.8620  -12.2560 N.ar      1 7EY        -0.2662
      6 OAB       -10.9710   -1.6040  -14.6380 O.co2     1 7EY        -0.5690
      7 CAP       -11.9770   -2.0570  -14.0330 C.2       1 7EY         0.0358
      8 OAC       -12.7330   -1.3790  -13.3110 O.co2     1 7EY        -0.5690
      9 CAK       -12.2750   -3.5780  -14.1760 C.3       1 7EY         0.0119
     10 CAJ       -13.5990   -4.0010  -13.4810 C.3       1 7EY         0.0236
     11 SAN       -13.4000   -4.5530  -11.7510 S.3       1 7EY        -0.0701
     12 C2        -12.2920   -7.9870  -13.3170 C.ar      1 7EY         0.0687
     13 SAO       -12.9270   -9.3990   -9.6620 S.3       1 7EY        -0.0092
     14 CAI       -13.4040   -8.0910   -8.7120 C.2       1 7EY         0.0134
     15 CAS       -13.4360   -6.9680   -9.4490 C.2       1 7EY        -0.0059
     16 CAR       -13.8070   -5.8150   -8.8010 C.ar      1 7EY        -0.0352
     17 CAG       -12.9500   -4.6980   -8.7070 C.ar      1 7EY        -0.0653
     18 CAE       -13.2890   -3.5130   -8.0370 C.ar      1 7EY        -0.0629
     19 CAQ       -14.5240   -3.4530   -7.3890 C.ar      1 7EY        -0.0483
     20 CAA       -14.9230   -2.3030   -6.6960 C.3       1 7EY        -0.0322
     21 CAF       -15.3770   -4.5650   -7.4370 C.ar      1 7EY        -0.0629
     22 CAH       -15.0070   -5.7410   -8.1160 C.ar      1 7EY        -0.0653
     23 H1        -11.4456   -4.1424  -13.7249 H         1 7EY         0.0441
     24 H2        -12.3461   -3.8230  -15.2460 H         1 7EY         0.0441
     25 H3        -14.0413   -4.8272  -14.0570 H         1 7EY         0.0427
     26 H4        -14.2832   -3.1397  -13.4908 H         1 7EY         0.0427
     27 H5        -11.9907   -8.3176  -14.3044 H         1 7EY         0.1042
     28 H6        -13.6508   -8.1479   -7.6529 H         1 7EY         0.0836
     29 H7        -11.9758   -4.7589   -9.1786 H         1 7EY         0.0577
     30 H8        -12.6108   -2.6675   -8.0229 H         1 7EY         0.0552
     31 H9        -15.9209   -2.4641   -6.2621 H         1 7EY         0.0388
     32 H10       -14.9584   -1.4504   -7.3901 H         1 7EY         0.0388
     33 H11       -14.2032   -2.0914   -5.8916 H         1 7EY         0.0388
     34 H12       -16.3400   -4.5179   -6.9415 H         1 7EY         0.0552
     35 H13       -15.6698   -6.5987   -8.1022 H         1 7EY         0.0577
@<TRIPOS>BOND
     1    2    1 ar 
     2    1    5 ar 
     3    1   13 1  
     4    3    2 ar 
     5    2   15 1  
     6    3    4 ar 
     7   11    3 1  
     8    4   12 ar 
     9   12    5 ar 
    10    7    6 ar 
    11    7    8 ar 
    12    9    7 1  
    13   10    9 1  
    14   10   11 1  
    15   13   14 1  
    16   14   15 2  
    17   15   16 1  
    18   16   17 ar 
    19   16   22 ar 
    20   17   18 ar 
    21   18   19 ar 
    22   19   20 1  
    23   19   21 ar 
    24   21   22 ar 
    25    9   23 1  
    26    9   24 1  
    27   10   25 1  
    28   10   26 1  
    29   12   27 1  
    30   14   28 1  
    31   17   29 1  
    32   18   30 1  
    33   20   31 1  
    34   20   32 1  
    35   20   33 1  
    36   21   34 1  
    37   22   35 1  
@<TRIPOS>SUBSTRUCTURE
     1 7EY         1

