### 
### Created by X-TOOL on Mon Sep 10 21:13:31 2018
### 

@<TRIPOS>MOLECULE
5m4f_ligand
   32    34     1     0     0
SMALL
GAST_HUCK


@<TRIPOS>ATOM
      1 C10       -12.3590   -4.9090  -13.2980 C.ar      1 7FC        -0.0645
      2 C15       -13.5960  -10.3130   -8.3640 C.ar      1 7FC         0.0221
      3 C17       -13.5290   -7.9830   -8.3380 C.ar      1 7FC         0.0645
      4 C20       -13.0150   -6.5950  -11.6230 C.2       1 7FC         0.1311
      5 C21       -13.0230   -8.9900  -11.8320 C.3       1 7FC         0.1523
      6 C22       -13.2330   -9.0630  -10.4040 C.ar      1 7FC         0.0344
      7 O01       -11.6620   -0.9890  -14.2890 O.co2     1 7FC        -0.5640
      8 O02       -12.9620  -10.1130  -12.5860 O.3       1 7FC        -0.3647
      9 O03       -13.0280   -0.2830  -12.6590 O.co2     1 7FC        -0.5640
     10 O04       -12.7260   -7.6870  -13.7990 O.3       1 7FC        -0.3228
     11 CL5       -13.7000  -11.8210   -7.5730 Cl        1 7FC        -0.0832
     12 CL6       -13.6130   -6.4950   -7.5390 Cl        1 7FC        -0.0817
     13 C07       -13.2710   -2.8740  -11.6350 C.ar      1 7FC        -0.0599
     14 C08       -12.2280   -3.6090  -13.6940 C.ar      1 7FC        -0.0599
     15 C09       -13.3780   -4.1920  -11.2370 C.ar      1 7FC        -0.0645
     16 C11       -13.6780   -9.1610   -7.6480 C.ar      1 7FC        -0.0501
     17 C12       -13.3850  -10.3090   -9.7360 C.ar      1 7FC        -0.0499
     18 O13       -13.2160   -6.7200  -10.2860 O.3       1 7FC        -0.2879
     19 C14       -12.4810   -1.2060  -13.3180 C.2       1 7FC         0.0550
     20 C16       -12.6660   -2.6070  -12.8860 C.ar      1 7FC        -0.0020
     21 C18       -12.9170   -5.1990  -12.0620 C.ar      1 7FC        -0.0142
     22 C19       -12.8970   -7.7070  -12.4260 C.2       1 7FC         0.1473
     23 C23       -13.3150   -7.9310   -9.7230 C.ar      1 7FC         0.1245
     24 H1        -12.0281   -5.7115  -13.9473 H         1 7FC         0.0529
     25 H2        -11.9343   -9.0358  -11.6815 H         1 7FC         0.0941
     26 H3        -12.8201   -9.8756  -13.4948 H         1 7FC         0.2162
     27 H4        -13.4737   -8.0986  -14.2161 H         1 7FC         0.2547
     28 H5        -13.6389   -2.0693  -11.0088 H         1 7FC         0.0618
     29 H6        -11.7755   -3.3760  -14.6511 H         1 7FC         0.0618
     30 H7        -13.8229   -4.4357  -10.2790 H         1 7FC         0.0529
     31 H8        -13.8535   -9.1714   -6.5783 H         1 7FC         0.0545
     32 H9        -13.3369  -11.2402  -10.2889 H         1 7FC         0.0531
@<TRIPOS>BOND
     1   14    1 ar 
     2    1   21 ar 
     3    2   11 1  
     4   16    2 ar 
     5   17    2 ar 
     6    3   12 1  
     7    3   16 ar 
     8   23    3 ar 
     9    4   18 1  
    10   21    4 1  
    11    4   22 2  
    12    5    6 1  
    13    5    8 1  
    14   22    5 1  
    15    6   17 ar 
    16   23    6 ar 
    17   19    7 ar 
    18   19    9 ar 
    19   22   10 1  
    20   13   15 ar 
    21   20   13 ar 
    22   20   14 ar 
    23   15   21 ar 
    24   18   23 1  
    25   19   20 1  
    26    1   24 1  
    27    5   25 1  
    28    8   26 1  
    29   10   27 1  
    30   13   28 1  
    31   14   29 1  
    32   15   30 1  
    33   16   31 1  
    34   17   32 1  
@<TRIPOS>SUBSTRUCTURE
     1 7FC         1

