### 
### Created by X-TOOL on Mon Sep 10 21:13:32 2018
### 

@<TRIPOS>MOLECULE
5m4i_ligand
   32    34     1     0     0
SMALL
GAST_HUCK


@<TRIPOS>ATOM
      1 C10       -17.8460    4.1750   21.3840 C.ar      1 7FC        -0.0645
      2 C15       -15.7810    6.7700   14.6470 C.ar      1 7FC         0.0221
      3 C17       -17.2540    5.0290   15.4410 C.ar      1 7FC         0.0645
      4 C20       -17.4310    5.0840   19.0680 C.2       1 7FC         0.1311
      5 C21       -15.9110    6.8800   18.4300 C.3       1 7FC         0.1523
      6 C22       -16.1560    6.4830   17.0450 C.ar      1 7FC         0.0344
      7 O01       -21.5990    1.6540   22.6600 O.co2     1 7FC        -0.5640
      8 O02       -15.0720    7.9250   18.7460 O.3       1 7FC        -0.3647
      9 O03       -19.6970    0.9470   23.4730 O.co2     1 7FC        -0.5640
     10 O04       -16.3770    6.4810   20.7670 O.3       1 7FC        -0.3228
     11 CL5       -15.0150    7.6090   13.3420 Cl        1 7FC        -0.0832
     12 CL6       -18.3310    3.7060   15.1460 Cl        1 7FC        -0.0817
     13 C07       -19.9090    2.6020   20.4030 C.ar      1 7FC        -0.0599
     14 C08       -18.5550    3.3530   22.2420 C.ar      1 7FC        -0.0599
     15 C09       -19.2030    3.4310   19.5480 C.ar      1 7FC        -0.0645
     16 C11       -16.6450    5.6980   14.3860 C.ar      1 7FC        -0.0501
     17 C12       -15.5300    7.1680   15.9620 C.ar      1 7FC        -0.0499
     18 O13       -17.5980    4.7820   17.8000 O.3       1 7FC        -0.2879
     19 C14       -20.3390    1.6790   22.6760 C.2       1 7FC         0.0550
     20 C16       -19.5860    2.5680   21.7500 C.ar      1 7FC        -0.0020
     21 C18       -18.1750    4.2270   20.0360 C.ar      1 7FC        -0.0142
     22 C19       -16.5840    6.1360   19.4510 C.2       1 7FC         0.1473
     23 C23       -16.9960    5.4440   16.7860 C.ar      1 7FC         0.1245
     24 H1        -17.0314    4.7801   21.7653 H         1 7FC         0.0529
     25 H2        -15.0551    6.1910   18.4816 H         1 7FC         0.0941
     26 H3        -14.1999    7.7399   18.4178 H         1 7FC         0.2162
     27 H4        -16.6505    7.3804   20.9042 H         1 7FC         0.2547
     28 H5        -20.7114    1.9819   20.0201 H         1 7FC         0.0618
     29 H6        -18.3048    3.3230   23.2963 H         1 7FC         0.0618
     30 H7        -19.4536    3.4589   18.4937 H         1 7FC         0.0529
     31 H8        -16.8378    5.3915   13.3643 H         1 7FC         0.0545
     32 H9        -14.8599    7.9969   16.1593 H         1 7FC         0.0531
@<TRIPOS>BOND
     1   14    1 ar 
     2    1   21 ar 
     3    2   11 1  
     4   16    2 ar 
     5   17    2 ar 
     6    3   12 1  
     7    3   16 ar 
     8   23    3 ar 
     9    4   18 1  
    10   21    4 1  
    11    4   22 2  
    12    5    6 1  
    13    5    8 1  
    14   22    5 1  
    15    6   17 ar 
    16   23    6 ar 
    17   19    7 ar 
    18   19    9 ar 
    19   22   10 1  
    20   13   15 ar 
    21   20   13 ar 
    22   20   14 ar 
    23   15   21 ar 
    24   18   23 1  
    25   19   20 1  
    26    1   24 1  
    27    5   25 1  
    28    8   26 1  
    29   10   27 1  
    30   13   28 1  
    31   14   29 1  
    32   15   30 1  
    33   16   31 1  
    34   17   32 1  
@<TRIPOS>SUBSTRUCTURE
     1 7FC         1

