### 
### Created by X-TOOL on Mon Sep 10 21:13:34 2018
### 

@<TRIPOS>MOLECULE
5m4k_ligand
   45    46     1     0     0
SMALL
GAST_HUCK


@<TRIPOS>ATOM
      1 C1         33.7700  -36.6430    9.0670 C.ar      1 7F9        -0.0379
      2 N1         32.2260  -32.9100   10.6970 N.am      1 7F9        -0.2096
      3 O1         30.8150  -34.4310   11.7860 O.2       1 7F9        -0.3853
      4 C2         34.2810  -37.4440   10.0840 C.ar      1 7F9         0.0845
      5 N2         31.1850  -30.1270   12.5890 N.am      1 7F9        -0.2852
      6 O2         36.6040  -32.5380    7.2280 O.3       1 7F9        -0.3308
      7 C3         33.9500  -37.1780   11.4060 C.ar      1 7F9         0.0007
      8 O3         32.7520  -35.8060   12.9720 O.3       1 7F9        -0.3304
      9 C4         33.1100  -36.1110   11.6950 C.ar      1 7F9         0.1012
     10 O4         35.1040  -38.4860    9.7890 O.3       1 7F9        -0.3324
     11 C5         32.5910  -35.3030   10.6870 C.ar      1 7F9         0.0728
     12 O5         33.1750  -30.4020   11.5380 O.2       1 7F9        -0.3943
     13 C6         32.9250  -35.5770    9.3640 C.ar      1 7F9        -0.0578
     14 C7         31.7550  -34.2430   11.0360 C.2       1 7F9         0.2207
     15 C8         33.3120  -32.7790    9.7520 C.ar      1 7F9         0.0602
     16 C9         34.5660  -33.2270   10.1560 C.ar      1 7F9        -0.0487
     17 C10        35.6620  -33.1440    9.3100 C.ar      1 7F9        -0.0458
     18 C11        35.5080  -32.6070    8.0400 C.ar      1 7F9         0.0755
     19 C12        34.2490  -32.1600    7.6310 C.ar      1 7F9        -0.0458
     20 C13        33.1460  -32.2430    8.4790 C.ar      1 7F9        -0.0487
     21 C14        36.3920  -31.7610    6.0450 C.3       1 7F9         0.0562
     22 C15        31.9830  -30.6950   11.6750 C.2       1 7F9         0.2038
     23 C16        31.6730  -29.0850   13.5040 C.3       1 7F9         0.0281
     24 C17        31.3090  -31.7690   10.8090 C.3       1 7F9         0.1408
     25 C18        30.5620  -28.0650   13.7560 C.3       1 7F9        -0.0449
     26 H1         34.0319  -36.8506    8.0358 H         1 7F9         0.0469
     27 H2         30.2309  -30.4200   12.6505 H         1 7F9         0.1851
     28 H3         34.3434  -37.7970   12.2042 H         1 7F9         0.0475
     29 H4         32.1773  -35.0496   12.9665 H         1 7F9         0.2506
     30 H5         35.9426  -38.3565   10.2162 H         1 7F9         0.2498
     31 H6         32.5276  -34.9610    8.5654 H         1 7F9         0.0615
     32 H7         34.6882  -33.6475   11.1476 H         1 7F9         0.0479
     33 H8         36.6329  -33.4965    9.6390 H         1 7F9         0.0507
     34 H9         34.1281  -31.7419    6.6382 H         1 7F9         0.0507
     35 H10        32.1730  -31.8950    8.1514 H         1 7F9         0.0479
     36 H11        37.3128  -31.7505    5.4433 H         1 7F9         0.0572
     37 H12        36.1256  -30.7313    6.3255 H         1 7F9         0.0572
     38 H13        35.5748  -32.2040    5.4569 H         1 7F9         0.0572
     39 H14        32.5399  -28.5789   13.0541 H         1 7F9         0.0517
     40 H15        31.9712  -29.5451   14.4576 H         1 7F9         0.0517
     41 H16        30.3690  -32.0916   11.2805 H         1 7F9         0.0824
     42 H17        31.0970  -31.3621    9.8093 H         1 7F9         0.0824
     43 H18        30.9281  -27.2858   14.4407 H         1 7F9         0.0249
     44 H19        29.6951  -28.5708   14.2061 H         1 7F9         0.0249
     45 H20        30.2637  -27.6046   12.8026 H         1 7F9         0.0249
@<TRIPOS>BOND
     1    1    4 ar 
     2   13    1 ar 
     3    2   14 am 
     4    2   15 1  
     5   24    2 1  
     6   14    3 2  
     7    7    4 ar 
     8    4   10 1  
     9   22    5 am 
    10    5   23 1  
    11   18    6 1  
    12    6   21 1  
    13    9    7 ar 
    14    9    8 1  
    15   11    9 ar 
    16   11   13 ar 
    17   14   11 1  
    18   22   12 2  
    19   15   16 ar 
    20   15   20 ar 
    21   16   17 ar 
    22   17   18 ar 
    23   19   18 ar 
    24   20   19 ar 
    25   22   24 1  
    26   23   25 1  
    27    1   26 1  
    28    5   27 1  
    29    7   28 1  
    30    8   29 1  
    31   10   30 1  
    32   13   31 1  
    33   16   32 1  
    34   17   33 1  
    35   19   34 1  
    36   20   35 1  
    37   21   36 1  
    38   21   37 1  
    39   21   38 1  
    40   23   39 1  
    41   23   40 1  
    42   24   41 1  
    43   24   42 1  
    44   25   43 1  
    45   25   44 1  
    46   25   45 1  
@<TRIPOS>SUBSTRUCTURE
     1 7F9         1

