### 
### Created by X-TOOL on Mon Sep 10 21:13:30 2018
### 

@<TRIPOS>MOLECULE
5m4q_ligand
   17    17     1     0     0
SMALL
GAST_HUCK


@<TRIPOS>ATOM
      1 N          22.2300    4.2870   77.6950 N.4       1 PRO         0.2409
      2 CA         22.3940    3.1030   78.5470 C.3       1 PRO         0.0303
      3 C          23.3730    3.3340   79.6990 C.2       1 PRO         0.0845
      4 O          24.2150    4.2370   79.6450 O.co2     1 PRO        -0.5643
      5 CB         22.9260    2.0310   77.5790 C.3       1 PRO         0.0072
      6 CG         23.2560    2.7460   76.3010 C.3       1 PRO        -0.0059
      7 CD         22.4060    3.9680   76.2710 C.3       1 PRO        -0.0318
      8 OXT        23.3290    2.6240   80.7120 O.co2     1 PRO        -0.5643
      9 H1         22.9149    4.9771   77.9611 H         1 PRO         0.2030
     10 H2         21.3044    4.6616   77.8327 H         1 PRO         0.2030
     11 H3         21.4228    2.7985   78.9643 H         1 PRO         0.1025
     12 H4         22.1577    1.2646   77.3994 H         1 PRO         0.0340
     13 H5         23.8275    1.5564   77.9939 H         1 PRO         0.0340
     14 H6         23.0299    2.1042   75.4367 H         1 PRO         0.0320
     15 H7         24.3205    3.0227   76.2838 H         1 PRO         0.0320
     16 H8         22.9129    4.7886   75.7422 H         1 PRO         0.0814
     17 H9         21.4383    3.7640   75.7895 H         1 PRO         0.0814
@<TRIPOS>BOND
     1    1    2 1  
     2    1    7 1  
     3    2    3 1  
     4    2    5 1  
     5    3    4 ar 
     6    3    8 ar 
     7    5    6 1  
     8    6    7 1  
     9    1    9 1  
    10    1   10 1  
    11    2   11 1  
    12    5   12 1  
    13    5   13 1  
    14    6   14 1  
    15    6   15 1  
    16    7   16 1  
    17    7   17 1  
@<TRIPOS>SUBSTRUCTURE
     1 PRO         1

