### 
### Created by X-TOOL on Mon Sep 10 21:13:31 2018
### 

@<TRIPOS>MOLECULE
5m4u_ligand
   32    34     1     0     0
SMALL
GAST_HUCK


@<TRIPOS>ATOM
      1 C10         8.4850  -18.3850  -10.1070 C.ar      1 7FC        -0.0645
      2 C15        14.5580  -21.7880   -7.3130 C.ar      1 7FC         0.0221
      3 C17        14.0390  -19.5810   -8.1230 C.ar      1 7FC         0.0645
      4 C20        10.5360  -19.3260   -8.9760 C.2       1 7FC         0.1311
      5 C21        10.8940  -21.6030   -8.1960 C.3       1 7FC         0.1523
      6 C22        12.2860  -21.2320   -7.9960 C.ar      1 7FC         0.0344
      7 O01         6.6480  -15.0560  -11.8770 O.co2     1 7FC        -0.5640
      8 O02        10.4440  -22.8600   -7.8970 O.3       1 7FC        -0.3647
      9 O03         8.0080  -13.6930  -10.8200 O.co2     1 7FC        -0.5640
     10 O04         8.6960  -20.9100   -8.9000 O.3       1 7FC        -0.3228
     11 CL5        15.7110  -22.9200   -6.7000 Cl        1 7FC        -0.0832
     12 CL6        14.4970  -17.9650   -8.5200 Cl        1 7FC        -0.0817
     13 C07         9.6070  -15.8460   -9.9790 C.ar      1 7FC        -0.0599
     14 C08         7.7940  -17.2940  -10.6140 C.ar      1 7FC        -0.0599
     15 C09        10.2920  -16.9340   -9.4670 C.ar      1 7FC        -0.0645
     16 C11        14.9620  -20.4880   -7.6280 C.ar      1 7FC        -0.0501
     17 C12        13.2280  -22.1730   -7.4910 C.ar      1 7FC        -0.0499
     18 O13        11.8090  -19.0660   -8.7810 O.3       1 7FC        -0.2879
     19 C14         7.6280  -14.8610  -11.1060 C.2       1 7FC         0.0550
     20 C16         8.3600  -16.0300  -10.5500 C.ar      1 7FC        -0.0020
     21 C18         9.7310  -18.2010   -9.5220 C.ar      1 7FC        -0.0142
     22 C19        10.0140  -20.5960   -8.7030 C.2       1 7FC         0.1473
     23 C23        12.6840  -19.9710   -8.3000 C.ar      1 7FC         0.1245
     24 H1          8.0538  -19.3777  -10.1673 H         1 7FC         0.0529
     25 H2         11.1193  -21.9345   -9.2204 H         1 7FC         0.0941
     26 H3          9.5158  -22.9174   -8.0911 H         1 7FC         0.2162
     27 H4          8.3080  -21.1751   -8.0744 H         1 7FC         0.2547
     28 H5         10.0447  -14.8554   -9.9330 H         1 7FC         0.0618
     29 H6          6.8147  -17.4294  -11.0587 H         1 7FC         0.0618
     30 H7         11.2704  -16.7954   -9.0214 H         1 7FC         0.0529
     31 H8         15.9945  -20.1900   -7.4855 H         1 7FC         0.0545
     32 H9         12.9144  -23.1814   -7.2465 H         1 7FC         0.0531
@<TRIPOS>BOND
     1   14    1 ar 
     2    1   21 ar 
     3    2   11 1  
     4   16    2 ar 
     5   17    2 ar 
     6    3   12 1  
     7    3   16 ar 
     8   23    3 ar 
     9    4   18 1  
    10   21    4 1  
    11    4   22 2  
    12    5    6 1  
    13    5    8 1  
    14   22    5 1  
    15    6   17 ar 
    16   23    6 ar 
    17   19    7 ar 
    18   19    9 ar 
    19   22   10 1  
    20   13   15 ar 
    21   20   13 ar 
    22   20   14 ar 
    23   15   21 ar 
    24   18   23 1  
    25   19   20 1  
    26    1   24 1  
    27    5   25 1  
    28    8   26 1  
    29   10   27 1  
    30   13   28 1  
    31   14   29 1  
    32   15   30 1  
    33   16   31 1  
    34   17   32 1  
@<TRIPOS>SUBSTRUCTURE
     1 7FC         1

