### 
### Created by X-TOOL on Mon Sep 10 21:13:29 2018
### 

@<TRIPOS>MOLECULE
5m51_ligand
   49    52     1     0     0
SMALL
GAST_HUCK


@<TRIPOS>ATOM
      1 O01        29.5190   -4.7310   17.4460 O.2       1 NU6        -0.3849
      2 C02        29.9140   -3.9810   16.5740 C.2       1 NU6         0.1998
      3 N03        29.1340   -3.7610   15.4050 N.am      1 NU6        -0.3002
      4 C04        31.2410   -3.2850   16.7420 C.ar      1 NU6         0.0399
      5 C05        31.4640   -2.4550   17.8350 C.ar      1 NU6        -0.0538
      6 C06        32.6870   -1.8220   17.9760 C.ar      1 NU6        -0.0661
      7 C07        33.6770   -2.0160   17.0230 C.ar      1 NU6        -0.0344
      8 C08        33.4580   -2.8410   15.9220 C.ar      1 NU6         0.0687
      9 N09        34.5220   -3.0060   14.9750 N.pl3     1 NU6        -0.2500
     10 C10        34.4830   -3.6910   13.7220 C.ar      1 NU6         0.1766
     11 N11        35.5530   -3.5710   12.9500 N.ar      1 NU6        -0.2816
     12 C12        35.6240   -4.1970   11.7260 C.ar      1 NU6         0.0899
     13 N13        36.5890   -4.2310   10.7480 N.2       1 NU6        -0.2902
     14 C14        36.1500   -5.0010    9.7300 C.2       1 NU6         0.1089
     15 N15        34.9200   -5.4580   10.0400 N.pl3     1 NU6        -0.2448
     16 C16        34.5750   -4.9650   11.2720 C.ar      1 NU6         0.1541
     17 C17        33.4520   -5.0750   12.1500 C.ar      1 NU6         0.1974
     18 O18        32.3690   -5.8510   11.7120 O.3       1 NU6        -0.2928
     19 C19        31.5650   -6.4620   12.6950 C.3       1 NU6         0.0791
     20 C20        30.1600   -6.3290   12.1530 C.3       1 NU6        -0.0123
     21 C21        30.1770   -6.6980   10.6770 C.3       1 NU6        -0.0477
     22 C22        29.9460   -8.1640   10.3940 C.3       1 NU6        -0.0527
     23 C23        28.7320   -8.6860   11.1300 C.3       1 NU6        -0.0530
     24 C24        28.9150   -8.5140   12.6200 C.3       1 NU6        -0.0527
     25 C25        29.1380   -7.0660   13.0050 C.3       1 NU6        -0.0477
     26 N26        33.4530   -4.4310   13.3310 N.ar      1 NU6        -0.2391
     27 C27        32.2340   -3.4750   15.7910 C.ar      1 NU6        -0.0190
     28 H1         29.4651   -3.1429   14.6920 H         1 NU6         0.1808
     29 H2         28.2546   -4.2244   15.2962 H         1 NU6         0.1808
     30 H3         30.6843   -2.3044   18.5728 H         1 NU6         0.0569
     31 H4         32.8707   -1.1771   18.8277 H         1 NU6         0.0598
     32 H5         34.6336   -1.5189   17.1368 H         1 NU6         0.0569
     33 H6         35.4241   -2.5787   15.2291 H         1 NU6         0.2150
     34 H7         36.6968   -5.2167    8.8133 H         1 NU6         0.1396
     35 H8         34.3389   -6.0724    9.4519 H         1 NU6         0.2354
     36 H9         31.6630   -5.9416   13.6591 H         1 NU6         0.0627
     37 H10        31.8371   -7.5204   12.8203 H         1 NU6         0.0627
     38 H11        29.8871   -5.2649   12.2087 H         1 NU6         0.0327
     39 H12        31.1579   -6.4191   10.2646 H         1 NU6         0.0269
     40 H13        29.3888   -6.1221   10.1700 H         1 NU6         0.0269
     41 H14        30.8307   -8.7337   10.7146 H         1 NU6         0.0265
     42 H15        29.7944   -8.2998    9.3130 H         1 NU6         0.0265
     43 H16        28.5985   -9.7535   10.9006 H         1 NU6         0.0265
     44 H17        27.8417   -8.1271   10.8058 H         1 NU6         0.0265
     45 H18        29.7862   -9.1041   12.9405 H         1 NU6         0.0265
     46 H19        28.0141   -8.8822   13.1326 H         1 NU6         0.0265
     47 H20        28.1770   -6.5376   12.9201 H         1 NU6         0.0269
     48 H21        29.4804   -7.0388   14.0500 H         1 NU6         0.0269
     49 H22        32.0504   -4.1229   14.9416 H         1 NU6         0.0584
@<TRIPOS>BOND
     1    1    2 2  
     2    2    3 am 
     3    2    4 1  
     4    4    5 ar 
     5    4   27 ar 
     6    5    6 ar 
     7    6    7 ar 
     8    7    8 ar 
     9    8    9 1  
    10    8   27 ar 
    11    9   10 1  
    12   10   11 ar 
    13   10   26 ar 
    14   11   12 ar 
    15   12   13 1  
    16   12   16 ar 
    17   13   14 2  
    18   14   15 1  
    19   15   16 1  
    20   16   17 ar 
    21   17   18 1  
    22   17   26 ar 
    23   18   19 1  
    24   19   20 1  
    25   20   21 1  
    26   20   25 1  
    27   21   22 1  
    28   22   23 1  
    29   23   24 1  
    30   24   25 1  
    31    3   28 1  
    32    3   29 1  
    33    5   30 1  
    34    6   31 1  
    35    7   32 1  
    36    9   33 1  
    37   14   34 1  
    38   15   35 1  
    39   19   36 1  
    40   19   37 1  
    41   20   38 1  
    42   21   39 1  
    43   21   40 1  
    44   22   41 1  
    45   22   42 1  
    46   23   43 1  
    47   23   44 1  
    48   24   45 1  
    49   24   46 1  
    50   25   47 1  
    51   25   48 1  
    52   27   49 1  
@<TRIPOS>SUBSTRUCTURE
     1 NU6         1

