### 
### Created by X-TOOL on Mon Sep 10 21:13:28 2018
### 

@<TRIPOS>MOLECULE
5m53_ligand
   55    58     1     0     0
SMALL
GAST_HUCK


@<TRIPOS>ATOM
      1 C4         35.2520   -3.6560   12.1180 C.ar      1 7GJ         0.0899
      2 C5         34.2710   -4.5290   11.6730 C.ar      1 7GJ         0.1541
      3 C6         33.1330   -4.7270   12.4570 C.ar      1 7GJ         0.1974
      4 C8         35.8560   -4.5130   10.1750 C.2       1 7GJ         0.1089
      5 N1         33.0280   -4.0580   13.6360 N.ar      1 7GJ        -0.2391
      6 N2         33.8950   -2.4970   15.2700 N.pl3     1 7GJ        -0.2500
      7 N3         35.0520   -3.0260   13.3250 N.ar      1 7GJ        -0.2816
      8 CAL        30.1720   -7.3500   11.2440 C.3       1 7GJ        -0.0477
      9 CAJ        29.1300   -8.5750   10.9450 C.3       1 7GJ        -0.0527
     10 CAI        27.6490   -8.1330   11.2820 C.3       1 7GJ        -0.0530
     11 CAK        27.5390   -7.7880   12.7710 C.3       1 7GJ        -0.0527
     12 CAM        28.6630   -6.7000   13.2570 C.3       1 7GJ        -0.0477
     13 CBB        30.1360   -6.9310   12.7150 C.3       1 7GJ        -0.0123
     14 CAN        30.9100   -5.6410   12.9020 C.3       1 7GJ         0.0791
     15 O6         32.1130   -5.6290   12.0030 O.3       1 7GJ        -0.2928
     16 N7         34.6790   -5.0380   10.4680 N.pl3     1 7GJ        -0.2448
     17 N9         36.2140   -3.6730   11.1500 N.2       1 7GJ        -0.2902
     18 C2         33.9790   -3.2180   14.0390 C.ar      1 7GJ         0.1766
     19 CAV        32.7730   -2.4280   16.1760 C.ar      1 7GJ         0.0687
     20 CAH        31.5780   -3.1400   15.9740 C.ar      1 7GJ        -0.0190
     21 CAE        32.9070   -1.6110   17.3060 C.ar      1 7GJ        -0.0344
     22 CAD        31.8580   -1.5060   18.2290 C.ar      1 7GJ        -0.0661
     23 CAF        30.6620   -2.2050   18.0190 C.ar      1 7GJ        -0.0538
     24 CAW        30.5190   -3.0150   16.8890 C.ar      1 7GJ         0.0403
     25 CAU        29.1910   -3.7930   16.7050 C.2       1 7GJ         0.2042
     26 OAC        28.8520   -4.5400   17.6050 O.2       1 7GJ        -0.3845
     27 NBC        28.3350   -3.6800   15.5320 N.am      1 7GJ        -0.2786
     28 CAB        27.1140   -4.4530   15.4840 C.3       1 7GJ         0.0218
     29 CAA        28.6580   -2.8070   14.4230 C.3       1 7GJ         0.0218
     30 H1         36.4402   -4.7303    9.2820 H         1 7GJ         0.1396
     31 H2         34.7331   -1.9641   15.5429 H         1 7GJ         0.2150
     32 H3         29.8979   -6.4869   10.6196 H         1 7GJ         0.0269
     33 H4         31.1910   -7.6773   10.9903 H         1 7GJ         0.0269
     34 H5         29.4003   -9.4409   11.5671 H         1 7GJ         0.0265
     35 H6         29.1925   -8.8530    9.8826 H         1 7GJ         0.0265
     36 H7         26.9589   -8.9563   11.0456 H         1 7GJ         0.0265
     37 H8         27.3854   -7.2498   10.6817 H         1 7GJ         0.0265
     38 H9         27.6677   -8.7108   13.3557 H         1 7GJ         0.0265
     39 H10        26.5398   -7.3695   12.9616 H         1 7GJ         0.0265
     40 H11        28.7014   -6.7242   14.3561 H         1 7GJ         0.0269
     41 H12        28.3341   -5.7048   12.9234 H         1 7GJ         0.0269
     42 H13        30.6082   -7.7261   13.3107 H         1 7GJ         0.0327
     43 H14        31.2370   -5.5609   13.9492 H         1 7GJ         0.0627
     44 H15        30.2615   -4.7878   12.6541 H         1 7GJ         0.0627
     45 H16        34.1583   -5.7132    9.8902 H         1 7GJ         0.2354
     46 H17        31.4732   -3.7869   15.1105 H         1 7GJ         0.0584
     47 H18        33.8254   -1.0581   17.4669 H         1 7GJ         0.0569
     48 H19        31.9721   -0.8821   19.1081 H         1 7GJ         0.0598
     49 H20        29.8495   -2.1178   18.7313 H         1 7GJ         0.0569
     50 H21        26.5901   -4.2526   14.5377 H         1 7GJ         0.0486
     51 H22        26.4676   -4.1703   16.3279 H         1 7GJ         0.0486
     52 H23        27.3553   -5.5242   15.5497 H         1 7GJ         0.0486
     53 H24        29.6130   -2.2989   14.6225 H         1 7GJ         0.0486
     54 H25        27.8621   -2.0574   14.3025 H         1 7GJ         0.0486
     55 H26        28.7444   -3.4014   13.5015 H         1 7GJ         0.0486
@<TRIPOS>BOND
     1    2    1 ar 
     2    1    7 ar 
     3    1   17 1  
     4    3    2 ar 
     5    2   16 1  
     6    3    5 ar 
     7   15    3 1  
     8   16    4 1  
     9    4   17 2  
    10    5   18 ar 
    11   18    6 1  
    12    6   19 1  
    13   18    7 ar 
    14    8    9 1  
    15   13    8 1  
    16    9   10 1  
    17   11   10 1  
    18   12   11 1  
    19   13   12 1  
    20   14   13 1  
    21   14   15 1  
    22   19   20 ar 
    23   19   21 ar 
    24   20   24 ar 
    25   21   22 ar 
    26   22   23 ar 
    27   23   24 ar 
    28   24   25 1  
    29   25   26 2  
    30   25   27 am 
    31   27   28 1  
    32   27   29 1  
    33    4   30 1  
    34    6   31 1  
    35    8   32 1  
    36    8   33 1  
    37    9   34 1  
    38    9   35 1  
    39   10   36 1  
    40   10   37 1  
    41   11   38 1  
    42   11   39 1  
    43   12   40 1  
    44   12   41 1  
    45   13   42 1  
    46   14   43 1  
    47   14   44 1  
    48   16   45 1  
    49   20   46 1  
    50   21   47 1  
    51   22   48 1  
    52   23   49 1  
    53   28   50 1  
    54   28   51 1  
    55   28   52 1  
    56   29   53 1  
    57   29   54 1  
    58   29   55 1  
@<TRIPOS>SUBSTRUCTURE
     1 7GJ         1

