### 
### Created by X-TOOL on Mon Sep 10 21:13:28 2018
### 

@<TRIPOS>MOLECULE
5m55_ligand
   43    45     1     0     0
SMALL
GAST_HUCK


@<TRIPOS>ATOM
      1 C14        27.8460   11.0320  -22.7330 C.ar      1 7GG        -0.0717
      2 C10        25.8000    7.7000  -20.3860 C.ar      1 7GG         0.1717
      3 C12        26.8650    8.8350  -22.5240 C.ar      1 7GG         0.0631
      4 C13        27.1830   10.0570  -21.9550 C.ar      1 7GG        -0.0387
      5 C01        26.8690   13.5280  -18.9610 C.3       1 7GG        -0.0432
      6 C02        26.1180   12.4030  -18.3200 C.3       1 7GG         0.0332
      7 N03        26.9750   11.6410  -17.4730 N.pl3     1 7GG        -0.2950
      8 C04        28.0320   12.3810  -16.8320 C.3       1 7GG         0.0332
      9 C05        27.7160   12.6330  -15.3580 C.3       1 7GG        -0.0432
     10 C06        26.4100   10.6300  -16.6550 C.2       1 7GG         0.0278
     11 C07        25.9100    9.3310  -16.9110 C.2       1 7GG        -0.0323
     12 C08        25.6870    8.4090  -18.1590 C.ar      1 7GG         0.0430
     13 N09        26.0920    8.6100  -19.4740 N.ar      1 7GG        -0.2834
     14 N11        26.1710    7.7780  -21.8020 N.pl3     1 7GG        -0.2512
     15 C15        28.1740   10.7730  -24.0580 C.ar      1 7GG        -0.0736
     16 C16        27.8450    9.5480  -24.6310 C.ar      1 7GG        -0.0717
     17 C17        27.1870    8.5800  -23.8540 C.ar      1 7GG        -0.0387
     18 N18        25.1190    6.5710  -20.1040 N.ar      1 7GG        -0.2824
     19 C19        24.6710    6.2940  -18.8440 C.ar      1 7GG         0.0861
     20 C20        24.9450    7.2030  -17.8420 C.ar      1 7GG         0.1138
     21 N21        24.4080    6.7080  -16.6900 N.pl3     1 7GG        -0.2468
     22 C22        23.8120    5.5260  -16.9770 C.2       1 7GG         0.1087
     23 N23        23.9690    5.2750  -18.2800 N.2       1 7GG        -0.2913
     24 H1         28.1007   11.9894  -22.2930 H         1 7GG         0.0587
     25 H2         26.9256   10.2633  -20.9224 H         1 7GG         0.0534
     26 H3         26.1889   14.1008  -19.6086 H         1 7GG         0.0251
     27 H4         27.6940   13.1214  -19.5643 H         1 7GG         0.0251
     28 H5         27.2759   14.1886  -18.1812 H         1 7GG         0.0251
     29 H6         25.7106   11.7480  -19.1042 H         1 7GG         0.0538
     30 H7         25.2925   12.8152  -17.7211 H         1 7GG         0.0538
     31 H8         28.1541   13.3475  -17.3429 H         1 7GG         0.0538
     32 H9         28.9673   11.8067  -16.9052 H         1 7GG         0.0538
     33 H10        28.5397   13.1985  -14.8979 H         1 7GG         0.0251
     34 H11        27.5971   11.6706  -14.8387 H         1 7GG         0.0251
     35 H12        26.7839   13.2113  -15.2765 H         1 7GG         0.0251
     36 H13        26.3474   10.9137  -15.6055 H         1 7GG         0.1176
     37 H14        25.5948    8.8386  -15.9922 H         1 7GG         0.0334
     38 H15        25.9003    6.9634  -22.3713 H         1 7GG         0.2148
     39 H16        28.6866   11.5257  -24.6460 H         1 7GG         0.0517
     40 H17        28.0939    9.3430  -25.6659 H         1 7GG         0.0587
     41 H18        26.9273    7.6244  -24.2949 H         1 7GG         0.0534
     42 H19        24.4486    7.1552  -15.7631 H         1 7GG         0.2365
     43 H20        23.2918    4.8871  -16.2649 H         1 7GG         0.1388
@<TRIPOS>BOND
     1    4    1 ar 
     2    1   15 ar 
     3   13    2 ar 
     4    2   14 1  
     5    2   18 ar 
     6    3    4 ar 
     7   14    3 1  
     8    3   17 ar 
     9    6    5 1  
    10    7    6 1  
    11    7    8 1  
    12   10    7 1  
    13    8    9 1  
    14   11   10 2  
    15   12   11 1  
    16   12   13 ar 
    17   12   20 ar 
    18   15   16 ar 
    19   16   17 ar 
    20   18   19 ar 
    21   19   20 ar 
    22   19   23 1  
    23   20   21 1  
    24   21   22 1  
    25   22   23 2  
    26    1   24 1  
    27    4   25 1  
    28    5   26 1  
    29    5   27 1  
    30    5   28 1  
    31    6   29 1  
    32    6   30 1  
    33    8   31 1  
    34    8   32 1  
    35    9   33 1  
    36    9   34 1  
    37    9   35 1  
    38   10   36 1  
    39   11   37 1  
    40   14   38 1  
    41   15   39 1  
    42   16   40 1  
    43   17   41 1  
    44   21   42 1  
    45   22   43 1  
@<TRIPOS>SUBSTRUCTURE
     1 7GG         1

