### 
### Created by X-TOOL on Mon Sep 10 21:13:31 2018
### 

@<TRIPOS>MOLECULE
5m56_ligand
   32    34     1     0     0
SMALL
GAST_HUCK


@<TRIPOS>ATOM
      1 C10        16.0810    3.4990   43.3380 C.ar      1 7FC        -0.0645
      2 C15        12.6100   -1.2910   47.9990 C.ar      1 7FC         0.0221
      3 C17        14.3740   -1.4570   46.3690 C.ar      1 7FC         0.0645
      4 C20        15.1180    1.8170   44.9760 C.2       1 7FC         0.1311
      5 C21        13.3260    2.1450   46.5880 C.3       1 7FC         0.1523
      6 C22        13.3930    0.7070   46.8340 C.ar      1 7FC         0.0344
      7 O01        18.8590    4.2790   40.2770 O.co2     1 7FC        -0.5640
      8 O02        12.4350    2.9390   47.2630 O.3       1 7FC        -0.3647
      9 O03        19.9890    2.4880   40.8080 O.co2     1 7FC        -0.5640
     10 O04        14.1940    4.0440   45.3670 O.3       1 7FC        -0.3228
     11 CL5        11.5640   -2.0440   49.1440 Cl        1 7FC        -0.0832
     12 CL6        15.5260   -2.3930   45.4830 Cl        1 7FC        -0.0817
     13 C07        18.0160    1.6470   42.6090 C.ar      1 7FC        -0.0599
     14 C08        17.0280    3.8260   42.3780 C.ar      1 7FC        -0.0599
     15 C09        17.0730    1.3270   43.5690 C.ar      1 7FC        -0.0645
     16 C11        13.5340   -2.0640   47.2910 C.ar      1 7FC        -0.0501
     17 C12        12.5280    0.0860   47.7830 C.ar      1 7FC        -0.0499
     18 O13        15.1140    0.5300   45.2460 O.3       1 7FC        -0.2879
     19 C14        19.0020    3.2450   40.9810 C.2       1 7FC         0.0550
     20 C16        17.9920    2.9010   42.0160 C.ar      1 7FC        -0.0020
     21 C18        16.1050    2.2480   43.9410 C.ar      1 7FC        -0.0142
     22 C19        14.2290    2.6920   45.6220 C.2       1 7FC         0.1473
     23 C23        14.2890   -0.0470   46.1490 C.ar      1 7FC         0.1245
     24 H1         15.3218    4.2205   43.6176 H         1 7FC         0.0529
     25 H2         12.5737    1.9829   45.8021 H         1 7FC         0.0941
     26 H3         12.5337    3.8391   46.9755 H         1 7FC         0.2162
     27 H4         14.3819    4.5209   46.1668 H         1 7FC         0.2547
     28 H5         18.7692    0.9223   42.3217 H         1 7FC         0.0618
     29 H6         17.0129    4.8047   41.9121 H         1 7FC         0.0618
     30 H7         17.0907    0.3482   44.0345 H         1 7FC         0.0529
     31 H8         13.5941   -3.1328   47.4615 H         1 7FC         0.0545
     32 H9         11.8093    0.6811   48.3347 H         1 7FC         0.0531
@<TRIPOS>BOND
     1   14    1 ar 
     2    1   21 ar 
     3    2   11 1  
     4   16    2 ar 
     5   17    2 ar 
     6    3   12 1  
     7    3   16 ar 
     8   23    3 ar 
     9    4   18 1  
    10   21    4 1  
    11    4   22 2  
    12    5    6 1  
    13    5    8 1  
    14   22    5 1  
    15    6   17 ar 
    16   23    6 ar 
    17   19    7 ar 
    18   19    9 ar 
    19   22   10 1  
    20   13   15 ar 
    21   20   13 ar 
    22   20   14 ar 
    23   15   21 ar 
    24   18   23 1  
    25   19   20 1  
    26    1   24 1  
    27    5   25 1  
    28    8   26 1  
    29   10   27 1  
    30   13   28 1  
    31   14   29 1  
    32   15   30 1  
    33   16   31 1  
    34   17   32 1  
@<TRIPOS>SUBSTRUCTURE
     1 7FC         1

