### 
### Created by X-TOOL on Mon Sep 10 21:13:29 2018
### 

@<TRIPOS>MOLECULE
5m57_ligand
   50    53     1     0     0
SMALL
GAST_HUCK


@<TRIPOS>ATOM
      1 C2         22.3760   77.1390   13.3040 C.ar      1 4SP         0.1766
      2 C8         20.3190   78.4910    9.4960 C.2       1 4SP         0.1089
      3 C10        25.0670   80.0370   12.1830 C.3       1 4SP         0.0791
      4 C11        26.3080   80.2340   11.3540 C.3       1 4SP        -0.0123
      5 C12        25.9440   80.1050    9.8790 C.3       1 4SP        -0.0477
      6 C13        27.1730   80.3450    8.9500 C.3       1 4SP        -0.0527
      7 C14        27.8520   81.6780    9.2710 C.3       1 4SP        -0.0530
      8 C15        28.1540   81.8820   10.7760 C.3       1 4SP        -0.0527
      9 C16        26.9210   81.6270   11.6570 C.3       1 4SP        -0.0477
     10 C19        25.0270   75.5740   17.2480 C.ar      1 4SP        -0.0451
     11 C20        26.2330   75.8590   16.5700 C.ar      1 4SP         0.0960
     12 C21        26.2250   76.2950   15.2620 C.ar      1 4SP        -0.0451
     13 C22        25.0290   76.4490   14.6330 C.ar      1 4SP        -0.0369
     14 N26        28.8970   76.6870   16.6850 N.am      1 4SP        -0.2622
     15 N1         23.3380   78.0270   12.8880 N.ar      1 4SP        -0.2391
     16 C6         23.1650   78.6880   11.7640 C.ar      1 4SP         0.1974
     17 O6         24.0880   79.5830   11.2810 O.3       1 4SP        -0.2928
     18 C5         21.9690   78.5050   10.9620 C.ar      1 4SP         0.1541
     19 N7         21.4590   79.0310    9.7280 N.pl3     1 4SP        -0.2448
     20 N9         20.0290   77.5970   10.5410 N.2       1 4SP        -0.2902
     21 C4         21.0420   77.6170   11.4270 C.ar      1 4SP         0.0900
     22 N3         21.2790   76.9490   12.6060 N.ar      1 4SP        -0.2816
     23 N2         22.5220   76.3660   14.5580 N.pl3     1 4SP        -0.2509
     24 C17        23.8180   76.1820   15.2830 C.ar      1 4SP         0.0633
     25 C18        23.8340   75.7320   16.6060 C.ar      1 4SP        -0.0369
     26 S23        27.7800   75.6540   17.3450 S.o2      1 4SP         0.0607
     27 O24        28.2100   74.3020   17.1920 O.2       1 4SP        -0.1520
     28 O25        27.6510   75.7950   18.7630 O.2       1 4SP        -0.1520
     29 H1         19.6832   78.6913    8.6349 H         1 4SP         0.1396
     30 H2         24.7562   80.9864   12.6436 H         1 4SP         0.0627
     31 H3         25.2434   79.2884   12.9694 H         1 4SP         0.0627
     32 H4         27.0439   79.4578   11.6108 H         1 4SP         0.0327
     33 H5         25.1675   80.8462    9.6389 H         1 4SP         0.0269
     34 H6         25.5537   79.0928    9.6969 H         1 4SP         0.0269
     35 H7         26.8356   80.3563    7.9031 H         1 4SP         0.0265
     36 H8         27.8968   79.5292    9.0932 H         1 4SP         0.0265
     37 H9         27.1921   82.4922    8.9368 H         1 4SP         0.0265
     38 H10        28.8016   81.7251    8.7178 H         1 4SP         0.0265
     39 H11        28.4925   82.9169   10.9320 H         1 4SP         0.0265
     40 H12        28.9521   81.1863   11.0743 H         1 4SP         0.0265
     41 H13        27.2188   81.6679   12.7151 H         1 4SP         0.0269
     42 H14        26.1681   82.4038   11.4576 H         1 4SP         0.0269
     43 H15        25.0496   75.2306   18.2759 H         1 4SP         0.0606
     44 H16        27.1532   76.5107   14.7454 H         1 4SP         0.0606
     45 H17        25.0130   76.7868   13.6031 H         1 4SP         0.0534
     46 H18        29.8375   76.6897   17.0247 H         1 4SP         0.1633
     47 H19        28.6300   77.3072   15.9474 H         1 4SP         0.1633
     48 H20        21.9292   79.7251    9.1296 H         1 4SP         0.2354
     49 H21        21.6793   75.9276   14.9562 H         1 4SP         0.2150
     50 H22        22.9048   75.5101   17.1183 H         1 4SP         0.0534
@<TRIPOS>BOND
     1    1   15 ar 
     2    1   22 ar 
     3   23    1 1  
     4    2   19 1  
     5   20    2 2  
     6    3    4 1  
     7   17    3 1  
     8    4    5 1  
     9    4    9 1  
    10    5    6 1  
    11    6    7 1  
    12    8    7 1  
    13    9    8 1  
    14   11   10 ar 
    15   10   25 ar 
    16   12   11 ar 
    17   11   26 1  
    18   13   12 ar 
    19   24   13 ar 
    20   26   14 am 
    21   15   16 ar 
    22   16   17 1  
    23   16   18 ar 
    24   18   19 1  
    25   21   18 ar 
    26   21   20 1  
    27   22   21 ar 
    28   23   24 1  
    29   24   25 ar 
    30   26   27 2  
    31   26   28 2  
    32    2   29 1  
    33    3   30 1  
    34    3   31 1  
    35    4   32 1  
    36    5   33 1  
    37    5   34 1  
    38    6   35 1  
    39    6   36 1  
    40    7   37 1  
    41    7   38 1  
    42    8   39 1  
    43    8   40 1  
    44    9   41 1  
    45    9   42 1  
    46   10   43 1  
    47   12   44 1  
    48   13   45 1  
    49   14   46 1  
    50   14   47 1  
    51   19   48 1  
    52   23   49 1  
    53   25   50 1  
@<TRIPOS>SUBSTRUCTURE
     1 4SP         1

