### 
### Created by X-TOOL on Mon Sep 10 21:13:30 2018
### 

@<TRIPOS>MOLECULE
5m5d_ligand
   41    42     1     0     0
SMALL
GAST_HUCK


@<TRIPOS>ATOM
      1 C1          3.3270   21.7180    6.5900 C.3       1 MAN         0.1898
      2 C2          2.3720   21.5470    7.7680 C.3       1 MAN         0.1343
      3 C3          2.8650   22.3290    8.9850 C.3       1 MAN         0.1141
      4 C4          4.3110   21.9640    9.3230 C.3       1 MAN         0.1119
      5 C5          5.1620   22.1780    8.0670 C.3       1 MAN         0.1130
      6 C6          6.5820   21.7230    8.3060 C.3       1 MAN         0.0730
      7 O2          2.2950   20.1580    8.0920 O.3       1 MAN        -0.3841
      8 O3          2.0010   22.0660   10.0930 O.3       1 MAN        -0.3864
      9 O4          4.7790   22.7980   10.3840 O.3       1 MAN        -0.3865
     10 O5          4.6540   21.4120    6.9640 O.3       1 MAN        -0.3404
     11 O6          7.4920   22.1610    7.3080 O.3       1 MAN        -0.3924
     12 C1          5.5290   24.2130    3.6700 C.2       1 DGO         0.0379
     13 C2          3.3380   24.7100    2.7560 C.3       1 DGO         0.1299
     14 C3          2.7810   24.3990    4.1260 C.3       1 DGO         0.1179
     15 C5          2.7110   25.8940    2.0310 C.3       1 DGO         0.0772
     16 C4          3.5150   23.2000    4.7050 C.3       1 DGO         0.1032
     17 O3          2.9020   27.0960    2.7880 O.3       1 DGO        -0.3920
     18 O           4.7400   25.0450    2.8610 O.3       1 DGO        -0.3293
     19 O2          1.3950   24.0490    4.0080 O.3       1 DGO        -0.3847
     20 O1          3.1670   23.0460    6.1060 O.3       1 DGO        -0.3362
     21 C           5.0010   23.3600    4.5290 C.2       1 DGO        -0.0483
     22 H1          3.0359   21.0199    5.7913 H         1 MAN         0.0939
     23 H2          1.3749   21.9145    7.4839 H         1 MAN         0.0671
     24 H3          2.8244   23.4035    8.7533 H         1 MAN         0.0648
     25 H4          4.3672   20.9104    9.6341 H         1 MAN         0.0647
     26 H5          5.1537   23.2472    7.8085 H         1 MAN         0.0647
     27 H6          6.5958   20.6234    8.3314 H         1 MAN         0.0584
     28 H7          6.9150   22.1165    9.2777 H         1 MAN         0.0584
     29 H8          3.1559   19.8442    8.3426 H         1 MAN         0.2101
     30 H9          2.0405   21.1424   10.3117 H         1 MAN         0.2100
     31 H10         5.6831   22.5820   10.5798 H         1 MAN         0.2100
     32 H11         7.4975   23.1106    7.2809 H         1 MAN         0.2095
     33 H12         6.6132   24.2727    3.5867 H         1 MAN         0.0851
     34 H13         3.2134   23.8114    2.1339 H         1 MAN         0.0699
     35 H14         2.8979   25.2717    4.7853 H         1 MAN         0.0667
     36 H15         1.6336   25.7126    1.9031 H         1 MAN         0.0588
     37 H16         3.1834   26.0073    1.0441 H         1 MAN         0.0588
     38 H17         3.1967   22.2966    4.1640 H         1 MAN         0.0716
     39 H18         3.8321   27.2553    2.8980 H         1 MAN         0.2095
     40 H19         0.9135   24.7842    3.6473 H         1 MAN         0.2102
     41 H20         5.6678   22.7478    5.1343 H         1 MAN         0.0360
@<TRIPOS>BOND
     1    1    2 1  
     2    1   10 1  
     3   20    1 1  
     4    2    3 1  
     5    2    7 1  
     6    3    4 1  
     7    3    8 1  
     8    5    4 1  
     9    4    9 1  
    10    5    6 1  
    11   10    5 1  
    12    6   11 1  
    13   18   12 1  
    14   12   21 2  
    15   14   13 1  
    16   13   15 1  
    17   13   18 1  
    18   16   14 1  
    19   14   19 1  
    20   15   17 1  
    21   16   20 1  
    22   16   21 1  
    23    1   22 1  
    24    2   23 1  
    25    3   24 1  
    26    4   25 1  
    27    5   26 1  
    28    6   27 1  
    29    6   28 1  
    30    7   29 1  
    31    8   30 1  
    32    9   31 1  
    33   11   32 1  
    34   12   33 1  
    35   13   34 1  
    36   14   35 1  
    37   15   36 1  
    38   15   37 1  
    39   16   38 1  
    40   17   39 1  
    41   19   40 1  
    42   21   41 1  
@<TRIPOS>SUBSTRUCTURE
     1 MAN         1

