### 
### Created by X-TOOL on Mon Sep 10 21:13:33 2018
### 

@<TRIPOS>MOLECULE
5m5q_ligand
   72    78     1     0     0
SMALL
GAST_HUCK


@<TRIPOS>ATOM
      1 C1         29.7580  -29.4840   16.2300 C.2       1 7K1        -0.0229
      2 C2         28.6870  -28.5180   19.8260 C.ar      1 7K1        -0.0509
      3 C3         27.6780  -27.6290   19.3790 C.ar      1 7K1        -0.0062
      4 C11        29.0340  -28.8660   15.2690 C.2       1 7K1         0.0650
      5 C12        31.4160  -33.0030   16.5190 C.2       1 7K1         0.1829
      6 C14        29.2250  -29.0050   13.7810 C.ar      1 7K1         0.0002
      7 C15        29.0230  -30.2210   13.0610 C.ar      1 7K1        -0.0179
      8 C16        29.2530  -30.2170   11.6770 C.ar      1 7K1        -0.0546
      9 C17        29.6460  -29.0430   11.0080 C.ar      1 7K1        -0.0471
     10 C18        29.7960  -27.8500   11.7300 C.ar      1 7K1        -0.0616
     11 C19        29.6170  -27.8350   13.1140 C.ar      1 7K1        -0.0606
     12 C20        28.5340  -31.4850   13.7030 C.ar      1 7K1        -0.0208
     13 C21        27.4280  -31.4530   14.5900 C.ar      1 7K1        -0.0549
     14 C22        26.9720  -32.6250   15.2110 C.ar      1 7K1        -0.0617
     15 C23        27.5790  -33.8600   14.9220 C.ar      1 7K1        -0.0622
     16 C24        28.6540  -33.9070   14.0200 C.ar      1 7K1        -0.0617
     17 C25        29.1280  -32.7330   13.3980 C.ar      1 7K1        -0.0549
     18 C26        29.8530  -29.0530    9.4820 C.3       1 7K1        -0.0318
     19 C28        29.8540  -34.5630   17.6550 C.3       1 7K1         0.0608
     20 C29        30.1420  -35.5640   18.8020 C.3       1 7K1         0.0686
     21 C30        32.1120  -36.4260   17.7110 C.3       1 7K1         0.0889
     22 N4         27.4480  -27.4350   18.0380 N.ar      1 7K1        -0.2867
     23 C5         29.1890  -29.0030   17.5370 C.ar      1 7K1         0.0107
     24 C6         28.1960  -28.1090   17.1350 C.ar      1 7K1         0.1326
     25 N7         28.1920  -28.0330   15.7910 N.pl3     1 7K1        -0.2682
     26 C8         30.8590  -30.5040   16.0540 C.3       1 7K1        -0.0140
     27 C9         30.5190  -31.8080   16.8330 C.3       1 7K1         0.0433
     28 C10        29.4930  -29.2080   18.8960 C.ar      1 7K1        -0.0541
     29 O13        32.4390  -32.7550   15.8750 O.2       1 7K1        -0.3965
     30 N27        31.1160  -34.2780   16.9390 N.am      1 7K1        -0.2457
     31 C31        32.0150  -35.3900   16.5560 C.3       1 7K1         0.1495
     32 O32        30.8230  -36.7280   18.2870 O.3       1 7K1        -0.3725
     33 C33        31.6450  -36.0460   15.2460 C.2       1 7K1         0.1492
     34 C34        30.5720  -37.1790   13.7850 C.ar      1 7K1         0.0208
     35 C35        31.5910  -36.4630   13.1540 C.ar      1 7K1         0.0783
     36 C36        31.8090  -36.5630   11.7700 C.ar      1 7K1        -0.0422
     37 C37        30.9450  -37.4160   11.0490 C.ar      1 7K1        -0.0766
     38 C38        29.9100  -38.1330   11.6940 C.ar      1 7K1        -0.0786
     39 C39        29.7000  -38.0290   13.0880 C.ar      1 7K1        -0.0656
     40 N40        30.6700  -36.8470   15.0830 N.2       1 7K1        -0.3161
     41 N41        32.2290  -35.7450   14.1110 N.pl3     1 7K1        -0.2445
     42 H1         28.8404  -28.6687   20.8884 H         1 7K1         0.0594
     43 H2         27.0782  -27.0936   20.1061 H         1 7K1         0.0749
     44 H3         29.1258  -31.1341   11.1133 H         1 7K1         0.0556
     45 H4         30.0525  -26.9341   11.2100 H         1 7K1         0.0557
     46 H5         29.7807  -26.9206   13.6727 H         1 7K1         0.0587
     47 H6         26.9292  -30.5117   14.7904 H         1 7K1         0.0619
     48 H7         26.1495  -32.5786   15.9156 H         1 7K1         0.0616
     49 H8         27.2199  -34.7685   15.3918 H         1 7K1         0.0613
     50 H9         29.1257  -34.8576   13.7988 H         1 7K1         0.0616
     51 H10        29.9454  -32.7865   12.6880 H         1 7K1         0.0619
     52 H11        29.6933  -30.0710    9.0970 H         1 7K1         0.0389
     53 H12        30.8782  -28.7295    9.2489 H         1 7K1         0.0389
     54 H13        29.1353  -28.3658    9.0101 H         1 7K1         0.0389
     55 H14        29.4478  -33.6300   18.0726 H         1 7K1         0.0548
     56 H15        29.1247  -35.0007   16.9575 H         1 7K1         0.0548
     57 H16        29.1918  -35.8727   19.2623 H         1 7K1         0.0580
     58 H17        30.7751  -35.0776   19.5587 H         1 7K1         0.0580
     59 H18        32.7640  -36.0185   18.4976 H         1 7K1         0.0616
     60 H19        32.5495  -37.3551   17.3168 H         1 7K1         0.0616
     61 H20        27.5950  -27.3935   15.2473 H         1 7K1         0.2223
     62 H21        31.8028  -30.0886   16.4369 H         1 7K1         0.0395
     63 H22        30.9686  -30.7385   14.9849 H         1 7K1         0.0395
     64 H23        30.6014  -31.5935   17.9087 H         1 7K1         0.0519
     65 H24        29.4825  -32.0876   16.5932 H         1 7K1         0.0519
     66 H25        30.3007  -29.8591   19.2103 H         1 7K1         0.0674
     67 H26        33.0174  -34.9581   16.4193 H         1 7K1         0.0855
     68 H27        32.6026  -36.0117   11.2788 H         1 7K1         0.0541
     69 H28        31.0776  -37.5237    9.9785 H         1 7K1         0.0528
     70 H29        29.2643  -38.7758   11.1067 H         1 7K1         0.0516
     71 H30        28.9098  -38.5752   13.5902 H         1 7K1         0.0535
     72 H31        33.0150  -35.0936   13.9740 H         1 7K1         0.2323
@<TRIPOS>BOND
     1    1    4 2  
     2    1   23 1  
     3   26    1 1  
     4    2    3 ar 
     5   28    2 ar 
     6   22    3 ar 
     7    4    6 1  
     8    4   25 1  
     9    5   27 1  
    10    5   29 2  
    11   30    5 am 
    12    6    7 ar 
    13    6   11 ar 
    14    7    8 ar 
    15    7   12 1  
    16    8    9 ar 
    17   10    9 ar 
    18    9   18 1  
    19   11   10 ar 
    20   12   13 ar 
    21   12   17 ar 
    22   13   14 ar 
    23   14   15 ar 
    24   16   15 ar 
    25   17   16 ar 
    26   19   20 1  
    27   30   19 1  
    28   32   20 1  
    29   31   21 1  
    30   21   32 1  
    31   24   22 ar 
    32   23   24 ar 
    33   23   28 ar 
    34   24   25 1  
    35   27   26 1  
    36   31   30 1  
    37   33   31 1  
    38   40   33 2  
    39   33   41 1  
    40   34   35 ar 
    41   34   39 ar 
    42   34   40 1  
    43   35   36 ar 
    44   35   41 1  
    45   36   37 ar 
    46   37   38 ar 
    47   38   39 ar 
    48    2   42 1  
    49    3   43 1  
    50    8   44 1  
    51   10   45 1  
    52   11   46 1  
    53   13   47 1  
    54   14   48 1  
    55   15   49 1  
    56   16   50 1  
    57   17   51 1  
    58   18   52 1  
    59   18   53 1  
    60   18   54 1  
    61   19   55 1  
    62   19   56 1  
    63   20   57 1  
    64   20   58 1  
    65   21   59 1  
    66   21   60 1  
    67   25   61 1  
    68   26   62 1  
    69   26   63 1  
    70   27   64 1  
    71   27   65 1  
    72   28   66 1  
    73   31   67 1  
    74   36   68 1  
    75   37   69 1  
    76   38   70 1  
    77   39   71 1  
    78   41   72 1  
@<TRIPOS>SUBSTRUCTURE
     1 7K1         1

