### 
### Created by X-TOOL on Mon Sep 10 21:13:33 2018
### 

@<TRIPOS>MOLECULE
5m6f_ligand
   67    70     1     0     0
SMALL
GAST_HUCK


@<TRIPOS>ATOM
      1 C1        -16.4230  -15.1370   -4.2970 C.3       1 7HU         0.0367
      2 C3        -16.2270  -16.6400   -2.4570 C.3       1 7HU         0.0950
      3 C5        -15.6590  -18.1340   -0.6580 C.3       1 7HU         0.0131
      4 C7        -16.0770  -20.5680   -0.7930 C.3       1 7HU         0.0157
      5 C8        -15.5450  -21.9070   -0.3580 C.3       1 7HU        -0.0167
      6 C11       -16.6250  -19.0660   -4.2270 C.3       1 7HU         0.0693
      7 C12       -15.3310  -19.2100   -5.0310 C.2       1 7HU         0.2702
      8 C15       -16.6380  -18.4320   -6.9780 C.3       1 7HU         0.0412
      9 C16       -16.3040  -18.3110   -8.4880 C.3       1 7HU        -0.0213
     10 C19       -14.8290  -18.4570   -8.5350 C.ar      1 7HU         0.0335
     11 C21       -12.7010  -18.4770   -9.3950 C.ar      1 7HU         0.0342
     12 C22       -12.1180  -18.8180   -8.1890 C.ar      1 7HU         0.0147
     13 C23       -10.6210  -19.0190   -8.0510 C.3       1 7HU         0.0297
     14 C24       -10.2080  -20.4140   -8.4390 C.ar      1 7HU        -0.0262
     15 C25       -10.3770  -21.4680   -7.5630 C.ar      1 7HU        -0.0571
     16 C26       -10.0100  -22.7520   -7.9200 C.ar      1 7HU        -0.0676
     17 C27        -9.4730  -22.9970   -9.1570 C.ar      1 7HU        -0.0680
     18 C28        -9.2920  -21.9560  -10.0410 C.ar      1 7HU        -0.0676
     19 C31       -14.3400  -18.8010   -7.2620 C.ar      1 7HU         0.1219
     20 O2        -15.6280  -16.1340   -3.6370 O.3       1 7HU        -0.3772
     21 C4        -15.6390  -18.0150   -2.1660 C.3       1 7HU         0.0458
     22 C9        -16.1070  -20.4360   -2.3020 C.3       1 7HU         0.0142
     23 N10       -16.4630  -19.0870   -2.7710 N.4       1 7HU         0.2641
     24 O13       -14.3060  -19.6070   -4.5120 O.2       1 7HU        -0.3677
     25 N14       -15.3870  -18.8830   -6.3440 N.am      1 7HU        -0.1958
     26 C17       -17.0110  -19.4170   -9.2790 C.3       1 7HU        -0.0928
     27 C18       -16.7650  -16.9560   -9.0110 C.3       1 7HU        -0.0928
     28 N20       -14.0130  -18.2960   -9.5770 N.ar      1 7HU        -0.2919
     29 C29        -9.6590  -20.6720   -9.6850 C.ar      1 7HU        -0.0571
     30 C30       -12.9710  -18.9880   -7.1050 C.ar      1 7HU         0.0143
     31 N6        -15.2120  -19.4870   -0.2250 N.4       1 7HU         0.2367
     32 H1        -15.9001  -14.7902   -5.2005 H         1 7HU         0.0524
     33 H2        -16.5837  -14.2871   -3.6174 H         1 7HU         0.0524
     34 H3        -17.3942  -15.5699   -4.5788 H         1 7HU         0.0524
     35 H4        -17.3144  -16.7245   -2.6000 H         1 7HU         0.0618
     36 H5        -16.0193  -15.9624   -1.6158 H         1 7HU         0.0618
     37 H6        -16.6834  -17.9606   -0.2967 H         1 7HU         0.0871
     38 H7        -14.9857  -17.3778   -0.2282 H         1 7HU         0.0871
     39 H8        -17.1010  -20.4533   -0.4080 H         1 7HU         0.0901
     40 H9        -16.1777  -22.7053   -0.7731 H         1 7HU         0.0286
     41 H10       -15.5540  -21.9659    0.7404 H         1 7HU         0.0286
     42 H11       -14.5146  -22.0285   -0.7234 H         1 7HU         0.0286
     43 H12       -17.2928  -19.8942   -4.5066 H         1 7HU         0.1073
     44 H13       -17.0920  -18.1091   -4.5032 H         1 7HU         0.1073
     45 H14       -17.4396  -19.1680   -6.8174 H         1 7HU         0.0492
     46 H15       -16.9477  -17.4579   -6.5716 H         1 7HU         0.0492
     47 H16       -12.0498  -18.3475  -10.2519 H         1 7HU         0.0837
     48 H17       -10.3322  -18.8398   -7.0048 H         1 7HU         0.0653
     49 H18       -10.1032  -18.2998   -8.7026 H         1 7HU         0.0653
     50 H19       -10.8029  -21.2862   -6.5829 H         1 7HU         0.0565
     51 H20       -10.1473  -23.5677   -7.2194 H         1 7HU         0.0601
     52 H21        -9.1920  -24.0054   -9.4385 H         1 7HU         0.0565
     53 H22        -8.8609  -22.1443  -11.0176 H         1 7HU         0.0601
     54 H23       -14.6099  -18.0831   -2.5485 H         1 7HU         0.0928
     55 H24       -16.8462  -21.1477   -2.6982 H         1 7HU         0.0871
     56 H25       -15.1099  -20.6875   -2.6925 H         1 7HU         0.0871
     57 H26       -17.3889  -18.9165   -2.4109 H         1 7HU         0.2061
     58 H27       -16.7652  -19.3186  -10.3467 H         1 7HU         0.0099
     59 H28       -18.0989  -19.3267   -9.1434 H         1 7HU         0.0099
     60 H29       -16.6764  -20.3995   -8.9148 H         1 7HU         0.0099
     61 H30       -16.2622  -16.1555   -8.4485 H         1 7HU         0.0099
     62 H31       -17.8538  -16.8651   -8.8841 H         1 7HU         0.0099
     63 H32       -16.5117  -16.8692  -10.0779 H         1 7HU         0.0099
     64 H33        -9.5160  -19.8587  -10.3873 H         1 7HU         0.0565
     65 H34       -12.5693  -19.2663   -6.1374 H         1 7HU         0.0649
     66 H35       -15.2479  -19.5357    0.7812 H         1 7HU         0.2020
     67 H36       -14.2638  -19.6317   -0.5348 H         1 7HU         0.2020
@<TRIPOS>BOND
     1   20    1 1  
     2    2   20 1  
     3   21    2 1  
     4   21    3 1  
     5    3   31 1  
     6    4    5 1  
     7    4   22 1  
     8   31    4 1  
     9    6    7 1  
    10   23    6 1  
    11    7   24 2  
    12    7   25 am 
    13    8    9 1  
    14   25    8 1  
    15   10    9 1  
    16    9   26 1  
    17    9   27 1  
    18   19   10 ar 
    19   10   28 ar 
    20   12   11 ar 
    21   28   11 ar 
    22   12   13 1  
    23   30   12 ar 
    24   13   14 1  
    25   14   15 ar 
    26   14   29 ar 
    27   15   16 ar 
    28   16   17 ar 
    29   18   17 ar 
    30   29   18 ar 
    31   25   19 1  
    32   19   30 ar 
    33   21   23 1  
    34   22   23 1  
    35    1   32 1  
    36    1   33 1  
    37    1   34 1  
    38    2   35 1  
    39    2   36 1  
    40    3   37 1  
    41    3   38 1  
    42    4   39 1  
    43    5   40 1  
    44    5   41 1  
    45    5   42 1  
    46    6   43 1  
    47    6   44 1  
    48    8   45 1  
    49    8   46 1  
    50   11   47 1  
    51   13   48 1  
    52   13   49 1  
    53   15   50 1  
    54   16   51 1  
    55   17   52 1  
    56   18   53 1  
    57   21   54 1  
    58   22   55 1  
    59   22   56 1  
    60   23   57 1  
    61   26   58 1  
    62   26   59 1  
    63   26   60 1  
    64   27   61 1  
    65   27   62 1  
    66   27   63 1  
    67   29   64 1  
    68   30   65 1  
    69   31   66 1  
    70   31   67 1  
@<TRIPOS>SUBSTRUCTURE
     1 7HU         1

