### 
### Created by X-TOOL on Mon Sep 10 21:13:32 2018
### 

@<TRIPOS>MOLECULE
5m6h_ligand
   75    79     1     0     0
SMALL
GAST_HUCK


@<TRIPOS>ATOM
      1 C1        -15.4280  -21.7040   -0.3500 C.3       1 7J6        -0.0167
      2 C2        -15.9320  -20.3700   -0.8280 C.3       1 7J6         0.0158
      3 C3        -15.8310  -20.2340   -2.3330 C.3       1 7J6         0.0161
      4 N4        -16.1590  -18.8730   -2.7890 N.4       1 7J6         0.2790
      5 C5        -16.3340  -18.8470   -4.2390 C.3       1 7J6         0.0711
      6 C6        -15.0590  -19.0130   -5.0590 C.2       1 7J6         0.2702
      7 C10       -16.1180  -18.3050   -8.5160 C.3       1 7J6        -0.0213
      8 C11       -16.7950  -19.5690   -9.0630 C.3       1 7J6        -0.0928
      9 C12       -16.6640  -17.0930   -9.2540 C.3       1 7J6        -0.0928
     10 C13       -14.6220  -18.4090   -8.5840 C.ar      1 7J6         0.0335
     11 C15       -12.5110  -18.4390   -9.4800 C.ar      1 7J6         0.0342
     12 C16       -11.9000  -18.6930   -8.2680 C.ar      1 7J6         0.0147
     13 C19        -9.5900  -20.6980   -9.6660 C.ar      1 7J6        -0.0571
     14 C21        -9.4140  -22.9700   -8.9280 C.ar      1 7J6        -0.0680
     15 C22        -9.8760  -22.5960   -7.6900 C.ar      1 7J6        -0.0676
     16 C23       -10.1890  -21.2710   -7.4340 C.ar      1 7J6        -0.0571
     17 C24       -12.7360  -18.8320   -7.1700 C.ar      1 7J6         0.0143
     18 C25       -14.1120  -18.6810   -7.3030 C.ar      1 7J6         0.1219
     19 C26       -15.3090  -17.8650   -2.1250 C.3       1 7J6         0.1112
     20 C27       -15.5530  -17.9060   -0.6230 C.3       1 7J6         0.0285
     21 O30       -16.8320  -16.0620   -2.4070 O.2       1 7J6        -0.3905
     22 C35       -12.8020  -15.7270   -4.6700 C.3       1 7J6         0.0681
     23 C36       -13.3180  -15.8720   -3.2650 C.3       1 7J6         0.0575
     24 O7        -14.0110  -19.3800   -4.5520 O.2       1 7J6        -0.3677
     25 N8        -15.1610  -18.7340   -6.3830 N.am      1 7J6        -0.1958
     26 C9        -16.3820  -18.1840   -6.9930 C.3       1 7J6         0.0412
     27 N14       -13.8300  -18.2910   -9.6490 N.ar      1 7J6        -0.2919
     28 C17       -10.4040  -18.8690   -8.1390 C.3       1 7J6         0.0297
     29 C18       -10.0420  -20.3060   -8.4160 C.ar      1 7J6        -0.0262
     30 C20        -9.2700  -22.0200   -9.9180 C.ar      1 7J6        -0.0676
     31 N28       -15.1460  -19.2720   -0.1750 N.4       1 7J6         0.2384
     32 C29       -15.7030  -16.4640   -2.6120 C.2       1 7J6         0.2326
     33 N31       -14.7800  -15.7110   -3.2650 N.am      1 7J6        -0.2640
     34 C32       -15.1390  -14.4090   -3.8430 C.3       1 7J6         0.0575
     35 C33       -14.5510  -14.2830   -5.2320 C.3       1 7J6         0.0681
     36 O34       -13.1380  -14.4550   -5.2240 O.3       1 7J6        -0.3758
     37 H1        -16.0057  -22.5076   -0.8300 H         1 7J6         0.0286
     38 H2        -15.5448  -21.7704    0.7418 H         1 7J6         0.0286
     39 H3        -14.3650  -21.8097   -0.6122 H         1 7J6         0.0286
     40 H4        -16.9889  -20.2732   -0.5391 H         1 7J6         0.0901
     41 H5        -16.5298  -20.9429   -2.8010 H         1 7J6         0.0871
     42 H6        -14.8031  -20.4738   -2.6427 H         1 7J6         0.0871
     43 H7        -17.0815  -18.6813   -2.4307 H         1 7J6         0.2081
     44 H8        -16.7862  -17.8811   -4.5082 H         1 7J6         0.1073
     45 H9        -17.0205  -19.6620   -4.5119 H         1 7J6         0.1073
     46 H10       -17.8874  -19.4574   -8.9976 H         1 7J6         0.0099
     47 H11       -16.4793  -20.4400   -8.4699 H         1 7J6         0.0099
     48 H12       -16.5037  -19.7156  -10.1135 H         1 7J6         0.0099
     49 H13       -16.1838  -16.1817   -8.8680 H         1 7J6         0.0099
     50 H14       -17.7511  -17.0284   -9.0991 H         1 7J6         0.0099
     51 H15       -16.4520  -17.1920  -10.3288 H         1 7J6         0.0099
     52 H16       -11.8778  -18.3535  -10.3557 H         1 7J6         0.0837
     53 H17        -9.4861  -19.9612  -10.4543 H         1 7J6         0.0565
     54 H18        -9.1638  -24.0059   -9.1262 H         1 7J6         0.0565
     55 H19        -9.9961  -23.3399   -6.9107 H         1 7J6         0.0601
     56 H20       -10.5532  -20.9864   -6.4535 H         1 7J6         0.0565
     57 H21       -12.3126  -19.0606   -6.1986 H         1 7J6         0.0649
     58 H22       -14.2499  -18.0633   -2.3463 H         1 7J6         0.1155
     59 H23       -16.6171  -17.7336   -0.4041 H         1 7J6         0.0898
     60 H24       -14.9459  -17.1413   -0.1164 H         1 7J6         0.0898
     61 H25       -13.2432  -16.5168   -5.2958 H         1 7J6         0.0580
     62 H26       -11.7073  -15.8347   -4.6613 H         1 7J6         0.0580
     63 H27       -12.8635  -15.1012   -2.6252 H         1 7J6         0.0545
     64 H28       -13.0582  -16.8688   -2.8792 H         1 7J6         0.0545
     65 H29       -17.2653  -18.7705   -6.7001 H         1 7J6         0.0492
     66 H30       -16.5267  -17.1331   -6.7022 H         1 7J6         0.0492
     67 H31       -10.0898  -18.6017   -7.1193 H         1 7J6         0.0653
     68 H32        -9.8941  -18.2163   -8.8628 H         1 7J6         0.0653
     69 H33        -8.9049  -22.3104  -10.8965 H         1 7J6         0.0601
     70 H34       -14.1708  -19.4030   -0.3939 H         1 7J6         0.2022
     71 H35       -15.2778  -19.3339    0.8224 H         1 7J6         0.2022
     72 H36       -14.7433  -13.6050   -3.2050 H         1 7J6         0.0545
     73 H37       -16.2342  -14.3253   -3.9015 H         1 7J6         0.0545
     74 H38       -14.7861  -13.2846   -5.6293 H         1 7J6         0.0580
     75 H39       -14.9997  -15.0504   -5.8799 H         1 7J6         0.0580
@<TRIPOS>BOND
     1    2    1 1  
     2    3    2 1  
     3   31    2 1  
     4    4    3 1  
     5    4    5 1  
     6   19    4 1  
     7    5    6 1  
     8    6   24 2  
     9    6   25 am 
    10    7    8 1  
    11    7    9 1  
    12    7   10 1  
    13   26    7 1  
    14   18   10 ar 
    15   10   27 ar 
    16   12   11 ar 
    17   27   11 ar 
    18   17   12 ar 
    19   12   28 1  
    20   29   13 ar 
    21   13   30 ar 
    22   15   14 ar 
    23   30   14 ar 
    24   16   15 ar 
    25   29   16 ar 
    26   18   17 ar 
    27   25   18 1  
    28   19   20 1  
    29   32   19 1  
    30   20   31 1  
    31   32   21 2  
    32   23   22 1  
    33   22   36 1  
    34   33   23 1  
    35   25   26 1  
    36   28   29 1  
    37   32   33 am 
    38   33   34 1  
    39   34   35 1  
    40   35   36 1  
    41    1   37 1  
    42    1   38 1  
    43    1   39 1  
    44    2   40 1  
    45    3   41 1  
    46    3   42 1  
    47    4   43 1  
    48    5   44 1  
    49    5   45 1  
    50    8   46 1  
    51    8   47 1  
    52    8   48 1  
    53    9   49 1  
    54    9   50 1  
    55    9   51 1  
    56   11   52 1  
    57   13   53 1  
    58   14   54 1  
    59   15   55 1  
    60   16   56 1  
    61   17   57 1  
    62   19   58 1  
    63   20   59 1  
    64   20   60 1  
    65   22   61 1  
    66   22   62 1  
    67   23   63 1  
    68   23   64 1  
    69   26   65 1  
    70   26   66 1  
    71   28   67 1  
    72   28   68 1  
    73   30   69 1  
    74   31   70 1  
    75   31   71 1  
    76   34   72 1  
    77   34   73 1  
    78   35   74 1  
    79   35   75 1  
@<TRIPOS>SUBSTRUCTURE
     1 7J6         1

