### 
### Created by X-TOOL on Mon Sep 10 21:13:32 2018
### 

@<TRIPOS>MOLECULE
5m6m_ligand
   74    78     1     0     0
SMALL
GAST_HUCK


@<TRIPOS>ATOM
      1 C1        -15.4440  -21.8480   -0.3530 C.3       1 7H8        -0.0167
      2 C2        -15.9550  -20.4860   -0.7400 C.3       1 7H8         0.0157
      3 C3        -15.9000  -20.2730   -2.2360 C.3       1 7H8         0.0142
      4 N4        -16.1850  -18.8940   -2.6530 N.4       1 7H8         0.2639
      5 C5        -16.4260  -18.8400   -4.0940 C.3       1 7H8         0.0693
      6 C6        -15.1700  -19.0300   -4.9340 C.2       1 7H8         0.2702
      7 C10       -16.2670  -18.3770   -8.4160 C.3       1 7H8        -0.0213
      8 C11       -17.0090  -19.5130   -9.1290 C.3       1 7H8        -0.0928
      9 C12       -16.7130  -17.0440   -9.0070 C.3       1 7H8        -0.0928
     10 C13       -14.7720  -18.4870   -8.4730 C.ar      1 7H8         0.0335
     11 C15       -12.6490  -18.4570   -9.3480 C.ar      1 7H8         0.0342
     12 C16       -12.0420  -18.7160   -8.1340 C.ar      1 7H8         0.0147
     13 C19       -10.2220  -21.3140   -7.5120 C.ar      1 7H8        -0.0571
     14 C21        -9.2950  -22.8160   -9.1300 C.ar      1 7H8        -0.0680
     15 C22        -9.1550  -21.7660  -10.0100 C.ar      1 7H8        -0.0676
     16 C23        -9.5580  -20.4920   -9.6460 C.ar      1 7H8        -0.0571
     17 C24       -12.8860  -18.8730   -7.0410 C.ar      1 7H8         0.0143
     18 C25       -14.2620  -18.7400   -7.1880 C.ar      1 7H8         0.1219
     19 C26       -15.2950  -17.9120   -2.0050 C.3       1 7H8         0.0427
     20 C27       -15.6050  -16.4620   -2.4080 C.3       1 7H8         0.0816
     21 C31       -14.4260  -15.0950   -5.6960 C.3       1 7H8         0.0392
     22 O7        -14.1170  -19.3600   -4.4360 O.2       1 7H8        -0.3677
     23 N8        -15.2990  -18.8160   -6.2660 N.am      1 7H8        -0.1958
     24 C9        -16.5690  -18.4240   -6.8970 C.3       1 7H8         0.0412
     25 N14       -13.9710  -18.3450   -9.5290 N.ar      1 7H8        -0.2919
     26 C17       -10.5410  -18.8640   -7.9930 C.3       1 7H8         0.0297
     27 C18       -10.0960  -20.2500   -8.3890 C.ar      1 7H8        -0.0262
     28 C20        -9.8230  -22.5890   -7.8800 C.ar      1 7H8        -0.0676
     29 N28       -14.8730  -15.9920   -3.5990 N.am      1 7H8        -0.2675
     30 C29       -13.3950  -15.9770   -3.6640 C.3       1 7H8         0.0362
     31 C30       -13.0820  -15.4170   -5.0350 C.3       1 7H8        -0.0156
     32 C32       -15.4740  -15.4690   -4.6790 C.2       1 7H8         0.1787
     33 O33       -16.6790  -15.3340   -4.7940 O.2       1 7H8        -0.3969
     34 C34       -15.4720  -18.0510   -0.5070 C.3       1 7H8         0.0128
     35 N35       -15.1320  -19.4310   -0.0660 N.4       1 7H8         0.2367
     36 H1        -16.0494  -22.6212   -0.8487 H         1 7H8         0.0286
     37 H2        -15.5152  -21.9700    0.7379 H         1 7H8         0.0286
     38 H3        -14.3941  -21.9481   -0.6654 H         1 7H8         0.0286
     39 H4        -16.9999  -20.3954   -0.4083 H         1 7H8         0.0901
     40 H5        -16.6395  -20.9369   -2.7075 H         1 7H8         0.0871
     41 H6        -14.8920  -20.5392   -2.5867 H         1 7H8         0.0871
     42 H7        -17.0866  -18.6811   -2.2558 H         1 7H8         0.2061
     43 H8        -16.8605  -17.8590   -4.3366 H         1 7H8         0.1073
     44 H9        -17.1418  -19.6330   -4.3560 H         1 7H8         0.1073
     45 H10       -18.0939  -19.3554   -9.0392 H         1 7H8         0.0099
     46 H11       -16.7387  -20.4741   -8.6673 H         1 7H8         0.0099
     47 H12       -16.7270  -19.5247  -10.1922 H         1 7H8         0.0099
     48 H13       -16.1846  -16.2231   -8.5002 H         1 7H8         0.0099
     49 H14       -17.7973  -16.9246   -8.8656 H         1 7H8         0.0099
     50 H15       -16.4788  -17.0226  -10.0816 H         1 7H8         0.0099
     51 H16       -12.0098  -18.3359  -10.2151 H         1 7H8         0.0837
     52 H17       -10.6381  -21.1475   -6.5250 H         1 7H8         0.0565
     53 H18        -8.9911  -23.8152   -9.4204 H         1 7H8         0.0565
     54 H19        -8.7277  -21.9374  -10.9914 H         1 7H8         0.0601
     55 H20        -9.4523  -19.6747  -10.3502 H         1 7H8         0.0565
     56 H21       -12.4684  -19.1008   -6.0669 H         1 7H8         0.0649
     57 H22       -14.2542  -18.1389   -2.2791 H         1 7H8         0.0925
     58 H23       -15.3450  -15.8069   -1.5635 H         1 7H8         0.0580
     59 H24       -16.6828  -16.3848   -2.6137 H         1 7H8         0.0580
     60 H25       -14.5539  -15.6858   -6.6150 H         1 7H8         0.0503
     61 H26       -14.4891  -14.0236   -5.9370 H         1 7H8         0.0503
     62 H27       -17.3523  -19.1657   -6.6817 H         1 7H8         0.0492
     63 H28       -16.8906  -17.4358   -6.5364 H         1 7H8         0.0492
     64 H29       -10.2580  -18.6806   -6.9460 H         1 7H8         0.0653
     65 H30       -10.0442  -18.1275   -8.6416 H         1 7H8         0.0653
     66 H31        -9.9273  -23.4105   -7.1805 H         1 7H8         0.0601
     67 H32       -12.9907  -16.9945   -3.5580 H         1 7H8         0.0524
     68 H33       -12.9776  -15.3327   -2.8762 H         1 7H8         0.0524
     69 H34       -12.4766  -14.5033   -4.9421 H         1 7H8         0.0309
     70 H35       -12.5342  -16.1607   -5.6323 H         1 7H8         0.0309
     71 H36       -16.5182  -17.8351   -0.2449 H         1 7H8         0.0871
     72 H37       -14.8109  -17.3351    0.0033 H         1 7H8         0.0871
     73 H38       -14.1603  -19.6027   -0.2718 H         1 7H8         0.2020
     74 H39       -15.2813  -19.4952    0.9288 H         1 7H8         0.2020
@<TRIPOS>BOND
     1    2    1 1  
     2    3    2 1  
     3    2   35 1  
     4    4    3 1  
     5    4    5 1  
     6   19    4 1  
     7    5    6 1  
     8    6   22 2  
     9    6   23 am 
    10    7    8 1  
    11    7    9 1  
    12    7   10 1  
    13   24    7 1  
    14   18   10 ar 
    15   10   25 ar 
    16   12   11 ar 
    17   25   11 ar 
    18   17   12 ar 
    19   12   26 1  
    20   27   13 ar 
    21   13   28 ar 
    22   15   14 ar 
    23   28   14 ar 
    24   16   15 ar 
    25   27   16 ar 
    26   18   17 ar 
    27   23   18 1  
    28   20   19 1  
    29   19   34 1  
    30   29   20 1  
    31   21   31 1  
    32   32   21 1  
    33   23   24 1  
    34   26   27 1  
    35   29   30 1  
    36   29   32 am 
    37   30   31 1  
    38   32   33 2  
    39   34   35 1  
    40    1   36 1  
    41    1   37 1  
    42    1   38 1  
    43    2   39 1  
    44    3   40 1  
    45    3   41 1  
    46    4   42 1  
    47    5   43 1  
    48    5   44 1  
    49    8   45 1  
    50    8   46 1  
    51    8   47 1  
    52    9   48 1  
    53    9   49 1  
    54    9   50 1  
    55   11   51 1  
    56   13   52 1  
    57   14   53 1  
    58   15   54 1  
    59   16   55 1  
    60   17   56 1  
    61   19   57 1  
    62   20   58 1  
    63   20   59 1  
    64   21   60 1  
    65   21   61 1  
    66   24   62 1  
    67   24   63 1  
    68   26   64 1  
    69   26   65 1  
    70   28   66 1  
    71   30   67 1  
    72   30   68 1  
    73   31   69 1  
    74   31   70 1  
    75   34   71 1  
    76   34   72 1  
    77   35   73 1  
    78   35   74 1  
@<TRIPOS>SUBSTRUCTURE
     1 7H8         1

