### 
### Created by X-TOOL on Mon Sep 10 21:13:34 2018
### 

@<TRIPOS>MOLECULE
5m6u_ligand
   44    47     1     0     0
SMALL
GAST_HUCK


@<TRIPOS>ATOM
      1 N1         38.4480   14.0640   31.6650 N.pl3     1 7KA        -0.1942
      2 N2         37.4920   14.1490   32.6830 N.2       1 7KA        -0.1807
      3 C3         37.7590   14.6490   33.8450 C.2       1 7KA         0.1996
      4 N4         39.0250   15.1290   34.1410 N.am      1 7KA        -0.1400
      5 C5         40.0220   15.0760   33.2160 C.2       1 7KA         0.2740
      6 C6         39.7320   14.5080   31.9040 C.2       1 7KA         0.1530
      7 C7         40.4730   14.3130   30.7610 C.2       1 7KA        -0.0660
      8 C8         39.6150   13.7290   29.8280 C.2       1 7KA        -0.0808
      9 C9         38.3940   13.5910   30.4060 C.2       1 7KA         0.0389
     10 O10        41.1390   15.4920   33.4520 O.2       1 7KA        -0.3786
     11 C11        39.3340   15.7120   35.3750 C.ar      1 7KA         0.1030
     12 C12        40.0050   15.0140   36.3760 C.ar      1 7KA        -0.0321
     13 C13        40.2960   15.6580   37.5680 C.ar      1 7KA        -0.0718
     14 C14        39.9260   16.9840   37.7580 C.ar      1 7KA        -0.0741
     15 C15        39.2610   17.6790   36.7630 C.ar      1 7KA        -0.0718
     16 C16        38.9720   17.0450   35.5690 C.ar      1 7KA        -0.0321
     17 C17        36.6280   14.6500   34.8420 C.3       1 7KA         0.1259
     18 N19        35.3650   14.8050   34.1070 N.pl3     1 7KA        -0.2744
     19 C20        34.8720   16.0660   33.7970 C.ar      1 7KA         0.1541
     20 N21        35.6220   17.1480   34.0400 N.ar      1 7KA        -0.2563
     21 C22        35.1970   18.3720   33.7700 C.ar      1 7KA         0.0658
     22 N23        34.0070   18.6010   33.2320 N.ar      1 7KA        -0.2566
     23 C24        33.1830   17.5940   32.9410 C.ar      1 7KA         0.1489
     24 C25        33.5860   16.2600   33.2170 C.ar      1 7KA         0.1776
     25 C26        32.6870   15.1920   32.8960 C.1       1 7KA         0.0901
     26 N27        31.9860   14.3280   32.6550 N.1       1 7KA        -0.3468
     27 N28        31.9500   17.8790   32.3930 N.pl3     1 7KA        -0.3103
     28 C29        36.6440   13.3120   35.5790 C.3       1 7KA        -0.0231
     29 H1         41.5222   14.5648   30.6135 H         1 7KA         0.0320
     30 H2         39.8788   13.4351   28.8131 H         1 7KA         0.0284
     31 H3         37.5128   13.1660   29.9278 H         1 7KA         0.0827
     32 H4         40.2958   13.9807   36.2247 H         1 7KA         0.0537
     33 H5         40.8149   15.1247   38.3563 H         1 7KA         0.0585
     34 H6         40.1603   17.4783   38.6938 H         1 7KA         0.0513
     35 H7         38.9693   18.7114   36.9185 H         1 7KA         0.0585
     36 H8         38.4619   17.5861   34.7802 H         1 7KA         0.0537
     37 H9         36.7497   15.4759   35.5583 H         1 7KA         0.0828
     38 H10        34.8387   13.9681   33.8181 H         1 7KA         0.1922
     39 H11        35.8419   19.2135   33.9958 H         1 7KA         0.1109
     40 H12        31.3001   17.1142   32.1616 H         1 7KA         0.1847
     41 H13        31.6790   18.8567   32.2151 H         1 7KA         0.1847
     42 H14        37.5927   13.2058   36.1255 H         1 7KA         0.0283
     43 H15        36.5456   12.4920   34.8525 H         1 7KA         0.0283
     44 H16        35.8053   13.2748   36.2897 H         1 7KA         0.0283
@<TRIPOS>BOND
     1    1    2 1  
     2    1    6 1  
     3    1    9 1  
     4    2    3 2  
     5    3    4 1  
     6    3   17 1  
     7    4    5 am 
     8    4   11 1  
     9    5    6 1  
    10    5   10 2  
    11    6    7 2  
    12    7    8 1  
    13    8    9 2  
    14   11   12 ar 
    15   11   16 ar 
    16   12   13 ar 
    17   13   14 ar 
    18   14   15 ar 
    19   15   16 ar 
    20   17   18 1  
    21   17   28 1  
    22   18   19 1  
    23   19   20 ar 
    24   19   24 ar 
    25   20   21 ar 
    26   21   22 ar 
    27   22   23 ar 
    28   23   24 ar 
    29   23   27 1  
    30   24   25 1  
    31   25   26 3  
    32    7   29 1  
    33    8   30 1  
    34    9   31 1  
    35   12   32 1  
    36   13   33 1  
    37   14   34 1  
    38   15   35 1  
    39   16   36 1  
    40   17   37 1  
    41   18   38 1  
    42   21   39 1  
    43   27   40 1  
    44   27   41 1  
    45   28   42 1  
    46   28   43 1  
    47   28   44 1  
@<TRIPOS>SUBSTRUCTURE
     1 7KA         1

