### 
### Created by X-TOOL on Mon Sep 10 21:13:34 2018
### 

@<TRIPOS>MOLECULE
5m7m_ligand
   78    82     1     0     0
SMALL
GAST_HUCK


@<TRIPOS>ATOM
      1 N12        15.9110    1.6390   26.6230 N.pl3     1 7HR        -0.2154
      2 C13        17.1270    0.8270   26.5270 C.3       1 7HR         0.0399
      3 C17        15.5600    5.2750   26.1970 C.2       1 7HR         0.0075
      4 C20        19.1130    5.6720   26.5380 C.ar      1 7HR        -0.0598
      5 C21        20.0840    6.6650   26.4320 C.ar      1 7HR        -0.0304
      6 C22        19.7420    7.9460   25.9850 C.ar      1 7HR         0.1300
      7 C24        18.4220    8.2390   25.6490 C.ar      1 7HR        -0.0304
      8 C26        15.2550   -0.7260   31.3310 C.3       1 7HR        -0.0079
      9 C28        17.3140   -0.6300   32.6000 C.3       1 7HR         0.0309
     10 C39        23.0810   -2.0530   37.1740 C.3       1 7HR        -0.0433
     11 N38        21.9120   -1.2170   37.4670 N.4       1 7HR         0.2309
     12 C40        21.0960   -1.6480   38.6110 C.3       1 7HR        -0.0433
     13 C37        21.0300   -1.5150   36.3110 C.3       1 7HR        -0.0308
     14 C36        19.8160   -0.5860   36.3460 C.3       1 7HR         0.0086
     15 C35        19.0760   -0.8430   35.0470 C.3       1 7HR         0.0894
     16 S32        17.7390    0.4120   35.0160 S.o2      1 7HR         0.0415
     17 O33        16.8610    0.3080   36.2640 O.2       1 7HR        -0.1553
     18 O34        18.4050    1.7760   35.0010 O.2       1 7HR        -0.1553
     19 N29        16.6900    0.2430   33.5880 N.am      1 7HR        -0.2382
     20 C30        15.2770   -0.1200   33.8680 C.3       1 7HR         0.0309
     21 C31        14.4680   -0.0520   32.5030 C.3       1 7HR        -0.0255
     22 C27        16.6760   -0.1190   31.3790 C.3       1 7HR        -0.0255
     23 C08        14.6180   -0.5420   30.0640 C.2       1 7HR        -0.0123
     24 C09        15.1480    0.2140   29.0090 C.2       1 7HR         0.0737
     25 N10        14.4360    0.2990   27.8120 N.pl3     1 7HR        -0.1964
     26 C07        13.3980   -1.1700   29.8160 C.2       1 7HR        -0.0620
     27 C06        12.7460   -1.0370   28.5880 C.2       1 7HR        -0.0277
     28 C05        13.2720   -0.3120   27.6100 C.2       1 7HR         0.1188
     29 N04        12.8420   -0.0450   26.3750 N.2       1 7HR        -0.3567
     30 C03        13.7630    0.7380   25.8140 C.2       1 7HR         0.0068
     31 C02        13.5910    1.2660   24.3900 C.3       1 7HR        -0.0328
     32 C01        14.6630    0.6230   23.5260 C.3       1 7HR        -0.0602
     33 C11        14.7490    0.9780   26.7100 C.2       1 7HR         0.1884
     34 C14        16.0060    2.9630   26.4910 C.2       1 7HR         0.1975
     35 N15        17.1270    3.6990   26.4750 N.2       1 7HR        -0.3126
     36 S18        14.8040    3.8790   26.3010 S.3       1 7HR         0.0171
     37 C16        16.8590    5.0060   26.3150 C.2       1 7HR         0.0016
     38 C19        17.7870    5.9580   26.2310 C.ar      1 7HR        -0.0293
     39 F23        20.6760    8.8940   25.8760 F         1 7HR        -0.1851
     40 C25        17.4540    7.2450   25.7720 C.ar      1 7HR        -0.0598
     41 H1         16.8703   -0.2346   26.6579 H         1 7HR         0.0536
     42 H2         17.8348    1.1325   27.3116 H         1 7HR         0.0536
     43 H3         17.5887    0.9734   25.5394 H         1 7HR         0.0536
     44 H4         15.1059    6.2549   26.0572 H         1 7HR         0.0647
     45 H5         19.3912    4.6751   26.8602 H         1 7HR         0.0588
     46 H6         21.1114    6.4439   26.6976 H         1 7HR         0.0598
     47 H7         18.1518    9.2278   25.2964 H         1 7HR         0.0598
     48 H8         15.3206   -1.8080   31.5178 H         1 7HR         0.0429
     49 H9         17.0708   -1.6881   32.7769 H         1 7HR         0.0479
     50 H10        18.4065   -0.5042   32.5744 H         1 7HR         0.0479
     51 H11        23.8308   -1.9264   37.9688 H         1 7HR         0.0777
     52 H12        23.5149   -1.7514   36.2093 H         1 7HR         0.0777
     53 H13        22.7741   -3.1081   37.1243 H         1 7HR         0.0777
     54 H14        22.1680   -0.2455   37.5486 H         1 7HR         0.2028
     55 H15        20.2514   -0.9553   38.7406 H         1 7HR         0.0777
     56 H16        21.7127   -1.6486   39.5218 H         1 7HR         0.0777
     57 H17        20.7131   -2.6626   38.4268 H         1 7HR         0.0777
     58 H18        20.6935   -2.5608   36.3660 H         1 7HR         0.0815
     59 H19        21.5859   -1.3574   35.3750 H         1 7HR         0.0815
     60 H20        20.1366    0.4646   36.4051 H         1 7HR         0.0333
     61 H21        19.1747   -0.8227   37.2078 H         1 7HR         0.0333
     62 H22        18.6545   -1.8590   35.0352 H         1 7HR         0.0520
     63 H23        19.7482   -0.7148   34.1858 H         1 7HR         0.0520
     64 H24        14.8468    0.5881   34.5915 H         1 7HR         0.0479
     65 H25        15.2287   -1.1391   34.2792 H         1 7HR         0.0479
     66 H26        13.5067   -0.5709   32.6320 H         1 7HR         0.0302
     67 H27        14.2844    1.0025   32.2494 H         1 7HR         0.0302
     68 H28        16.6180    0.9789   31.4130 H         1 7HR         0.0302
     69 H29        17.2504   -0.4287   30.4935 H         1 7HR         0.0302
     70 H30        16.1016    0.7275   29.1221 H         1 7HR         0.1041
     71 H31        12.9435   -1.7776   30.5971 H         1 7HR         0.0568
     72 H32        11.7910   -1.5363   28.4312 H         1 7HR         0.0560
     73 H33        13.7075    2.3597   24.3794 H         1 7HR         0.0356
     74 H34        12.5938    0.9998   24.0096 H         1 7HR         0.0356
     75 H35        14.5655    0.9841   22.4915 H         1 7HR         0.0245
     76 H36        14.5429   -0.4702   23.5456 H         1 7HR         0.0245
     77 H37        15.6566    0.8898   23.9153 H         1 7HR         0.0245
     78 H38        16.4261    7.4673   25.5094 H         1 7HR         0.0588
@<TRIPOS>BOND
     1    1    2 1  
     2    1   33 1  
     3   34    1 1  
     4    3   36 1  
     5   37    3 2  
     6    4    5 ar 
     7   38    4 ar 
     8    5    6 ar 
     9    6    7 ar 
    10    6   39 1  
    11    7   40 ar 
    12    8   21 1  
    13    8   22 1  
    14   23    8 1  
    15    9   19 1  
    16   22    9 1  
    17   11   10 1  
    18   11   12 1  
    19   13   11 1  
    20   14   13 1  
    21   15   14 1  
    22   16   15 1  
    23   16   17 2  
    24   16   18 2  
    25   19   16 am 
    26   20   19 1  
    27   21   20 1  
    28   24   23 2  
    29   23   26 1  
    30   25   24 1  
    31   25   28 1  
    32   33   25 1  
    33   27   26 2  
    34   28   27 1  
    35   29   28 2  
    36   30   29 1  
    37   30   31 1  
    38   33   30 2  
    39   31   32 1  
    40   35   34 2  
    41   34   36 1  
    42   37   35 1  
    43   37   38 1  
    44   38   40 ar 
    45    2   41 1  
    46    2   42 1  
    47    2   43 1  
    48    3   44 1  
    49    4   45 1  
    50    5   46 1  
    51    7   47 1  
    52    8   48 1  
    53    9   49 1  
    54    9   50 1  
    55   10   51 1  
    56   10   52 1  
    57   10   53 1  
    58   11   54 1  
    59   12   55 1  
    60   12   56 1  
    61   12   57 1  
    62   13   58 1  
    63   13   59 1  
    64   14   60 1  
    65   14   61 1  
    66   15   62 1  
    67   15   63 1  
    68   20   64 1  
    69   20   65 1  
    70   21   66 1  
    71   21   67 1  
    72   22   68 1  
    73   22   69 1  
    74   24   70 1  
    75   26   71 1  
    76   27   72 1  
    77   31   73 1  
    78   31   74 1  
    79   32   75 1  
    80   32   76 1  
    81   32   77 1  
    82   40   78 1  
@<TRIPOS>SUBSTRUCTURE
     1 7HR         1

