### 
### Created by X-TOOL on Mon Sep 10 21:13:33 2018
### 

@<TRIPOS>MOLECULE
5m7s_ligand
   32    33     1     0     0
SMALL
GAST_HUCK


@<TRIPOS>ATOM
      1 C1        -16.2160    3.7950   38.1880 C.3       1 NHT         0.1549
      2 C2        -16.2430    2.6540   37.1700 C.3       1 NHT         0.1137
      3 C3        -15.2040    1.5580   37.4110 C.3       1 NHT         0.1109
      4 C4        -13.8330    2.2080   37.6330 C.3       1 NHT         0.1116
      5 C5        -13.9310    3.1810   38.8050 C.3       1 NHT         0.1118
      6 C6        -12.6260    3.8770   39.1230 C.3       1 NHT         0.0730
      7 C7        -18.0950    2.2130   38.4410 C.2       1 NHT         0.1595
      8 C10       -19.7700    0.9260   41.0490 C.3       1 NHT        -0.0622
      9 N2        -17.6330    2.1500   37.2280 N.pl3     1 NHT        -0.2707
     10 O3        -15.1730    0.6730   36.2790 O.3       1 NHT        -0.3866
     11 O4        -12.8410    1.2150   37.9200 O.3       1 NHT        -0.3865
     12 O5        -14.9010    4.2120   38.5130 O.3       1 NHT        -0.3518
     13 N1        -19.2710    1.6210   38.7510 N.2       1 NHT        -0.3653
     14 O6        -12.1490    4.6020   37.9840 O.3       1 NHT        -0.3924
     15 S1        -17.1560    3.1380   39.6100 S.3       1 NHT         0.0029
     16 C9        -20.0580    1.8940   39.9440 C.3       1 NHT        -0.0274
     17 H1        -16.7461    4.6659   37.7752 H         1 NHT         0.0777
     18 H2        -16.0505    3.0678   36.1692 H         1 NHT         0.0633
     19 H3        -15.4798    0.9839   38.3078 H         1 NHT         0.0645
     20 H4        -13.5413    2.7561   36.7250 H         1 NHT         0.0647
     21 H5        -14.2542    2.6162   39.6919 H         1 NHT         0.0646
     22 H6        -11.8768    3.1253   39.4123 H         1 NHT         0.0584
     23 H7        -12.7838    4.5771   39.9566 H         1 NHT         0.0584
     24 H8        -20.3878    1.1746   41.9245 H         1 NHT         0.0232
     25 H9        -18.7061    0.9868   41.3218 H         1 NHT         0.0232
     26 H10       -20.0046   -0.0947   40.7127 H         1 NHT         0.0232
     27 H11       -18.1621    1.7974   36.4177 H         1 NHT         0.1945
     28 H12       -14.5307   -0.0105   36.4303 H         1 NHT         0.2100
     29 H13       -12.0007    1.6377   38.0530 H         1 NHT         0.2100
     30 H14       -12.0089    3.9999   37.2627 H         1 NHT         0.2095
     31 H15       -19.8269    2.9105   40.2951 H         1 NHT         0.0298
     32 H16       -21.1253    1.8289   39.6861 H         1 NHT         0.0298
@<TRIPOS>BOND
     1    1    2 1  
     2    1   12 1  
     3   15    1 1  
     4    2    3 1  
     5    9    2 1  
     6    3    4 1  
     7    3   10 1  
     8    5    4 1  
     9    4   11 1  
    10    5    6 1  
    11   12    5 1  
    12    6   14 1  
    13    7    9 1  
    14   13    7 2  
    15    7   15 1  
    16   16    8 1  
    17   13   16 1  
    18    1   17 1  
    19    2   18 1  
    20    3   19 1  
    21    4   20 1  
    22    5   21 1  
    23    6   22 1  
    24    6   23 1  
    25    8   24 1  
    26    8   25 1  
    27    8   26 1  
    28    9   27 1  
    29   10   28 1  
    30   11   29 1  
    31   14   30 1  
    32   16   31 1  
    33   16   32 1  
@<TRIPOS>SUBSTRUCTURE
     1 NHT         1

