### 
### Created by X-TOOL on Mon Sep 10 21:13:33 2018
### 

@<TRIPOS>MOLECULE
5m7t_ligand
   46    48     1     0     0
SMALL
GAST_HUCK


@<TRIPOS>ATOM
      1 O1        -21.6870   -2.8290   24.3790 O.2       1 GDV        -0.3972
      2 C10       -22.5930   -2.1400   24.7960 C.2       1 GDV         0.1755
      3 C12       -23.7360   -1.7580   23.9110 C.3       1 GDV         0.0258
      4 N4        -22.5920   -1.6610   26.0300 N.am      1 GDV        -0.2639
      5 C2        -21.4960   -1.8290   26.9670 C.3       1 GDV         0.1467
      6 C3        -20.1740   -1.1410   26.5230 C.3       1 GDV         0.1226
      7 O3        -20.1890    0.1670   27.1040 O.3       1 GDV        -0.3842
      8 C4        -18.8620   -1.9200   26.8630 C.3       1 GDV         0.1185
      9 O4        -17.6870   -1.2970   26.2860 O.3       1 GDV        -0.3857
     10 C5        -19.0100   -3.3770   26.3610 C.3       1 GDV         0.1225
     11 C6        -17.7870   -4.2740   26.5090 C.3       1 GDV         0.0777
     12 O5        -17.4880   -4.3820   27.9020 O.3       1 GDV        -0.3918
     13 C1        -21.2670   -3.2490   27.3470 C.2       1 GDV         0.1486
     14 N1        -20.1510   -3.9480   27.1170 N.pl3     1 GDV        -0.2302
     15 C7        -20.2950   -5.1640   27.6680 C.2       1 GDV         0.0572
     16 C8        -21.5370   -5.1960   28.2660 C.2       1 GDV         0.0839
     17 N2        -22.1040   -4.0150   28.0560 N.2       1 GDV        -0.3166
     18 C9        -22.1570   -6.3220   28.9990 C.2       1 GDV         0.2159
     19 O2        -23.3460   -6.4370   28.8570 O.2       1 GDV        -0.3869
     20 N3        -21.3560   -7.1100   29.7230 N.am      1 GDV        -0.2373
     21 C11       -21.6460   -8.3090   30.3070 C.ar      1 GDV         0.0653
     22 C17       -20.5730   -8.9920   30.9100 C.ar      1 GDV        -0.0413
     23 C16       -20.7600  -10.2340   31.5280 C.ar      1 GDV        -0.0755
     24 C15       -22.0280  -10.8140   31.5490 C.ar      1 GDV        -0.0772
     25 C14       -23.1020  -10.1550   30.9490 C.ar      1 GDV        -0.0755
     26 C13       -22.9120   -8.9190   30.3330 C.ar      1 GDV        -0.0413
     27 H1        -24.4455   -1.1360   24.4764 H         1 GDV         0.0467
     28 H2        -24.2457   -2.6665   23.5576 H         1 GDV         0.0467
     29 H3        -23.3578   -1.1905   23.0480 H         1 GDV         0.0467
     30 H4        -23.3964   -1.1517   26.3358 H         1 GDV         0.1888
     31 H5        -21.8108   -1.3137   27.8864 H         1 GDV         0.0824
     32 H6        -20.2024   -1.0357   25.4284 H         1 GDV         0.0672
     33 H7        -19.3962    0.6299   26.8597 H         1 GDV         0.2103
     34 H8        -18.7384   -1.9331   27.9559 H         1 GDV         0.0654
     35 H9        -16.9164   -1.8020   26.5173 H         1 GDV         0.2100
     36 H10       -19.2618   -3.3442   25.2907 H         1 GDV         0.0710
     37 H11       -16.9322   -3.8315   25.9765 H         1 GDV         0.0589
     38 H12       -18.0016   -5.2700   26.0945 H         1 GDV         0.0589
     39 H13       -16.7268   -4.9382   28.0192 H         1 GDV         0.2095
     40 H14       -19.5670   -5.9736   27.6466 H         1 GDV         0.0932
     41 H15       -20.4220   -6.7775   29.8539 H         1 GDV         0.2244
     42 H16       -19.5841   -8.5482   30.8955 H         1 GDV         0.0502
     43 H17       -19.9215  -10.7435   31.9889 H         1 GDV         0.0577
     44 H18       -22.1790  -11.7737   32.0299 H         1 GDV         0.0487
     45 H19       -24.0877  -10.6060   30.9620 H         1 GDV         0.0577
     46 H20       -23.7540   -8.4204   29.8666 H         1 GDV         0.0502
@<TRIPOS>BOND
     1    1    2 2  
     2    2    3 1  
     3    2    4 am 
     4    4    5 1  
     5    5    6 1  
     6    5   13 1  
     7    6    7 1  
     8    6    8 1  
     9    8    9 1  
    10    8   10 1  
    11   10   11 1  
    12   10   14 1  
    13   11   12 1  
    14   13   14 1  
    15   13   17 2  
    16   14   15 1  
    17   15   16 2  
    18   16   17 1  
    19   16   18 1  
    20   18   19 2  
    21   18   20 am 
    22   20   21 1  
    23   21   22 ar 
    24   21   26 ar 
    25   22   23 ar 
    26   23   24 ar 
    27   24   25 ar 
    28   25   26 ar 
    29    3   27 1  
    30    3   28 1  
    31    3   29 1  
    32    4   30 1  
    33    5   31 1  
    34    6   32 1  
    35    7   33 1  
    36    8   34 1  
    37    9   35 1  
    38   10   36 1  
    39   11   37 1  
    40   11   38 1  
    41   12   39 1  
    42   15   40 1  
    43   20   41 1  
    44   22   42 1  
    45   23   43 1  
    46   24   44 1  
    47   25   45 1  
    48   26   46 1  
@<TRIPOS>SUBSTRUCTURE
     1 GDV         1

