### 
### Created by X-TOOL on Mon Sep 10 21:13:31 2018
### 

@<TRIPOS>MOLECULE
5mar_ligand
   27    28     1     0     0
SMALL
GAST_HUCK


@<TRIPOS>ATOM
      1 C15         4.9540  -35.6850    0.1680 C.3       1 7KE         0.0468
      2 C14         6.1120  -36.4570    0.7900 C.3       1 7KE        -0.0108
      3 C13         6.1570  -36.1580    2.2850 C.3       1 7KE         0.0467
      4 C11         7.2570  -36.9830    2.9410 C.2       1 7KE         0.2182
      5 C06        12.8430  -37.2950    6.0030 C.ar      1 7KE         0.0403
      6 C05        12.2660  -38.5330    5.7730 C.ar      1 7KE        -0.0475
      7 C02        10.9840  -36.2250    4.9300 C.ar      1 7KE        -0.0525
      8 C03        10.4090  -37.4610    4.7000 C.ar      1 7KE         0.0007
      9 C04        11.0490  -38.6170    5.1200 C.ar      1 7KE        -0.0525
     10 C01        12.2010  -36.1410    5.5830 C.ar      1 7KE        -0.0475
     11 C08         9.0720  -37.5470    3.9780 C.2       1 7KE         0.1087
     12 N09         8.4070  -38.6580    3.6850 N.2       1 7KE        -0.1213
     13 N12         8.3570  -36.4950    3.5140 N.2       1 7KE        -0.2737
     14 O10         7.2930  -38.2970    3.0500 O.3       1 7KE        -0.1324
     15 O16         4.9530  -35.8990   -1.2130 O.3       1 7KE        -0.3948
     16 CL7        14.4120  -37.1820    6.8450 Cl        1 7KE        -0.0706
     17 H1          5.0737  -34.6112    0.3745 H         1 7KE         0.0559
     18 H2          4.0039  -36.0371    0.5962 H         1 7KE         0.0559
     19 H3          7.0575  -36.1452    0.3223 H         1 7KE         0.0318
     20 H4          5.9635  -37.5356    0.6333 H         1 7KE         0.0318
     21 H5          5.1881  -36.4142    2.7384 H         1 7KE         0.0542
     22 H6          6.3619  -35.0881    2.4379 H         1 7KE         0.0542
     23 H7         12.7674  -39.4352    6.1043 H         1 7KE         0.0622
     24 H8         10.4821  -35.3229    4.5992 H         1 7KE         0.0622
     25 H9         10.5967  -39.5850    4.9371 H         1 7KE         0.0622
     26 H10        12.6522  -35.1725    5.7660 H         1 7KE         0.0622
     27 H11         4.8506  -36.8271   -1.3885 H         1 7KE         0.2094
@<TRIPOS>BOND
     1    2    1 1  
     2    1   15 1  
     3    3    2 1  
     4    4    3 1  
     5   13    4 2  
     6    4   14 1  
     7    6    5 ar 
     8   10    5 ar 
     9    5   16 1  
    10    9    6 ar 
    11    8    7 ar 
    12    7   10 ar 
    13    8    9 ar 
    14   11    8 1  
    15   11   12 2  
    16   11   13 1  
    17   12   14 1  
    18    1   17 1  
    19    1   18 1  
    20    2   19 1  
    21    2   20 1  
    22    3   21 1  
    23    3   22 1  
    24    6   23 1  
    25    7   24 1  
    26    9   25 1  
    27   10   26 1  
    28   15   27 1  
@<TRIPOS>SUBSTRUCTURE
     1 7KE         1

