### 
### Created by X-TOOL on Mon Sep 10 21:13:33 2018
### 

@<TRIPOS>MOLECULE
5mat_ligand
   65    70     1     0     0
SMALL
GAST_HUCK


@<TRIPOS>ATOM
      1 C01        -4.3320    5.9670   18.4040 C.ar      1 7KJ        -0.0558
      2 C02        -3.2540    6.7720   18.6550 C.ar      1 7KJ        -0.0649
      3 C03        -3.1320    7.9980   18.0260 C.ar      1 7KJ        -0.0652
      4 C04        -4.0810    8.4270   17.1410 C.ar      1 7KJ        -0.0591
      5 C05        -5.2160    7.6290   16.8400 C.ar      1 7KJ        -0.0171
      6 C06        -5.3410    6.3630   17.4940 C.ar      1 7KJ         0.0118
      7 C07        -6.2310    8.0460   15.9250 C.ar      1 7KJ        -0.0144
      8 C08        -7.3060    7.2140   15.6830 C.ar      1 7KJ        -0.0705
      9 C09        -7.4310    5.9780   16.3140 C.ar      1 7KJ        -0.0429
     10 C10        -6.4770    5.5580   17.2090 C.ar      1 7KJ         0.0947
     11 C11        -6.1150    9.3920   15.2280 C.3       1 7KJ         0.0999
     12 C12        -8.3320    9.7180   14.2560 C.2       1 7KJ         0.1306
     13 C14        -7.7530    3.7220   18.0840 C.3       1 7KJ         0.0592
     14 C16        -6.5140    8.9760   12.8400 C.2       1 7KJ         0.2156
     15 C17        -7.4940    8.9620   11.7840 C.2       1 7KJ         0.0421
     16 C18        -8.7900    9.3240   12.1050 C.2       1 7KJ         0.0763
     17 C20        -7.3360    8.6120   10.3970 C.2       1 7KJ        -0.0527
     18 C21        -8.5030    8.7080    9.7160 C.2       1 7KJ         0.0099
     19 C23        -8.6680    8.4250    8.2520 C.3       1 7KJ         0.0258
     20 C24        -7.3210    8.4430    7.5330 C.3       1 7KJ        -0.0128
     21 C25        -6.3020    7.6160    8.3010 C.3       1 7KJ        -0.0035
     22 C26        -6.0700    8.1780    9.7060 C.3       1 7KJ        -0.0327
     23 C28        -6.3300    8.3850    5.3340 C.3       1 7KJ        -0.0157
     24 C29        -6.4990    8.0270    3.8800 C.2       1 7KJ         0.0280
     25 C30        -7.0460    8.8260    2.8530 C.2       1 7KJ         0.0177
     26 C33        -6.1440    6.8710    3.2770 C.2       1 7KJ         0.1302
     27 C34        -5.5260    5.6100    3.7510 C.3       1 7KJ         0.0027
     28 C35        -7.5910   10.2130    2.9450 C.3       1 7KJ        -0.0297
     29 N15        -7.0240    9.3770   14.0730 N.am      1 7KJ        -0.1809
     30 N19        -9.2450    9.7100   13.3330 N.2       1 7KJ        -0.2834
     31 N27        -7.4890    7.9930    6.1340 N.4       1 7KJ         0.2360
     32 N31        -7.0390    8.2050    1.7100 N.2       1 7KJ        -0.1774
     33 O13        -6.4980    4.3690   17.8850 O.3       1 7KJ        -0.3225
     34 O32        -6.4550    6.9360    1.9660 O.3       1 7KJ        -0.1898
     35 O36        -5.3280    8.6870   12.7150 O.2       1 7KJ        -0.4052
     36 S22        -9.8250    9.2330   10.7190 S.3       1 7KJ        -0.0353
     37 H1         -4.4142    5.0118   18.9098 H         1 7KJ         0.0617
     38 H2         -2.4901    6.4465   19.3519 H         1 7KJ         0.0589
     39 H3         -2.2739    8.6256   18.2375 H         1 7KJ         0.0598
     40 H4         -3.9652    9.3921   16.6612 H         1 7KJ         0.0605
     41 H5         -8.0721    7.5304   14.9844 H         1 7KJ         0.0498
     42 H6         -8.2843    5.3453   16.0979 H         1 7KJ         0.0478
     43 H7         -5.0807    9.5503   14.8886 H         1 7KJ         0.0783
     44 H8         -6.4014   10.1980   15.9196 H         1 7KJ         0.0783
     45 H9         -8.6349   10.0214   15.2571 H         1 7KJ         0.1478
     46 H10        -7.5986    2.7854   18.6397 H         1 7KJ         0.0578
     47 H11        -8.2091    3.4985   17.1083 H         1 7KJ         0.0578
     48 H12        -8.4195    4.3830   18.6575 H         1 7KJ         0.0578
     49 H13        -9.3216    9.1911    7.8095 H         1 7KJ         0.0463
     50 H14        -9.1284    7.4338    8.1274 H         1 7KJ         0.0463
     51 H15        -6.9579    9.4811    7.5091 H         1 7KJ         0.0874
     52 H16        -5.3491    7.6220    7.7515 H         1 7KJ         0.0336
     53 H17        -6.6702    6.5829    8.3853 H         1 7KJ         0.0336
     54 H18        -5.5892    7.3999   10.3170 H         1 7KJ         0.0353
     55 H19        -5.4010    9.0476    9.6268 H         1 7KJ         0.0353
     56 H20        -6.1925    9.4731    5.4180 H         1 7KJ         0.0877
     57 H21        -5.4391    7.8716    5.7247 H         1 7KJ         0.0877
     58 H22        -5.4120    4.9168    2.9046 H         1 7KJ         0.0423
     59 H23        -6.1693    5.1514    4.5164 H         1 7KJ         0.0423
     60 H24        -4.5380    5.8259    4.1838 H         1 7KJ         0.0423
     61 H25        -7.9373   10.5374    1.9526 H         1 7KJ         0.0367
     62 H26        -6.8030   10.8939    3.2990 H         1 7KJ         0.0367
     63 H27        -8.4343   10.2295    3.6510 H         1 7KJ         0.0367
     64 H28        -8.3187    8.4141    5.7463 H         1 7KJ         0.2023
     65 H29        -7.5817    6.9894    6.1160 H         1 7KJ         0.2023
@<TRIPOS>BOND
     1    1    2 ar 
     2    6    1 ar 
     3    3    2 ar 
     4    4    3 ar 
     5    5    4 ar 
     6    5    6 ar 
     7    7    5 ar 
     8    6   10 ar 
     9    7    8 ar 
    10   11    7 1  
    11    8    9 ar 
    12    9   10 ar 
    13   10   33 1  
    14   29   11 1  
    15   29   12 1  
    16   30   12 2  
    17   33   13 1  
    18   15   14 1  
    19   14   29 am 
    20   14   35 2  
    21   15   16 2  
    22   17   15 1  
    23   16   30 1  
    24   36   16 1  
    25   18   17 2  
    26   22   17 1  
    27   19   18 1  
    28   18   36 1  
    29   20   19 1  
    30   20   21 1  
    31   31   20 1  
    32   21   22 1  
    33   23   24 1  
    34   23   31 1  
    35   24   25 1  
    36   24   26 2  
    37   25   28 1  
    38   25   32 2  
    39   26   27 1  
    40   26   34 1  
    41   32   34 1  
    42    1   37 1  
    43    2   38 1  
    44    3   39 1  
    45    4   40 1  
    46    8   41 1  
    47    9   42 1  
    48   11   43 1  
    49   11   44 1  
    50   12   45 1  
    51   13   46 1  
    52   13   47 1  
    53   13   48 1  
    54   19   49 1  
    55   19   50 1  
    56   20   51 1  
    57   21   52 1  
    58   21   53 1  
    59   22   54 1  
    60   22   55 1  
    61   23   56 1  
    62   23   57 1  
    63   27   58 1  
    64   27   59 1  
    65   27   60 1  
    66   28   61 1  
    67   28   62 1  
    68   28   63 1  
    69   31   64 1  
    70   31   65 1  
@<TRIPOS>SUBSTRUCTURE
     1 7KJ         1

