### 
### Created by X-TOOL on Wed Jan  1 15:39:34 2020
### 

@<TRIPOS>MOLECULE
5may_ligand
   37    38     1     0     0
SMALL
GAST_HUCK


@<TRIPOS>ATOM
      1 C1         33.9960   -6.7950  116.2340 C.3       1 FUL         0.1041
      2 C2         32.8630   -6.5140  115.2200 C.3       1 FUL         0.1111
      3 O2         33.2170   -5.7870  114.0190 O.3       1 FUL        -0.3865
      4 C3         32.3600   -7.8450  114.7100 C.3       1 FUL         0.1117
      5 O3         31.2880   -7.7590  113.7380 O.3       1 FUL        -0.3865
      6 C4         31.8950   -8.7140  115.8680 C.3       1 FUL         0.1093
      7 O4         30.6570   -8.1500  116.3630 O.3       1 FUL        -0.3866
      8 C5         32.9430   -8.8030  116.9820 C.3       1 FUL         0.0848
      9 C6         32.4170   -9.5340  118.2100 C.3       1 FUL        -0.0362
     10 O5         33.4170   -7.4750  117.3640 O.3       1 FUL        -0.3668
     11 O1         36.0300   -3.6470  118.4900 O.2       1 PK6        -0.1499
     12 S1         36.7510   -4.7880  118.0240 S.o2      1 PK6         0.0768
     13 O2         37.6050   -5.4020  119.0140 O.2       1 PK6        -0.1499
     14 N1         35.7220   -5.9390  117.5590 N.am      1 PK6        -0.2445
     15 C1         34.6730   -5.5000  116.6190 C.3       1 PK6         0.0553
     16 C2         37.6620   -4.3080  116.7160 C.2       1 PK6         0.1602
     17 C3         38.7050   -5.0580  116.1330 C.2       1 PK6        -0.0523
     18 C4         39.2020   -4.3040  115.0550 C.2       1 PK6        -0.0774
     19 C5         38.6020   -3.0380  114.8910 C.2       1 PK6        -0.0067
     20 S2         37.3370   -2.7490  116.0390 S.3       1 PK6        -0.0178
     21 H1         34.7452   -7.4535  115.7701 H         1 FUL         0.0639
     22 H2         32.0632   -5.9687  115.7424 H         1 FUL         0.0646
     23 H3         33.5635   -4.9349  114.2565 H         1 FUL         0.2100
     24 H4         33.2088   -8.3454  114.2211 H         1 FUL         0.0647
     25 H5         31.0328   -8.6343  113.4714 H         1 FUL         0.2100
     26 H6         31.7037   -9.7311  115.4952 H         1 FUL         0.0646
     27 H7         30.3403   -8.6732  117.0900 H         1 FUL         0.2100
     28 H8         33.7987   -9.3724  116.5902 H         1 FUL         0.0620
     29 H9         33.2029   -9.5718  118.9788 H         1 FUL         0.0255
     30 H10        32.1273  -10.5579  117.9312 H         1 FUL         0.0255
     31 H11        31.5410   -9.0003  118.6072 H         1 FUL         0.0255
     32 H12        35.7899   -6.8822  117.8842 H         1 FUL         0.1673
     33 H13        33.9655   -4.8146  117.1085 H         1 FUL         0.0502
     34 H14        35.1121   -5.0069  115.7392 H         1 FUL         0.0502
     35 H15        39.0584   -6.0359  116.4566 H         1 FUL         0.0423
     36 H16        39.9895   -4.6694  114.3975 H         1 FUL         0.0404
     37 H17        38.9008   -2.3215  114.1273 H         1 FUL         0.0711
@<TRIPOS>BOND
     1    1    2 1  
     2    1   10 1  
     3   15    1 1  
     4    2    3 1  
     5    2    4 1  
     6    4    5 1  
     7    4    6 1  
     8    6    7 1  
     9    8    6 1  
    10    8    9 1  
    11   10    8 1  
    12   12   11 2  
    13   12   13 2  
    14   14   12 am 
    15   12   16 1  
    16   14   15 1  
    17   16   17 2  
    18   16   20 1  
    19   17   18 1  
    20   18   19 2  
    21   19   20 1  
    22    1   21 1  
    23    2   22 1  
    24    3   23 1  
    25    4   24 1  
    26    5   25 1  
    27    6   26 1  
    28    7   27 1  
    29    8   28 1  
    30    9   29 1  
    31    9   30 1  
    32    9   31 1  
    33   14   32 1  
    34   15   33 1  
    35   15   34 1  
    36   17   35 1  
    37   18   36 1  
    38   19   37 1  
@<TRIPOS>SUBSTRUCTURE
     1 FUL         1

