### 
### Created by X-TOOL on Wed Jan  1 15:39:34 2020
### 

@<TRIPOS>MOLECULE
5mb1_ligand
   29    29     1     0     0
SMALL
GAST_HUCK


@<TRIPOS>ATOM
      1 O2         -7.1080    4.3330   12.4090 O.2       1 7KT        -0.1533
      2 S1         -7.9490    5.3600   11.9290 S.o2      1 7KT         0.0599
      3 O1         -8.6410    6.1500   12.9190 O.2       1 7KT        -0.1533
      4 N1         -7.0960    6.3960   10.9920 N.am      1 7KT        -0.2529
      5 C1         -6.1550    5.8510    9.9990 C.3       1 7KT         0.0148
      6 C2         -9.0670    4.6320   10.8070 C.ar      1 7KT         0.1028
      7 C9         -8.8140    3.3780   10.2580 C.ar      1 7KT        -0.0331
      8 C10        -7.6370    2.4720   10.6060 C.3       1 7KT        -0.0324
      9 C8         -9.7270    2.8490    9.3280 C.ar      1 7KT        -0.0647
     10 C6        -10.8200    3.6050    8.9250 C.ar      1 7KT        -0.0594
     11 C7        -11.8040    3.0720    7.9120 C.3       1 7KT        -0.0343
     12 C5        -11.0420    4.8600    9.4630 C.ar      1 7KT        -0.0647
     13 C3        -10.1600    5.3850   10.4150 C.ar      1 7KT        -0.0331
     14 C4        -10.4910    6.7810   10.9160 C.3       1 7KT        -0.0324
     15 H1         -7.2121    7.3842   11.0923 H         1 7KT         0.1666
     16 H2         -5.6701    6.6786    9.4606 H         1 7KT         0.0439
     17 H3         -6.7019    5.2189    9.2839 H         1 7KT         0.0439
     18 H4         -5.3901    5.2485   10.5107 H         1 7KT         0.0439
     19 H5         -7.6992    1.5467   10.0145 H         1 7KT         0.0389
     20 H6         -7.6686    2.2250   11.6774 H         1 7KT         0.0389
     21 H7         -6.6945    2.9909   10.3769 H         1 7KT         0.0389
     22 H8         -9.5778    1.8532    8.9266 H         1 7KT         0.0439
     23 H9        -12.5888    3.8218    7.7335 H         1 7KT         0.0389
     24 H10       -12.2605    2.1476    8.2954 H         1 7KT         0.0389
     25 H11       -11.2798    2.8583    6.9688 H         1 7KT         0.0389
     26 H12       -11.9020    5.4390    9.1463 H         1 7KT         0.0439
     27 H13        -9.7385    7.0933   11.6551 H         1 7KT         0.0389
     28 H14       -11.4858    6.7759   11.3853 H         1 7KT         0.0389
     29 H15       -10.4881    7.4844   10.0703 H         1 7KT         0.0389
@<TRIPOS>BOND
     1    1    2 2  
     2    2    3 2  
     3    2    4 am 
     4    2    6 1  
     5    4    5 1  
     6    6    7 ar 
     7    6   13 ar 
     8    7    8 1  
     9    7    9 ar 
    10    9   10 ar 
    11   10   11 1  
    12   10   12 ar 
    13   12   13 ar 
    14   13   14 1  
    15    4   15 1  
    16    5   16 1  
    17    5   17 1  
    18    5   18 1  
    19    8   19 1  
    20    8   20 1  
    21    8   21 1  
    22    9   22 1  
    23   11   23 1  
    24   11   24 1  
    25   11   25 1  
    26   12   26 1  
    27   14   27 1  
    28   14   28 1  
    29   14   29 1  
@<TRIPOS>SUBSTRUCTURE
     1 7KT         1

