### 
### Created by X-TOOL on Wed Jan  1 15:39:34 2020
### 

@<TRIPOS>MOLECULE
5mby_ligand
   17    17     1     0     0
SMALL
GAST_HUCK


@<TRIPOS>ATOM
      1 N          18.5300   43.1830   78.6350 N.4       1 PRO         0.2409
      2 CA         19.3660   44.3910   78.6440 C.3       1 PRO         0.0303
      3 C          20.5540   44.2690   79.5700 C.2       1 PRO         0.0845
      4 O          21.4320   45.1420   79.5680 O.co2     1 PRO        -0.5643
      5 CB         18.4190   45.4820   79.1520 C.3       1 PRO         0.0072
      6 CG         17.0620   44.9410   78.9050 C.3       1 PRO        -0.0059
      7 CD         17.1150   43.4860   78.9080 C.3       1 PRO        -0.0318
      8 OXT        20.6140   43.2890   80.3200 O.co2     1 PRO        -0.5643
      9 H1         18.8685   42.5483   79.3412 H         1 PRO         0.2030
     10 H2         18.5998   42.7462   77.7293 H         1 PRO         0.2030
     11 H3         19.7212   44.6194   77.6283 H         1 PRO         0.1025
     12 H4         18.5711   46.4187   78.5957 H         1 PRO         0.0340
     13 H5         18.5755   45.6636   80.2256 H         1 PRO         0.0340
     14 H6         16.6984   45.2932   77.9284 H         1 PRO         0.0320
     15 H7         16.3798   45.2852   79.6962 H         1 PRO         0.0320
     16 H8         16.8105   43.0853   79.8861 H         1 PRO         0.0814
     17 H9         16.4669   43.0691   78.1230 H         1 PRO         0.0814
@<TRIPOS>BOND
     1    1    2 1  
     2    1    7 1  
     3    2    3 1  
     4    2    5 1  
     5    3    4 ar 
     6    3    8 ar 
     7    5    6 1  
     8    6    7 1  
     9    1    9 1  
    10    1   10 1  
    11    2   11 1  
    12    5   12 1  
    13    5   13 1  
    14    6   14 1  
    15    6   15 1  
    16    7   16 1  
    17    7   17 1  
@<TRIPOS>SUBSTRUCTURE
     1 PRO         1

