### 
### Created by X-TOOL on Mon Sep 10 21:13:25 2018
### 

@<TRIPOS>MOLECULE
5meh_ligand
   25    25     1     0     0
SMALL
GAST_HUCK


@<TRIPOS>ATOM
      1 C4         23.9160   18.7610   48.2190 C.3       1 DMJ         0.1280
      2 O4         22.9400   18.3750   47.2130 O.3       1 DMJ        -0.3835
      3 C3         24.8790   17.5790   48.5260 C.3       1 DMJ         0.1171
      4 O3         25.8010   17.9680   49.5630 O.3       1 DMJ        -0.3862
      5 C2         25.6510   17.1700   47.2250 C.3       1 DMJ         0.1231
      6 O2         26.8700   16.4720   47.6150 O.3       1 DMJ        -0.3838
      7 C1         26.0190   18.3670   46.2900 C.3       1 DMJ        -0.0040
      8 N5         26.0600   19.5920   47.1740 N.4       1 DMJ         0.2346
      9 C5         24.7070   20.0280   47.7690 C.3       1 DMJ         0.0301
     10 C6         25.0150   20.9900   48.9200 C.3       1 DMJ         0.0893
     11 O6         25.8550   22.0490   48.4340 O.3       1 DMJ        -0.3894
     12 H1         23.3744   19.0090   49.1437 H         1 DMJ         0.0678
     13 H2         22.4326   17.6379   47.5320 H         1 DMJ         0.2102
     14 H3         24.2911   16.7176   48.8759 H         1 DMJ         0.0649
     15 H4         25.3159   18.1943   50.3479 H         1 DMJ         0.2100
     16 H5         25.0115   16.4814   46.6533 H         1 DMJ         0.0674
     17 H6         27.3504   16.2168   46.8362 H         1 DMJ         0.2101
     18 H7         25.2569   18.4874   45.5060 H         1 DMJ         0.0840
     19 H8         27.0012   18.1995   45.8240 H         1 DMJ         0.0840
     20 H9         26.4194   20.3581   46.6263 H         1 DMJ         0.2019
     21 H10        26.6885   19.4019   47.9388 H         1 DMJ         0.2019
     22 H11        24.1167   20.5581   47.0071 H         1 DMJ         0.0900
     23 H12        25.5336   20.4481   49.7246 H         1 DMJ         0.0614
     24 H13        24.0766   21.4127   49.3082 H         1 DMJ         0.0614
     25 H14        26.6642   21.6812   48.0984 H         1 DMJ         0.2097
@<TRIPOS>BOND
     1    1    2 1  
     2    1    3 1  
     3    1    9 1  
     4    3    4 1  
     5    3    5 1  
     6    5    6 1  
     7    5    7 1  
     8    7    8 1  
     9    8    9 1  
    10    9   10 1  
    11   10   11 1  
    12    1   12 1  
    13    2   13 1  
    14    3   14 1  
    15    4   15 1  
    16    5   16 1  
    17    6   17 1  
    18    7   18 1  
    19    7   19 1  
    20    8   20 1  
    21    8   21 1  
    22    9   22 1  
    23   10   23 1  
    24   10   24 1  
    25   11   25 1  
@<TRIPOS>SUBSTRUCTURE
     1 DMJ         1

