### 
### Created by X-TOOL on Mon Sep 10 21:13:32 2018
### 

@<TRIPOS>MOLECULE
5mes_ligand
  105   110     1     0     0
SMALL
GAST_HUCK


@<TRIPOS>ATOM
      1 C1        -10.6100    0.0510  -28.2320 C.3       1 7LT         0.0384
      2 C2         -9.6390    1.1740  -27.8830 C.3       1 7LT         0.0078
      3 C3         -8.4710    0.7520  -27.0180 C.3       1 7LT        -0.0313
      4 C7        -11.1690   -4.4610  -23.7960 C.3       1 7LT         0.1381
      5 C8        -11.7730   -5.0450  -22.5130 C.3       1 7LT        -0.0042
      6 C9        -12.0030   -6.5610  -22.5960 C.3       1 7LT        -0.0188
      7 C10       -11.1460   -7.2770  -23.6180 C.ar      1 7LT        -0.0205
      8 C11       -10.3220   -8.2850  -23.1190 C.ar      1 7LT        -0.0735
      9 C12        -9.5060   -9.0210  -23.9640 C.ar      1 7LT        -0.0840
     10 C13        -9.4920   -8.7570  -25.3210 C.ar      1 7LT        -0.0825
     11 C14       -10.2970   -7.7580  -25.8470 C.ar      1 7LT        -0.0472
     12 C15       -11.1340   -7.0260  -25.0000 C.ar      1 7LT         0.0742
     13 C16       -12.0630   -4.7400  -25.0180 C.2       1 7LT         0.2322
     14 C19       -10.6450   -3.9270  -28.9020 C.3       1 7LT         0.0681
     15 C20       -11.3900   -2.5920  -28.9260 C.3       1 7LT         0.0622
     16 C21       -10.9710   -1.6140  -30.0070 C.2       1 7LT         0.1806
     17 C22        -9.1350   -3.7020  -28.7120 C.3       1 7LT         0.0047
     18 C24        -7.9500   -5.4640  -27.3440 C.ar      1 7LT        -0.0665
     19 C27        -7.1910   -6.8500  -29.6640 C.ar      1 7LT        -0.0338
     20 C30        -5.4850   -7.3470  -31.5560 C.3       1 7LT        -0.0094
     21 C31        -5.0390   -8.5120  -32.4100 C.ar      1 7LT        -0.0411
     22 C32        -5.5780   -8.7160  -33.6770 C.ar      1 7LT        -0.0602
     23 C33        -5.2130   -9.8210  -34.4350 C.ar      1 7LT        -0.0686
     24 C34        -4.3070  -10.7370  -33.9360 C.ar      1 7LT        -0.0687
     25 C35        -3.7790  -10.5570  -32.6720 C.ar      1 7LT        -0.0686
     26 CL1        -6.2560   -6.5590  -22.9290 Cl        1 7LT        -0.0771
     27 C41        -6.5960   -4.8780  -23.2390 C.ar      1 7LT         0.0330
     28 C40        -6.2600   -4.3360  -24.4620 C.ar      1 7LT        -0.0546
     29 C39        -6.5150   -2.9950  -24.6970 C.ar      1 7LT        -0.0595
     30 C42        -7.1930   -4.1150  -22.2580 C.ar      1 7LT        -0.0546
     31 C43        -7.4500   -2.7770  -22.5090 C.ar      1 7LT        -0.0595
     32 C38        -7.1040   -2.1940  -23.7250 C.ar      1 7LT        -0.0372
     33 C37        -7.4290   -0.7470  -24.0090 C.3       1 7LT         0.0264
     34 C4         -8.6340   -0.5660  -24.9440 C.3       1 7LT         0.0038
     35 N1         -8.6510    0.7730  -25.5630 N.4       1 7LT         0.2323
     36 C5         -9.9680   -0.8870  -24.2700 C.3       1 7LT         0.0821
     37 C6        -10.2980   -2.3250  -24.6070 C.2       1 7LT         0.1838
     38 O         -10.0690   -2.7870  -25.7240 O.2       1 7LT        -0.3967
     39 N2        -10.8430   -3.0520  -23.6250 N.am      1 7LT        -0.2648
     40 O1        -12.7980   -3.8910  -25.5010 O.2       1 7LT        -0.3828
     41 N3        -11.9570   -5.9920  -25.5570 N.am      1 7LT        -0.2019
     42 C17       -12.7550   -6.2910  -26.7450 C.3       1 7LT         0.1426
     43 C18       -12.2830   -5.5370  -27.9800 C.2       1 7LT         0.2046
     44 O2        -12.9160   -5.6100  -29.0310 O.2       1 7LT        -0.3943
     45 N4        -11.1750   -4.7910  -27.8480 N.am      1 7LT        -0.2776
     46 O3        -10.9850   -1.9580  -31.1850 O.2       1 7LT        -0.3968
     47 N         -10.6010   -0.3670  -29.6400 N.am      1 7LT        -0.2760
     48 C         -10.1940    0.6260  -30.6290 C.3       1 7LT         0.0226
     49 C23        -8.3260   -4.9700  -28.5870 C.ar      1 7LT        -0.0471
     50 C28        -7.9610   -5.6850  -29.7260 C.ar      1 7LT        -0.0582
     51 C26        -6.8770   -7.3270  -28.3920 C.ar      1 7LT         0.0340
     52 CL         -5.9510   -8.7820  -28.2240 Cl        1 7LT        -0.0834
     53 C25        -7.2270   -6.6390  -27.2420 C.ar      1 7LT        -0.0612
     54 C29        -6.9230   -7.5860  -30.9590 C.3       1 7LT        -0.0104
     55 C36        -4.1420   -9.4530  -31.9140 C.ar      1 7LT        -0.0602
     56 H1        -11.6265    0.3904  -27.9841 H         1 7LT         0.0524
     57 H2        -10.3549   -0.8236  -27.6156 H         1 7LT         0.0524
     58 H3        -10.1973    1.9561  -27.3476 H         1 7LT         0.0336
     59 H4         -9.2395    1.5859  -28.8214 H         1 7LT         0.0336
     60 H5         -7.6304    1.4213  -27.2536 H         1 7LT         0.0814
     61 H6         -8.2096   -0.2784  -27.3007 H         1 7LT         0.0814
     62 H7        -10.2191   -4.9860  -23.9747 H         1 7LT         0.0806
     63 H8        -12.7389   -4.5535  -22.3246 H         1 7LT         0.0331
     64 H9        -11.0878   -4.8394  -21.6774 H         1 7LT         0.0331
     65 H10       -13.0585   -6.7336  -22.8530 H         1 7LT         0.0399
     66 H11       -11.7907   -6.9942  -21.6074 H         1 7LT         0.0399
     67 H12       -10.3194   -8.4960  -22.0557 H         1 7LT         0.0513
     68 H13        -8.8770   -9.8058  -23.5596 H         1 7LT         0.0470
     69 H14        -8.8491   -9.3333  -25.9764 H         1 7LT         0.0520
     70 H15       -10.2773   -7.5457  -26.9098 H         1 7LT         0.0480
     71 H16       -10.8004   -4.4271  -29.8694 H         1 7LT         0.0604
     72 H17       -11.2359   -2.1034  -27.9526 H         1 7LT         0.0527
     73 H18       -12.4601   -2.8066  -29.0633 H         1 7LT         0.0527
     74 H19        -8.9880   -3.1088  -27.7974 H         1 7LT         0.0450
     75 H20        -8.7595   -3.1385  -29.5789 H         1 7LT         0.0450
     76 H21        -8.2258   -4.9236  -26.4457 H         1 7LT         0.0500
     77 H22        -5.5011   -6.4367  -32.1734 H         1 7LT         0.0448
     78 H23        -4.7718   -7.2165  -30.7288 H         1 7LT         0.0448
     79 H24        -6.2910   -8.0041  -34.0768 H         1 7LT         0.0557
     80 H25        -5.6401   -9.9652  -35.4208 H         1 7LT         0.0599
     81 H26        -4.0120  -11.5923  -34.5330 H         1 7LT         0.0559
     82 H27        -3.0787  -11.2808  -32.2711 H         1 7LT         0.0599
     83 H28        -5.8027   -4.9510  -25.2286 H         1 7LT         0.0606
     84 H29        -6.2508   -2.5625  -25.6552 H         1 7LT         0.0557
     85 H30        -7.4576   -4.5559  -21.3037 H         1 7LT         0.0606
     86 H31        -7.9285   -2.1739  -21.7458 H         1 7LT         0.0557
     87 H32        -6.5510   -0.2774  -24.4765 H         1 7LT         0.0484
     88 H33        -7.6490   -0.2451  -23.0552 H         1 7LT         0.0484
     89 H34        -8.5102   -1.2935  -25.7597 H         1 7LT         0.0900
     90 H35        -9.5374    1.2070  -25.3582 H         1 7LT         0.2019
     91 H36        -7.9075    1.3201  -25.1582 H         1 7LT         0.2019
     92 H37       -10.7546   -0.2194  -24.6515 H         1 7LT         0.0561
     93 H38        -9.8800   -0.7648  -23.1804 H         1 7LT         0.0561
     94 H39       -11.0324   -2.6142  -22.7461 H         1 7LT         0.1883
     95 H40       -13.8008   -6.0156  -26.5439 H         1 7LT         0.0827
     96 H41       -12.6925   -7.3704  -26.9475 H         1 7LT         0.0827
     97 H42       -10.6832   -4.8282  -26.9781 H         1 7LT         0.1858
     98 H43       -10.2335    0.1802  -31.6338 H         1 7LT         0.0486
     99 H44        -9.1671    0.9572  -30.4150 H         1 7LT         0.0486
    100 H45       -10.8746    1.4890  -30.5837 H         1 7LT         0.0486
    101 H46        -8.2860   -5.3247  -30.6953 H         1 7LT         0.0495
    102 H47        -6.9365   -7.0185  -26.2690 H         1 7LT         0.0588
    103 H48        -7.6636   -7.2559  -31.7023 H         1 7LT         0.0449
    104 H49        -7.0443   -8.6635  -30.7741 H         1 7LT         0.0449
    105 H50        -3.7217   -9.3220  -30.9234 H         1 7LT         0.0557
@<TRIPOS>BOND
     1    1    2 1  
     2   47    1 1  
     3    2    3 1  
     4    3   35 1  
     5    4    5 1  
     6   13    4 1  
     7    4   39 1  
     8    5    6 1  
     9    7    6 1  
    10    7    8 ar 
    11   12    7 ar 
    12    8    9 ar 
    13   10    9 ar 
    14   11   10 ar 
    15   12   11 ar 
    16   41   12 1  
    17   13   40 2  
    18   41   13 am 
    19   14   15 1  
    20   17   14 1  
    21   14   45 1  
    22   15   16 1  
    23   16   46 2  
    24   16   47 am 
    25   49   17 1  
    26   49   18 ar 
    27   18   53 ar 
    28   50   19 ar 
    29   19   51 ar 
    30   19   54 1  
    31   20   21 1  
    32   54   20 1  
    33   21   22 ar 
    34   21   55 ar 
    35   22   23 ar 
    36   23   24 ar 
    37   25   24 ar 
    38   55   25 ar 
    39   27   26 1  
    40   28   27 ar 
    41   30   27 ar 
    42   29   28 ar 
    43   32   29 ar 
    44   31   30 ar 
    45   32   31 ar 
    46   33   32 1  
    47   34   33 1  
    48   35   34 1  
    49   34   36 1  
    50   37   36 1  
    51   37   38 2  
    52   39   37 am 
    53   42   41 1  
    54   43   42 1  
    55   43   44 2  
    56   45   43 am 
    57   47   48 1  
    58   49   50 ar 
    59   51   52 1  
    60   51   53 ar 
    61    1   56 1  
    62    1   57 1  
    63    2   58 1  
    64    2   59 1  
    65    3   60 1  
    66    3   61 1  
    67    4   62 1  
    68    5   63 1  
    69    5   64 1  
    70    6   65 1  
    71    6   66 1  
    72    8   67 1  
    73    9   68 1  
    74   10   69 1  
    75   11   70 1  
    76   14   71 1  
    77   15   72 1  
    78   15   73 1  
    79   17   74 1  
    80   17   75 1  
    81   18   76 1  
    82   20   77 1  
    83   20   78 1  
    84   22   79 1  
    85   23   80 1  
    86   24   81 1  
    87   25   82 1  
    88   28   83 1  
    89   29   84 1  
    90   30   85 1  
    91   31   86 1  
    92   33   87 1  
    93   33   88 1  
    94   34   89 1  
    95   35   90 1  
    96   35   91 1  
    97   36   92 1  
    98   36   93 1  
    99   39   94 1  
   100   42   95 1  
   101   42   96 1  
   102   45   97 1  
   103   48   98 1  
   104   48   99 1  
   105   48  100 1  
   106   50  101 1  
   107   53  102 1  
   108   54  103 1  
   109   54  104 1  
   110   55  105 1  
@<TRIPOS>SUBSTRUCTURE
     1 7LT         1

