### 
### Created by X-TOOL on Mon Sep 10 21:13:34 2018
### 

@<TRIPOS>MOLECULE
5mev_ligand
   95    99     1     0     0
SMALL
GAST_HUCK


@<TRIPOS>ATOM
      1 C1         95.7700   34.6930   54.6140 C.3       1 7LW         0.0384
      2 C2         97.2170   34.8790   55.0380 C.3       1 7LW         0.0078
      3 C3         97.4680   35.8610   56.1740 C.3       1 7LW        -0.0313
      4 O4        100.1210   28.0430   60.5640 O.2       1 7LW        -0.1705
      5 O5         99.7610   28.9270   62.8310 O.2       1 7LW        -0.1705
      6 C7         94.5130   30.3120   59.5250 C.3       1 7LW         0.1381
      7 C8         93.8730   29.8100   60.8280 C.3       1 7LW        -0.0042
      8 C9         93.3280   28.3750   60.7100 C.3       1 7LW        -0.0188
      9 C10        94.2300   27.4570   59.9200 C.ar      1 7LW        -0.0205
     10 C11        94.9000   26.4310   60.5800 C.ar      1 7LW        -0.0735
     11 C12        95.7480   25.5790   59.8920 C.ar      1 7LW        -0.0840
     12 C13        95.9500   25.7470   58.5400 C.ar      1 7LW        -0.0825
     13 C14        95.3080   26.7680   57.8590 C.ar      1 7LW        -0.0472
     14 C15        94.4410   27.6160   58.5430 C.ar      1 7LW         0.0742
     15 C16        93.6880   29.9520   58.2840 C.2       1 7LW         0.2322
     16 C19        95.7480   30.3800   54.5070 C.3       1 7LW         0.0682
     17 C20        95.0560   31.7270   54.2960 C.3       1 7LW         0.0622
     18 C21        95.7610   32.5950   53.2740 C.2       1 7LW         0.1806
     19 C22        97.2310   30.5110   54.8910 C.3       1 7LW         0.0063
     20 C24        98.0300   28.8380   56.6070 C.ar      1 7LW        -0.0595
     21 C27        98.9170   27.1300   54.6290 C.ar      1 7LW         0.0477
     22 C30        98.4280   32.8790   59.7590 C.ar      1 7LW        -0.0374
     23 C31        98.1230   32.5820   61.0810 C.ar      1 7LW        -0.0583
     24 C32        98.3820   31.3310   61.6150 C.ar      1 7LW        -0.0437
     25 C33        98.9510   30.3550   60.8130 C.ar      1 7LW         0.0809
     26 C34        99.2610   30.6260   59.4890 C.ar      1 7LW        -0.0437
     27 C35        98.9910   31.8820   58.9730 C.ar      1 7LW        -0.0583
     28 S          99.2860   28.7560   61.4880 S.o2      1 7LW        -0.0088
     29 C36        97.7220   27.9720   61.5500 C.3       1 7LW         0.0587
     30 C29        98.1310   34.2440   59.1860 C.3       1 7LW         0.0262
     31 C4         97.0240   34.2470   58.1210 C.3       1 7LW         0.0038
     32 N1         96.9020   35.5790   57.4980 N.4       1 7LW         0.2323
     33 C5         95.6850   33.8270   58.7280 C.3       1 7LW         0.0821
     34 C6         95.4510   32.3390   58.5800 C.2       1 7LW         0.1838
     35 O          95.8640   31.7230   57.6020 O.2       1 7LW        -0.3967
     36 N2         94.7760   31.7390   59.5670 N.am      1 7LW        -0.2648
     37 O1         93.0110   30.7910   57.7160 O.2       1 7LW        -0.3828
     38 N3         93.7850   28.6680   57.8250 N.am      1 7LW        -0.2019
     39 C17        93.1930   28.3710   56.5230 C.3       1 7LW         0.1426
     40 C18        93.8690   28.9910   55.3110 C.2       1 7LW         0.2046
     41 O2         93.3540   28.9070   54.2000 O.2       1 7LW        -0.3943
     42 N4         95.0340   29.6130   55.5260 N.am      1 7LW        -0.2776
     43 O3         96.4030   32.0820   52.3680 O.2       1 7LW        -0.3968
     44 N          95.6150   33.9350   53.3690 N.am      1 7LW        -0.2760
     45 C          95.3160   34.7140   52.1750 C.3       1 7LW         0.0226
     46 C23        97.8770   29.2030   55.2760 C.ar      1 7LW        -0.0400
     47 C28        98.3260   28.3330   54.2880 C.ar      1 7LW        -0.0458
     48 CL         99.4640   26.0850   53.3570 Cl        1 7LW        -0.0718
     49 C26        99.0670   26.7750   55.9650 C.ar      1 7LW         0.0469
     50 CL1        99.8110   25.2730   56.4180 Cl        1 7LW        -0.0764
     51 C25        98.6190   27.6350   56.9540 C.ar      1 7LW        -0.0541
     52 H1         95.3182   35.6862   54.4747 H         1 7LW         0.0524
     53 H2         95.2391   34.1578   55.4151 H         1 7LW         0.0524
     54 H3         97.7803   35.2306   54.1610 H         1 7LW         0.0336
     55 H4         97.6025   33.8979   55.3523 H         1 7LW         0.0336
     56 H5         97.0674   36.8339   55.8531 H         1 7LW         0.0814
     57 H6         98.5582   35.9367   56.2993 H         1 7LW         0.0814
     58 H7         95.4833   29.8030   59.4284 H         1 7LW         0.0806
     59 H8         93.0424   30.4808   61.0930 H         1 7LW         0.0331
     60 H9         94.6316   29.8335   61.6242 H         1 7LW         0.0331
     61 H10        92.3474   28.4136   60.2130 H         1 7LW         0.0399
     62 H11        93.2099   27.9619   61.7226 H         1 7LW         0.0399
     63 H12        94.7563   26.2970   61.6461 H         1 7LW         0.0513
     64 H13        96.2539   24.7781   60.4189 H         1 7LW         0.0470
     65 H14        96.6145   25.0771   58.0064 H         1 7LW         0.0520
     66 H15        95.4799   26.9063   56.7977 H         1 7LW         0.0480
     67 H16        95.6973   29.8261   53.5580 H         1 7LW         0.0604
     68 H17        95.0313   32.2637   55.2558 H         1 7LW         0.0527
     69 H18        94.0274   31.5437   53.9518 H         1 7LW         0.0527
     70 H19        97.3089   31.2009   55.7442 H         1 7LW         0.0451
     71 H20        97.7765   30.9277   54.0315 H         1 7LW         0.0451
     72 H21        97.6825   29.5062   57.3866 H         1 7LW         0.0559
     73 H22        97.6735   33.3444   61.7069 H         1 7LW         0.0557
     74 H23        98.1420   31.1174   62.6503 H         1 7LW         0.0618
     75 H24        99.7101   29.8623   58.8644 H         1 7LW         0.0618
     76 H25        99.2236   32.0913   57.9351 H         1 7LW         0.0557
     77 H26        97.3412   27.8322   60.5275 H         1 7LW         0.0467
     78 H27        97.0202   28.5983   62.1202 H         1 7LW         0.0467
     79 H28        97.8219   26.9928   62.0411 H         1 7LW         0.0467
     80 H29        99.0519   34.6351   58.7288 H         1 7LW         0.0483
     81 H30        97.8210   34.9047   60.0090 H         1 7LW         0.0483
     82 H31        97.2944   33.5211   57.3400 H         1 7LW         0.0900
     83 H32        95.9150   35.7729   57.4325 H         1 7LW         0.2019
     84 H33        97.3310   36.2314   58.1355 H         1 7LW         0.2019
     85 H34        94.8754   34.3686   58.2170 H         1 7LW         0.0560
     86 H35        95.6808   34.0848   59.7973 H         1 7LW         0.0560
     87 H36        94.4490   32.2795   60.3422 H         1 7LW         0.1883
     88 H37        92.1515   28.7244   56.5414 H         1 7LW         0.0827
     89 H38        93.2074   27.2791   56.3910 H         1 7LW         0.0827
     90 H39        95.4401   29.5494   56.4376 H         1 7LW         0.1858
     91 H40        95.2232   34.0396   51.3109 H         1 7LW         0.0486
     92 H41        96.1284   35.4330   51.9933 H         1 7LW         0.0486
     93 H42        94.3706   35.2575   52.3190 H         1 7LW         0.0486
     94 H43        98.2119   28.5997   53.2435 H         1 7LW         0.0562
     95 H44        98.7296   27.3660   57.9983 H         1 7LW         0.0606
@<TRIPOS>BOND
     1    1    2 1  
     2   44    1 1  
     3    2    3 1  
     4    3   32 1  
     5   28    4 2  
     6   28    5 2  
     7    6    7 1  
     8   15    6 1  
     9    6   36 1  
    10    7    8 1  
    11    9    8 1  
    12    9   10 ar 
    13   14    9 ar 
    14   10   11 ar 
    15   12   11 ar 
    16   13   12 ar 
    17   14   13 ar 
    18   38   14 1  
    19   15   37 2  
    20   38   15 am 
    21   16   17 1  
    22   19   16 1  
    23   16   42 1  
    24   17   18 1  
    25   18   43 2  
    26   18   44 am 
    27   46   19 1  
    28   46   20 ar 
    29   20   51 ar 
    30   47   21 ar 
    31   21   48 1  
    32   21   49 ar 
    33   22   23 ar 
    34   22   27 ar 
    35   30   22 1  
    36   23   24 ar 
    37   24   25 ar 
    38   26   25 ar 
    39   25   28 1  
    40   27   26 ar 
    41   28   29 1  
    42   31   30 1  
    43   32   31 1  
    44   31   33 1  
    45   34   33 1  
    46   34   35 2  
    47   36   34 am 
    48   39   38 1  
    49   40   39 1  
    50   40   41 2  
    51   42   40 am 
    52   44   45 1  
    53   46   47 ar 
    54   49   50 1  
    55   49   51 ar 
    56    1   52 1  
    57    1   53 1  
    58    2   54 1  
    59    2   55 1  
    60    3   56 1  
    61    3   57 1  
    62    6   58 1  
    63    7   59 1  
    64    7   60 1  
    65    8   61 1  
    66    8   62 1  
    67   10   63 1  
    68   11   64 1  
    69   12   65 1  
    70   13   66 1  
    71   16   67 1  
    72   17   68 1  
    73   17   69 1  
    74   19   70 1  
    75   19   71 1  
    76   20   72 1  
    77   23   73 1  
    78   24   74 1  
    79   26   75 1  
    80   27   76 1  
    81   29   77 1  
    82   29   78 1  
    83   29   79 1  
    84   30   80 1  
    85   30   81 1  
    86   31   82 1  
    87   32   83 1  
    88   32   84 1  
    89   33   85 1  
    90   33   86 1  
    91   36   87 1  
    92   39   88 1  
    93   39   89 1  
    94   42   90 1  
    95   45   91 1  
    96   45   92 1  
    97   45   93 1  
    98   47   94 1  
    99   51   95 1  
@<TRIPOS>SUBSTRUCTURE
     1 7LW         1

