### 
### Created by X-TOOL on Mon Sep 10 21:13:28 2018
### 

@<TRIPOS>MOLECULE
5mf6_ligand
   32    35     1     0     0
SMALL
GAST_HUCK


@<TRIPOS>ATOM
      1 N18       116.8690   22.8820  -24.3280 N.ar      1 7M2        -0.3041
      2 C19       116.6650   24.1250  -23.9850 C.ar      1 7M2         0.0165
      3 C17       116.2700   21.9310  -23.5820 C.ar      1 7M2         0.0042
      4 C16       115.3940   22.2320  -22.5560 C.ar      1 7M2        -0.0402
      5 C15       115.1890   23.5540  -22.2320 C.ar      1 7M2        -0.0365
      6 C14       115.8340   24.5390  -22.9720 C.ar      1 7M2         0.0212
      7 C02       115.7470   26.0310  -22.6800 C.3       1 7M2         0.1265
      8 N01       114.8610   26.6890  -23.6380 N.pl3     1 7M2        -0.2966
      9 C03       115.2700   26.3550  -21.2770 C.2       1 7M2         0.0829
     10 C13       114.5890   28.0320  -23.4530 C.ar      1 7M2         0.0783
     11 C08       114.4940   28.5400  -22.1450 C.ar      1 7M2         0.1124
     12 N07       114.7090   27.6220  -21.0780 N.pl3     1 7M2        -0.2393
     13 C09       114.2450   29.9090  -21.9340 C.ar      1 7M2        -0.0384
     14 C06       114.4040   27.7500  -19.7250 C.2       1 7M2         0.0176
     15 C05       114.7830   26.5990  -19.0840 C.2       1 7M2        -0.0958
     16 C04       115.3920   25.7540  -20.0470 C.2       1 7M2        -0.0818
     17 C10       114.0660   30.7470  -23.0270 C.ar      1 7M2        -0.0793
     18 C11       114.1520   30.2350  -24.3400 C.ar      1 7M2        -0.0806
     19 C12       114.4080   28.8820  -24.5480 C.ar      1 7M2        -0.0475
     20 H1        117.1924   24.8903  -24.5429 H         1 7M2         0.0769
     21 H2        116.4840   20.8900  -23.7955 H         1 7M2         0.0767
     22 H3        114.8795   21.4439  -22.0181 H         1 7M2         0.0693
     23 H4        114.5339   23.8235  -21.4115 H         1 7M2         0.0681
     24 H5        116.7578   26.4490  -22.7962 H         1 7M2         0.0895
     25 H6        114.4517   26.1683  -24.4268 H         1 7M2         0.1795
     26 H7        114.1933   30.3061  -20.9267 H         1 7M2         0.0546
     27 H8        113.9425   28.6176  -19.2557 H         1 7M2         0.0719
     28 H9        114.6422   26.3743  -18.0278 H         1 7M2         0.0251
     29 H10       115.8719   24.7972  -19.8469 H         1 7M2         0.0186
     30 H11       113.8592   31.7996  -22.8712 H         1 7M2         0.0488
     31 H12       114.0184   30.8967  -25.1882 H         1 7M2         0.0524
     32 H13       114.4668   28.4889  -25.5565 H         1 7M2         0.0493
@<TRIPOS>BOND
     1    1    2 ar 
     2    1    3 ar 
     3    2    6 ar 
     4    3    4 ar 
     5    4    5 ar 
     6    5    6 ar 
     7    6    7 1  
     8    7    8 1  
     9    7    9 1  
    10    8   10 1  
    11    9   12 1  
    12    9   16 2  
    13   10   11 ar 
    14   10   19 ar 
    15   11   12 1  
    16   11   13 ar 
    17   12   14 1  
    18   13   17 ar 
    19   14   15 2  
    20   15   16 1  
    21   17   18 ar 
    22   18   19 ar 
    23    2   20 1  
    24    3   21 1  
    25    4   22 1  
    26    5   23 1  
    27    7   24 1  
    28    8   25 1  
    29   13   26 1  
    30   14   27 1  
    31   15   28 1  
    32   16   29 1  
    33   17   30 1  
    34   18   31 1  
    35   19   32 1  
@<TRIPOS>SUBSTRUCTURE
     1 7M2         1

