### 
### Created by X-TOOL on Mon Sep 10 21:13:30 2018
### 

@<TRIPOS>MOLECULE
5mfr_ligand
   30    31     1     0     0
SMALL
GAST_HUCK


@<TRIPOS>ATOM
      1 C1        -66.0720   16.0670   -6.6630 C.ar      1 7MK        -0.0667
      2 C10       -65.5540   19.2360   -9.6890 C.3       1 7MK         0.0041
      3 C11       -64.5130   19.8330   -8.7400 C.3       1 7MK         0.0340
      4 C2        -67.5880   15.2530   -8.3220 C.ar      1 7MK        -0.0755
      5 C3        -66.8030   15.0270   -7.2140 C.ar      1 7MK        -0.0755
      6 C4        -66.1060   17.3390   -7.2230 C.ar      1 7MK        -0.0357
      7 C5        -66.8980   17.5660   -8.3450 C.ar      1 7MK        -0.0406
      8 C6        -67.6450   16.5200   -8.8750 C.ar      1 7MK        -0.0669
      9 C7        -65.2980   18.4670   -6.6250 C.3       1 7MK         0.0381
     10 C8        -66.8910   18.9190   -9.0120 C.3       1 7MK        -0.0164
     11 C9        -64.1350   18.9670   -7.4680 C.3       1 7MK         0.2180
     12 N1        -63.2610   20.1560   -9.4790 N.4       1 7MK         0.2248
     13 O1        -63.2510   19.7400   -6.6940 O.3       1 7MK        -0.3591
     14 O2        -63.3050   17.9500   -7.9270 O.3       1 7MK        -0.3591
     15 H1        -65.4652   15.8864   -5.7831 H         1 7MK         0.0537
     16 H2        -65.1476   18.3042  -10.1093 H         1 7MK         0.0342
     17 H3        -65.7373   19.9552  -10.5009 H         1 7MK         0.0342
     18 H4        -64.9391   20.7757   -8.3661 H         1 7MK         0.0907
     19 H5        -68.1590   14.4419   -8.7593 H         1 7MK         0.0541
     20 H6        -66.7569   14.0376   -6.7736 H         1 7MK         0.0541
     21 H7        -68.2813   16.6997   -9.7340 H         1 7MK         0.0537
     22 H8        -64.8928   18.1191   -5.6634 H         1 7MK         0.0466
     23 H9        -65.9778   19.3142   -6.4515 H         1 7MK         0.0466
     24 H10       -67.6849   18.9405   -9.7730 H         1 7MK         0.0413
     25 H11       -67.0915   19.6877   -8.2511 H         1 7MK         0.0413
     26 H12       -63.4839   20.7076  -10.2927 H         1 7MK         0.1999
     27 H13       -62.8101   19.3013   -9.7658 H         1 7MK         0.1999
     28 H14       -62.6416   20.6777   -8.8788 H         1 7MK         0.1999
     29 H15       -62.5438   20.0561   -7.2440 H         1 7MK         0.2131
     30 H16       -63.8065   17.3553   -8.4723 H         1 7MK         0.2131
@<TRIPOS>BOND
     1    1    5 ar 
     2    6    1 ar 
     3    2    3 1  
     4   10    2 1  
     5    3   11 1  
     6    3   12 1  
     7    4    5 ar 
     8    8    4 ar 
     9    7    6 ar 
    10    6    9 1  
    11    7    8 ar 
    12    7   10 1  
    13    9   11 1  
    14   11   13 1  
    15   11   14 1  
    16    1   15 1  
    17    2   16 1  
    18    2   17 1  
    19    3   18 1  
    20    4   19 1  
    21    5   20 1  
    22    8   21 1  
    23    9   22 1  
    24    9   23 1  
    25   10   24 1  
    26   10   25 1  
    27   12   26 1  
    28   12   27 1  
    29   12   28 1  
    30   13   29 1  
    31   14   30 1  
@<TRIPOS>SUBSTRUCTURE
     1 7MK         1

