### 
### Created by X-TOOL on Mon Sep 10 21:13:30 2018
### 

@<TRIPOS>MOLECULE
5mfs_ligand
   40    42     1     0     0
SMALL
GAST_HUCK


@<TRIPOS>ATOM
      1 C1        -65.6710   16.8700   -4.0060 C.ar      1 7ML        -0.0560
      2 C10       -66.1820   17.3720   -7.0340 C.ar      1 7ML        -0.0266
      3 C11       -66.9270   17.5240   -8.2070 C.ar      1 7ML        -0.0394
      4 C12       -67.6360   16.4360   -8.7080 C.ar      1 7ML        -0.0664
      5 C13       -65.3370   18.5760   -6.5650 C.3       1 7ML         0.0394
      6 C14       -66.9540   18.8610   -8.9100 C.3       1 7ML        -0.0163
      7 C15       -64.1630   18.9530   -7.4440 C.3       1 7ML         0.2183
      8 C16       -65.6300   19.1450   -9.6280 C.3       1 7ML         0.0041
      9 C17       -64.5610   19.7580   -8.7190 C.3       1 7ML         0.0341
     10 C2        -64.9860   16.7330   -2.8140 C.ar      1 7ML        -0.0624
     11 C3        -64.0940   15.6990   -2.6370 C.ar      1 7ML        -0.0628
     12 C4        -63.9090   14.7830   -3.6370 C.ar      1 7ML        -0.0624
     13 C5        -64.5830   14.9190   -4.8390 C.ar      1 7ML        -0.0560
     14 C6        -65.4590   15.9800   -5.0510 C.ar      1 7ML        -0.0232
     15 C7        -66.1720   16.1460   -6.3510 C.ar      1 7ML        -0.0216
     16 C8        -67.6050   15.2120   -8.0580 C.ar      1 7ML        -0.0744
     17 C9        -66.8960   15.0680   -6.8740 C.ar      1 7ML        -0.0669
     18 N1        -63.3360   20.0410   -9.5700 N.4       1 7ML         0.2248
     19 O1        -63.2690   19.7500   -6.6910 O.3       1 7ML        -0.3590
     20 O2        -63.4620   17.8370   -7.9200 O.3       1 7ML        -0.3590
     21 H1        -66.3810   17.6802   -4.1268 H         1 7ML         0.0613
     22 H2        -68.2183   16.5469   -9.6156 H         1 7ML         0.0541
     23 H3        -64.9450   18.3412   -5.5644 H         1 7ML         0.0472
     24 H4        -66.0030   19.4492   -6.5023 H         1 7ML         0.0472
     25 H5        -67.1345   19.6519   -8.1671 H         1 7ML         0.0412
     26 H6        -67.7684   18.8597   -9.6494 H         1 7ML         0.0412
     27 H7        -65.8254   19.8431  -10.4553 H         1 7ML         0.0342
     28 H8        -65.2425   18.1978  -10.0312 H         1 7ML         0.0342
     29 H9        -64.9603   20.7195   -8.3638 H         1 7ML         0.0907
     30 H10       -65.1518   17.4441   -2.0129 H         1 7ML         0.0615
     31 H11       -63.5404   15.6108   -1.7092 H         1 7ML         0.0609
     32 H12       -63.2331   13.9488   -3.4877 H         1 7ML         0.0615
     33 H13       -64.4264   14.1895   -5.6254 H         1 7ML         0.0613
     34 H14       -68.1363   14.3647   -8.4760 H         1 7ML         0.0544
     35 H15       -66.9027   14.1178   -6.3523 H         1 7ML         0.0549
     36 H16       -62.6140   20.4464   -8.9952 H         1 7ML         0.1999
     37 H17       -63.5799   20.6844  -10.3066 H         1 7ML         0.1999
     38 H18       -63.0008   19.1801   -9.9732 H         1 7ML         0.1999
     39 H19       -62.5501   20.0283   -7.2462 H         1 7ML         0.2131
     40 H20       -64.0483   17.2896   -8.4290 H         1 7ML         0.2131
@<TRIPOS>BOND
     1    1   10 ar 
     2   14    1 ar 
     3    2    3 ar 
     4    2    5 1  
     5   15    2 ar 
     6    3    4 ar 
     7    3    6 1  
     8    4   16 ar 
     9    5    7 1  
    10    6    8 1  
    11    7    9 1  
    12    7   19 1  
    13    7   20 1  
    14    9    8 1  
    15    9   18 1  
    16   10   11 ar 
    17   12   11 ar 
    18   13   12 ar 
    19   14   13 ar 
    20   14   15 1  
    21   15   17 ar 
    22   16   17 ar 
    23    1   21 1  
    24    4   22 1  
    25    5   23 1  
    26    5   24 1  
    27    6   25 1  
    28    6   26 1  
    29    8   27 1  
    30    8   28 1  
    31    9   29 1  
    32   10   30 1  
    33   11   31 1  
    34   12   32 1  
    35   13   33 1  
    36   16   34 1  
    37   17   35 1  
    38   18   36 1  
    39   18   37 1  
    40   18   38 1  
    41   19   39 1  
    42   20   40 1  
@<TRIPOS>SUBSTRUCTURE
     1 7ML         1

