### 
### Created by X-TOOL on Mon Sep 10 21:13:30 2018
### 

@<TRIPOS>MOLECULE
5mft_ligand
   40    42     1     0     0
SMALL
GAST_HUCK


@<TRIPOS>ATOM
      1 C10       -63.5190   15.5730   -2.5640 C.ar      1 7MF        -0.0628
      2 O2        -63.2650   17.8810   -7.8970 O.3       1 7MF        -0.3590
      3 C11       -63.5440   14.6390   -3.5560 C.ar      1 7MF        -0.0624
      4 C12       -64.3020   14.8530   -4.6930 C.ar      1 7MF        -0.0560
      5 C15       -65.5200   19.1270   -9.4320 C.3       1 7MF         0.0041
      6 C13       -66.7940   18.8780   -8.6260 C.3       1 7MF        -0.0163
      7 C14       -65.0260   18.5570   -6.4070 C.3       1 7MF         0.0394
      8 O1        -62.9750   19.7600   -6.6940 O.3       1 7MF        -0.3590
      9 C16       -63.9340   18.9800   -7.3740 C.3       1 7MF         0.2183
     10 C17       -64.4270   19.8200   -8.6200 C.3       1 7MF         0.0341
     11 C1        -67.5890   16.4920   -8.2310 C.ar      1 7MF        -0.0664
     12 C2        -67.5540   15.2850   -7.5560 C.ar      1 7MF        -0.0744
     13 C3        -66.7290   15.1370   -6.4660 C.ar      1 7MF        -0.0669
     14 C4        -65.9190   16.1970   -6.0490 C.ar      1 7MF        -0.0216
     15 C5        -65.9210   17.3930   -6.7840 C.ar      1 7MF        -0.0266
     16 C6        -66.7710   17.5610   -7.8840 C.ar      1 7MF        -0.0394
     17 C7        -65.0780   15.9950   -4.8320 C.ar      1 7MF        -0.0232
     18 C8        -65.1030   16.8960   -3.7760 C.ar      1 7MF        -0.0560
     19 C9        -64.3210   16.6840   -2.6550 C.ar      1 7MF        -0.0624
     20 N1        -63.2610   20.0150   -9.5190 N.4       1 7MF         0.2248
     21 H1        -62.8689   15.4396   -1.7069 H         1 7MF         0.0609
     22 H2        -63.8813   17.3295   -8.3645 H         1 7MF         0.2131
     23 H3        -62.9684   13.7261   -3.4538 H         1 7MF         0.0615
     24 H4        -64.2897   14.1167   -5.4884 H         1 7MF         0.0613
     25 H5        -65.7697   19.7602  -10.2961 H         1 7MF         0.0342
     26 H6        -65.1340   18.1596   -9.7857 H         1 7MF         0.0342
     27 H7        -67.6513   18.8779   -9.3152 H         1 7MF         0.0412
     28 H8        -66.9115   19.6912   -7.8946 H         1 7MF         0.0412
     29 H9        -65.6776   19.4296   -6.2525 H         1 7MF         0.0472
     30 H10       -64.5347   18.2937   -5.4587 H         1 7MF         0.0472
     31 H11       -62.3015   20.0353   -7.3049 H         1 7MF         0.2131
     32 H12       -64.8035   20.7923   -8.2693 H         1 7MF         0.0907
     33 H13       -68.2784   16.6082   -9.0594 H         1 7MF         0.0541
     34 H14       -68.1744   14.4593   -7.8850 H         1 7MF         0.0544
     35 H15       -66.7067   14.1958   -5.9287 H         1 7MF         0.0549
     36 H16       -65.7397   17.7716   -3.8304 H         1 7MF         0.0613
     37 H17       -64.3414   17.4005   -1.8418 H         1 7MF         0.0615
     38 H18       -63.5443   20.5491  -10.3256 H         1 7MF         0.1999
     39 H19       -62.9120   19.1173   -9.8162 H         1 7MF         0.1999
     40 H20       -62.5354   20.5111   -9.0255 H         1 7MF         0.1999
@<TRIPOS>BOND
     1    3    1 ar 
     2    1   19 ar 
     3    9    2 1  
     4    4    3 ar 
     5   17    4 ar 
     6    5    6 1  
     7   10    5 1  
     8   16    6 1  
     9    7    9 1  
    10   15    7 1  
    11    9    8 1  
    12    9   10 1  
    13   10   20 1  
    14   12   11 ar 
    15   11   16 ar 
    16   13   12 ar 
    17   14   13 ar 
    18   14   15 ar 
    19   14   17 1  
    20   15   16 ar 
    21   17   18 ar 
    22   18   19 ar 
    23    1   21 1  
    24    2   22 1  
    25    3   23 1  
    26    4   24 1  
    27    5   25 1  
    28    5   26 1  
    29    6   27 1  
    30    6   28 1  
    31    7   29 1  
    32    7   30 1  
    33    8   31 1  
    34   10   32 1  
    35   11   33 1  
    36   12   34 1  
    37   13   35 1  
    38   18   36 1  
    39   19   37 1  
    40   20   38 1  
    41   20   39 1  
    42   20   40 1  
@<TRIPOS>SUBSTRUCTURE
     1 7MF         1

