### 
### Created by X-TOOL on Mon Sep 10 21:13:32 2018
### 

@<TRIPOS>MOLECULE
5mge_ligand
   26    26     1     0     0
SMALL
GAST_HUCK


@<TRIPOS>ATOM
      1 C01       -30.9930  -11.8920    0.1160 C.3       1 7MX        -0.0373
      2 C02       -30.3260  -10.6490    0.6630 C.3       1 7MX         0.0722
      3 O03       -29.0790  -10.5030    0.0280 O.3       1 7MX        -0.2814
      4 C04       -28.6350   -9.1840   -0.1150 C.2       1 7MX         0.2483
      5 O05       -29.3880   -8.3460   -0.5750 O.2       1 7MX        -0.3683
      6 C06       -27.1960   -8.8640    0.2400 C.2       1 7MX         0.0655
      7 C07       -26.2420  -10.0220    0.3860 C.3       1 7MX         0.0679
      8 N08       -24.8430   -9.7750    0.7080 N.am      1 7MX        -0.2662
      9 C09       -23.9420  -10.8720    0.8460 C.3       1 7MX         0.0245
     10 C10       -24.3540   -8.4170    0.8860 C.2       1 7MX         0.1913
     11 O11       -23.1830   -8.2380    1.1490 O.2       1 7MX        -0.3935
     12 C12       -25.2910   -7.2400    0.7350 C.3       1 7MX         0.0777
     13 C13       -26.7030   -7.4840    0.4120 C.2       1 7MX         0.0566
     14 CL        -27.7720   -6.1160    0.2490 Cl        1 7MX        -0.0637
     15 H1        -31.9718  -12.0259    0.5997 H         1 7MX         0.0255
     16 H2        -30.3600  -12.7680    0.3206 H         1 7MX         0.0255
     17 H3        -31.1322  -11.7858   -0.9700 H         1 7MX         0.0255
     18 H4        -30.1812  -10.7513    1.7486 H         1 7MX         0.0607
     19 H5        -30.9534   -9.7690    0.4580 H         1 7MX         0.0607
     20 H6        -26.2568  -10.5683   -0.5686 H         1 7MX         0.0648
     21 H7        -26.6428  -10.6655    1.1830 H         1 7MX         0.0648
     22 H8        -22.9380  -10.4936    1.0882 H         1 7MX         0.0488
     23 H9        -23.9035  -11.4358   -0.0977 H         1 7MX         0.0488
     24 H10       -24.2896  -11.5326    1.6539 H         1 7MX         0.0488
     25 H11       -24.8834   -6.6055   -0.0658 H         1 7MX         0.0663
     26 H12       -25.2699   -6.6884    1.6865 H         1 7MX         0.0663
@<TRIPOS>BOND
     1    1    2 1  
     2    2    3 1  
     3    3    4 1  
     4    4    5 2  
     5    4    6 1  
     6    6    7 1  
     7    6   13 2  
     8    7    8 1  
     9    8    9 1  
    10    8   10 am 
    11   10   11 2  
    12   10   12 1  
    13   12   13 1  
    14   13   14 1  
    15    1   15 1  
    16    1   16 1  
    17    1   17 1  
    18    2   18 1  
    19    2   19 1  
    20    7   20 1  
    21    7   21 1  
    22    9   22 1  
    23    9   23 1  
    24    9   24 1  
    25   12   25 1  
    26   12   26 1  
@<TRIPOS>SUBSTRUCTURE
     1 7MX         1

