### 
### Created by X-TOOL on Mon Sep 10 21:13:31 2018
### 

@<TRIPOS>MOLECULE
5mgf_ligand
   24    24     1     0     0
SMALL
GAST_HUCK


@<TRIPOS>ATOM
      1 C01       -31.7190   -4.3140    1.2220 C.3       1 7MW        -0.0503
      2 C02       -30.4240   -4.8940    1.7480 C.3       1 7MW         0.0146
      3 C03       -29.8730   -6.0290    0.8470 C.2       1 7MW         0.1097
      4 O04       -30.5450   -6.4820   -0.0760 O.2       1 7MW        -0.3934
      5 C05       -28.4850   -6.5550    1.1200 C.2       1 7MW         0.0236
      6 C06       -27.6180   -6.0120    2.0460 C.2       1 7MW         0.0474
      7 N07       -26.5050   -6.7360    2.0000 N.pl3     1 7MW        -0.2693
      8 C08       -26.6130   -7.7160    1.0960 C.2       1 7MW         0.1412
      9 C09       -27.8670   -7.6180    0.5280 C.2       1 7MW        -0.0411
     10 C10       -25.5130   -8.7400    0.7810 C.2       1 7MW         0.2751
     11 O11       -24.3630   -8.5140    1.1770 O.2       1 7MW        -0.3645
     12 O12       -25.8440  -10.0240    0.2260 O.3       1 7MW        -0.2822
     13 C13       -24.8420  -11.0130    0.4000 C.3       1 7MW         0.0642
     14 H1        -32.0641   -3.5163    1.8963 H         1 7MW         0.0253
     15 H2        -32.4811   -5.1056    1.1703 H         1 7MW         0.0253
     16 H3        -31.5532   -3.8984    0.2171 H         1 7MW         0.0253
     17 H4        -30.6019   -5.2982    2.7554 H         1 7MW         0.0477
     18 H5        -29.6741   -4.0911    1.8022 H         1 7MW         0.0477
     19 H6        -27.8092   -5.1551    2.6903 H         1 7MW         0.0999
     20 H7        -25.6720   -6.5658    2.5815 H         1 7MW         0.2398
     21 H8        -28.2830   -8.2642   -0.2436 H         1 7MW         0.0418
     22 H9        -25.1772  -11.9580   -0.0523 H         1 7MW         0.0574
     23 H10       -24.6594  -11.1650    1.4740 H         1 7MW         0.0574
     24 H11       -23.9125  -10.6829   -0.0869 H         1 7MW         0.0574
@<TRIPOS>BOND
     1    1    2 1  
     2    2    3 1  
     3    3    4 2  
     4    3    5 1  
     5    5    6 2  
     6    5    9 1  
     7    6    7 1  
     8    7    8 1  
     9    8    9 2  
    10    8   10 1  
    11   10   11 2  
    12   10   12 1  
    13   12   13 1  
    14    1   14 1  
    15    1   15 1  
    16    1   16 1  
    17    2   17 1  
    18    2   18 1  
    19    6   19 1  
    20    7   20 1  
    21    9   21 1  
    22   13   22 1  
    23   13   23 1  
    24   13   24 1  
@<TRIPOS>SUBSTRUCTURE
     1 7MW         1

