### 
### Created by X-TOOL on Mon Sep 10 21:13:32 2018
### 

@<TRIPOS>MOLECULE
5mgg_ligand
   18    18     1     0     0
SMALL
GAST_HUCK


@<TRIPOS>ATOM
      1 C01        24.5190   11.2640    0.6300 C.3       1 7MU         0.0193
      2 N02        25.5690   10.3460    0.6390 N.am      1 7MU        -0.2872
      3 C03        25.3240    9.0020    1.0010 C.2       1 7MU         0.2236
      4 O04        24.2180    8.6570    1.3290 O.2       1 7MU        -0.3789
      5 C05        26.5010    8.0890    1.0080 C.ar      1 7MU         0.1226
      6 N06        27.5000    8.4100    0.2400 N.ar      1 7MU        -0.2763
      7 C07        28.5960    7.6840    0.2050 C.ar      1 7MU         0.0170
      8 C08        28.7230    6.5620    0.9800 C.ar      1 7MU        -0.0156
      9 C09        27.6770    6.1990    1.8180 C.ar      1 7MU         0.0663
     10 C10        26.5370    6.9990    1.8290 C.ar      1 7MU         0.0002
     11 CL         27.7970    4.8140    2.8200 Cl        1 7MU        -0.0563
     12 H1         24.8974   12.2509    0.3253 H         1 7MU         0.0484
     13 H2         24.0839   11.3334    1.6379 H         1 7MU         0.0484
     14 H3         23.7476   10.9319   -0.0804 H         1 7MU         0.0484
     15 H4         26.4925   10.6379    0.3900 H         1 7MU         0.1844
     16 H5         29.4108    7.9779   -0.4468 H         1 7MU         0.0840
     17 H6         29.6274    5.9657    0.9398 H         1 7MU         0.0748
     18 H7         25.6986    6.7618    2.4739 H         1 7MU         0.0769
@<TRIPOS>BOND
     1    1    2 1  
     2    2    3 am 
     3    3    4 2  
     4    3    5 1  
     5    5    6 ar 
     6    5   10 ar 
     7    6    7 ar 
     8    7    8 ar 
     9    8    9 ar 
    10    9   10 ar 
    11    9   11 1  
    12    1   12 1  
    13    1   13 1  
    14    1   14 1  
    15    2   15 1  
    16    7   16 1  
    17    8   17 1  
    18   10   18 1  
@<TRIPOS>SUBSTRUCTURE
     1 7MU         1

