### 
### Created by X-TOOL on Mon Sep 10 21:13:32 2018
### 

@<TRIPOS>MOLECULE
5mgj_ligand
   26    26     1     0     0
SMALL
GAST_HUCK


@<TRIPOS>ATOM
      1 C01        40.8260  -38.6850   30.3100 C.3       1 7MX        -0.0373
      2 C02        40.2420  -39.7550   29.4310 C.3       1 7MX         0.0722
      3 O03        38.8550  -39.7820   29.6700 O.3       1 7MX        -0.2814
      4 C04        38.1540  -40.6310   28.8130 C.2       1 7MX         0.2483
      5 O05        38.7740  -41.5130   28.2690 O.2       1 7MX        -0.3683
      6 C06        36.6660  -40.4150   28.5800 C.2       1 7MX         0.0655
      7 C07        36.0610  -39.1290   29.0780 C.3       1 7MX         0.0679
      8 N08        34.6400  -38.8610   28.8780 N.am      1 7MX        -0.2662
      9 C09        34.0900  -37.6440   29.3520 C.3       1 7MX         0.0245
     10 C10        33.7880  -39.8270   28.1840 C.2       1 7MX         0.1913
     11 O11        32.6100  -39.5880   28.0220 O.2       1 7MX        -0.3935
     12 C12        34.3780  -41.1170   27.6770 C.3       1 7MX         0.0777
     13 C13        35.8150  -41.4000   27.8760 C.2       1 7MX         0.0566
     14 CL         36.4720  -42.9060   27.2790 Cl        1 7MX        -0.0637
     15 H1         41.9132  -38.6330   30.1512 H         1 7MX         0.0255
     16 H2         40.6204  -38.9236   31.3639 H         1 7MX         0.0255
     17 H3         40.3719  -37.7153   30.0582 H         1 7MX         0.0255
     18 H4         40.6859  -40.7303   29.6796 H         1 7MX         0.0607
     19 H5         40.4373  -39.5220   28.3739 H         1 7MX         0.0607
     20 H6         36.6095  -38.3106   28.5888 H         1 7MX         0.0648
     21 H7         36.2403  -39.0937   30.1627 H         1 7MX         0.0648
     22 H8         33.0159  -37.6109   29.1169 H         1 7MX         0.0488
     23 H9         34.5980  -36.7981   28.8658 H         1 7MX         0.0488
     24 H10        34.2291  -37.5784   30.4412 H         1 7MX         0.0488
     25 H11        34.1959  -41.1451   26.5926 H         1 7MX         0.0663
     26 H12        33.8232  -41.9329   28.1633 H         1 7MX         0.0663
@<TRIPOS>BOND
     1    1    2 1  
     2    2    3 1  
     3    3    4 1  
     4    4    5 2  
     5    4    6 1  
     6    6    7 1  
     7    6   13 2  
     8    7    8 1  
     9    8    9 1  
    10    8   10 am 
    11   10   11 2  
    12   10   12 1  
    13   12   13 1  
    14   13   14 1  
    15    1   15 1  
    16    1   16 1  
    17    1   17 1  
    18    2   18 1  
    19    2   19 1  
    20    7   20 1  
    21    7   21 1  
    22    9   22 1  
    23    9   23 1  
    24    9   24 1  
    25   12   25 1  
    26   12   26 1  
@<TRIPOS>SUBSTRUCTURE
     1 7MX         1

