### 
### Created by X-TOOL on Mon Sep 10 21:13:33 2018
### 

@<TRIPOS>MOLECULE
5mgk_ligand
   24    24     1     0     0
SMALL
GAST_HUCK


@<TRIPOS>ATOM
      1 C01      -105.3940   37.0360   25.5320 C.3       1 7MW        -0.0503
      2 C02      -105.4340   38.0760   26.6280 C.3       1 7MW         0.0146
      3 C03      -106.8210   38.6430   26.8150 C.2       1 7MW         0.1097
      4 O04      -107.7990   37.9840   26.5260 O.2       1 7MW        -0.3934
      5 C05      -106.9740   40.0380   27.3680 C.2       1 7MW         0.0236
      6 C06      -105.9320   40.8890   27.6860 C.2       1 7MW         0.0474
      7 N07      -106.4740   42.0260   28.1450 N.pl3     1 7MW        -0.2693
      8 C08      -107.8150   41.9410   28.1320 C.2       1 7MW         0.1412
      9 C09      -108.1580   40.6920   27.6470 C.2       1 7MW        -0.0411
     10 C10      -108.7610   43.0270   28.5820 C.2       1 7MW         0.2751
     11 O11      -109.9180   43.0230   28.2150 O.2       1 7MW        -0.3645
     12 O12      -108.2810   44.0330   29.4360 O.3       1 7MW        -0.2822
     13 C13      -109.0520   45.2120   29.4430 C.3       1 7MW         0.0642
     14 H1       -104.3689   36.6505   25.4296 H         1 7MW         0.0253
     15 H2       -105.7109   37.4917   24.5823 H         1 7MW         0.0253
     16 H3       -106.0730   36.2088   25.7864 H         1 7MW         0.0253
     17 H4       -104.7473   38.8947   26.3668 H         1 7MW         0.0477
     18 H5       -105.1094   37.6118   27.5709 H         1 7MW         0.0477
     19 H6       -104.8691   40.6756   27.5829 H         1 7MW         0.0999
     20 H7       -105.9391   42.8471   28.4622 H         1 7MW         0.2398
     21 H8       -109.1652   40.3006   27.5115 H         1 7MW         0.0418
     22 H9       -108.6036   45.9392   30.1359 H         1 7MW         0.0574
     23 H10      -110.0763   44.9784   29.7690 H         1 7MW         0.0574
     24 H11      -109.0781   45.6391   28.4296 H         1 7MW         0.0574
@<TRIPOS>BOND
     1    1    2 1  
     2    2    3 1  
     3    3    4 2  
     4    3    5 1  
     5    5    6 2  
     6    5    9 1  
     7    6    7 1  
     8    7    8 1  
     9    8    9 2  
    10    8   10 1  
    11   10   11 2  
    12   10   12 1  
    13   12   13 1  
    14    1   14 1  
    15    1   15 1  
    16    1   16 1  
    17    2   17 1  
    18    2   18 1  
    19    6   19 1  
    20    7   20 1  
    21    9   21 1  
    22   13   22 1  
    23   13   23 1  
    24   13   24 1  
@<TRIPOS>SUBSTRUCTURE
     1 7MW         1

