### 
### Created by X-TOOL on Mon Sep 10 21:13:34 2018
### 

@<TRIPOS>MOLECULE
5mgl_ligand
   18    18     1     0     0
SMALL
GAST_HUCK


@<TRIPOS>ATOM
      1 C01        61.4050   37.9850   -3.2700 C.3       1 7MU         0.0193
      2 N02        60.5610   39.0450   -3.6690 N.am      1 7MU        -0.2872
      3 C03        61.0910   40.0920   -4.5070 C.2       1 7MU         0.2236
      4 O04        62.2640   40.0530   -4.8620 O.2       1 7MU        -0.3789
      5 C05        60.1720   41.2170   -4.9270 C.ar      1 7MU         0.1226
      6 N06        58.8780   40.9400   -5.0170 N.ar      1 7MU        -0.2763
      7 C07        57.9860   41.8470   -5.3750 C.ar      1 7MU         0.0170
      8 C08        58.4050   43.1320   -5.6670 C.ar      1 7MU        -0.0156
      9 C09        59.7740   43.4730   -5.5840 C.ar      1 7MU         0.0663
     10 C10        60.6880   42.4730   -5.2000 C.ar      1 7MU         0.0002
     11 CL         60.3070   45.0930   -5.9510 Cl        1 7MU        -0.0563
     12 H1         60.8392   37.2832   -2.6397 H         1 7MU         0.0484
     13 H2         62.2544   38.3877   -2.6988 H         1 7MU         0.0484
     14 H3         61.7786   37.4586   -4.1607 H         1 7MU         0.0484
     15 H4         59.6060   39.0691   -3.3734 H         1 7MU         0.1844
     16 H5         56.9358   41.5861   -5.4391 H         1 7MU         0.0840
     17 H6         57.6795   43.8818   -5.9611 H         1 7MU         0.0748
     18 H7         61.7497   42.6774   -5.1214 H         1 7MU         0.0769
@<TRIPOS>BOND
     1    1    2 1  
     2    2    3 am 
     3    3    4 2  
     4    3    5 1  
     5    5    6 ar 
     6    5   10 ar 
     7    6    7 ar 
     8    7    8 ar 
     9    8    9 ar 
    10    9   10 ar 
    11    9   11 1  
    12    1   12 1  
    13    1   13 1  
    14    1   14 1  
    15    2   15 1  
    16    7   16 1  
    17    8   17 1  
    18   10   18 1  
@<TRIPOS>SUBSTRUCTURE
     1 7MU         1

