### 
### Created by X-TOOL on Mon Sep 10 21:13:33 2018
### 

@<TRIPOS>MOLECULE
5mhp_ligand
   76    81     1     0     0
SMALL
GAST_HUCK


@<TRIPOS>ATOM
      1 CAA        96.9960    5.9520   34.7140 C.3       1 7NB         0.0620
      2 CAB        95.9630    5.0920   35.4190 C.3       1 7NB         0.0957
      3 OAE        95.4360    5.7130   36.6010 O.3       1 7NB        -0.3878
      4 CAC        97.0660    4.0960   35.7170 C.3       1 7NB         0.0620
      5 NAD        98.0620    4.9840   35.0710 N.am      1 7NB        -0.2638
      6 C          99.3900    4.9250   34.8890 C.2       1 7NB         0.2242
      7 O         100.0920    3.9950   35.2840 O.2       1 7NB        -0.3910
      8 CA        100.0100    6.1080   34.1420 C.3       1 7NB         0.0582
      9 N         100.6130    5.6430   32.8830 N.4       1 7NB         0.2547
     10 CAN       101.4920    6.6810   32.3360 C.3       1 7NB        -0.0105
     11 CAM       102.3390    6.0720   31.2340 C.3       1 7NB         0.0636
     12 CAJ        99.5770    5.3850   31.8730 C.3       1 7NB        -0.0105
     13 CAK       100.1690    4.8250   30.5870 C.3       1 7NB         0.0636
     14 NAL       101.4960    5.3850   30.2260 N.pl3     1 7NB        -0.3066
     15 CAO       101.9960    5.1560   28.9990 C.2       1 7NB         0.0559
     16 CAT       101.3200    4.3650   28.0750 C.2       1 7NB         0.0754
     17 NAS       101.9110    4.1760   26.8220 N.pl3     1 7NB        -0.2078
     18 CAP       103.2170    5.7030   28.6110 C.2       1 7NB        -0.0436
     19 CAQ       103.7370    5.4650   27.3410 C.2       1 7NB        -0.0088
     20 CAX       104.9580    6.0280   26.9870 C.3       1 7NB        -0.0309
     21 CAR       103.0780    4.7070   26.4670 C.2       1 7NB         0.1233
     22 NAU       103.3530    4.3350   25.2180 N.2       1 7NB        -0.3567
     23 CAV       102.3430    3.5720   24.8130 C.2       1 7NB         0.0071
     24 CAY       102.2550    2.9280   23.4300 C.3       1 7NB        -0.0327
     25 CAZ       101.4640    3.8410   22.4910 C.3       1 7NB        -0.0602
     26 CAW       101.4520    3.4670   25.7930 C.2       1 7NB         0.1881
     27 NBA       100.2970    2.8050   25.8170 N.pl3     1 7NB        -0.2074
     28 CBB        99.0410    3.5590   25.6830 C.3       1 7NB         0.0431
     29 CBC       100.2640    1.4850   25.9840 C.2       1 7NB         0.2137
     30 NBG        99.1580    0.7380   26.0230 N.2       1 7NB        -0.2817
     31 SBD       101.6170    0.4550   26.1820 S.3       1 7NB         0.0455
     32 CBE       100.6430   -0.9460   26.3130 C.2       1 7NB         0.1502
     33 CBI       101.1420   -2.2740   26.5080 C.1       1 7NB         0.0667
     34 N1        101.5380   -3.3310   26.6630 N.1       1 7NB        -0.3735
     35 CBF        99.3640   -0.5760   26.2010 C.2       1 7NB         0.0489
     36 CBH        98.3380   -1.4250   26.2580 C.ar      1 7NB        -0.0074
     37 CBJ        97.1670   -1.0370   26.9010 C.ar      1 7NB        -0.0511
     38 CBK        96.0850   -1.9060   26.9700 C.ar      1 7NB        -0.0240
     39 CBL        96.1680   -3.1690   26.3950 C.ar      1 7NB         0.1364
     40 FBO        95.1080   -4.0200   26.4630 F         1 7NB        -0.1801
     41 CBM        97.3360   -3.5590   25.7520 C.ar      1 7NB        -0.0240
     42 CBN        98.4190   -2.6890   25.6820 C.ar      1 7NB        -0.0511
     43 H1         97.1287    6.9484   35.1607 H         1 7NB         0.0548
     44 H2         96.8292    6.0546   33.6316 H         1 7NB         0.0548
     45 H3         95.1482    4.7163   34.7827 H         1 7NB         0.0634
     46 H4         94.7969    5.1360   37.0024 H         1 7NB         0.2100
     47 H5         96.9398    3.1258   35.2143 H         1 7NB         0.0548
     48 H6         97.2427    3.9327   36.7904 H         1 7NB         0.0548
     49 H7        100.7863    6.5697   34.7698 H         1 7NB         0.1063
     50 H8         99.2286    6.8497   33.9203 H         1 7NB         0.1063
     51 H9        101.1392    4.8011   33.0571 H         1 7NB         0.2054
     52 H10       102.1443    7.0703   33.1315 H         1 7NB         0.0834
     53 H11       100.8849    7.5012   31.9254 H         1 7NB         0.0834
     54 H12       103.0339    5.3434   31.6769 H         1 7NB         0.0559
     55 H13       102.9112    6.8703   30.7388 H         1 7NB         0.0559
     56 H14        99.0588    6.3282   31.6453 H         1 7NB         0.0834
     57 H15        98.8567    4.6595   32.2789 H         1 7NB         0.0834
     58 H16        99.4703    5.0395   29.7650 H         1 7NB         0.0559
     59 H17       100.2754    3.7363   30.7031 H         1 7NB         0.0559
     60 H18       100.3622    3.9082   28.3197 H         1 7NB         0.0856
     61 H19       103.7728    6.3255   29.3106 H         1 7NB         0.0461
     62 H20       105.3488    6.6161   27.8304 H         1 7NB         0.0384
     63 H21       104.8202    6.6843   26.1151 H         1 7NB         0.0384
     64 H22       105.6711    5.2291   26.7356 H         1 7NB         0.0384
     65 H23       101.7467    1.9558   23.5100 H         1 7NB         0.0356
     66 H24       103.2687    2.7800   23.0294 H         1 7NB         0.0356
     67 H25       101.4009    3.3770   21.4956 H         1 7NB         0.0245
     68 H26       101.9722    4.8133   22.4108 H         1 7NB         0.0245
     69 H27       100.4502    3.9890   22.8914 H         1 7NB         0.0245
     70 H28        99.2670    4.6278   25.5538 H         1 7NB         0.0544
     71 H29        98.4315    3.4199   26.5880 H         1 7NB         0.0544
     72 H30        98.4854    3.1932   24.8069 H         1 7NB         0.0544
     73 H31        97.0984   -0.0528   27.3500 H         1 7NB         0.0640
     74 H32        95.1751   -1.5988   27.4728 H         1 7NB         0.0614
     75 H33        97.4036   -4.5437   25.3037 H         1 7NB         0.0614
     76 H34        99.3280   -2.9963   25.1777 H         1 7NB         0.0640
@<TRIPOS>BOND
     1    1    2 1  
     2    1    5 1  
     3    2    3 1  
     4    2    4 1  
     5    4    5 1  
     6    5    6 am 
     7    6    7 2  
     8    6    8 1  
     9    8    9 1  
    10    9   10 1  
    11    9   12 1  
    12   10   11 1  
    13   11   14 1  
    14   12   13 1  
    15   13   14 1  
    16   14   15 1  
    17   15   16 2  
    18   15   18 1  
    19   16   17 1  
    20   17   21 1  
    21   17   26 1  
    22   18   19 2  
    23   19   20 1  
    24   19   21 1  
    25   21   22 2  
    26   22   23 1  
    27   23   24 1  
    28   23   26 2  
    29   24   25 1  
    30   26   27 1  
    31   27   28 1  
    32   27   29 1  
    33   29   30 2  
    34   29   31 1  
    35   30   35 1  
    36   31   32 1  
    37   32   33 1  
    38   32   35 2  
    39   33   34 3  
    40   35   36 1  
    41   36   37 ar 
    42   36   42 ar 
    43   37   38 ar 
    44   38   39 ar 
    45   39   40 1  
    46   39   41 ar 
    47   41   42 ar 
    48    1   43 1  
    49    1   44 1  
    50    2   45 1  
    51    3   46 1  
    52    4   47 1  
    53    4   48 1  
    54    8   49 1  
    55    8   50 1  
    56    9   51 1  
    57   10   52 1  
    58   10   53 1  
    59   11   54 1  
    60   11   55 1  
    61   12   56 1  
    62   12   57 1  
    63   13   58 1  
    64   13   59 1  
    65   16   60 1  
    66   18   61 1  
    67   20   62 1  
    68   20   63 1  
    69   20   64 1  
    70   24   65 1  
    71   24   66 1  
    72   25   67 1  
    73   25   68 1  
    74   25   69 1  
    75   28   70 1  
    76   28   71 1  
    77   28   72 1  
    78   37   73 1  
    79   38   74 1  
    80   41   75 1  
    81   42   76 1  
@<TRIPOS>SUBSTRUCTURE
     1 7NB         1

