### 
### Created by X-TOOL on Wed Jan  1 15:39:34 2020
### 

@<TRIPOS>MOLECULE
5mhq_ligand
   54    56     1     0     0
SMALL
GAST_HUCK


@<TRIPOS>ATOM
      1 C4         12.5360   -9.0230    9.6460 C.ar      1 8QT         0.1544
      2 C14        15.0800   -9.8300   13.1610 C.3       1 8QT         0.0648
      3 C5         10.9480  -10.4120   10.6550 C.ar      1 8QT         0.1223
      4 C6          8.6510  -10.5710    9.7850 C.3       1 8QT         0.0694
      5 C11         8.0080  -11.2210    7.4450 C.ar      1 8QT         0.0145
      6 C7          8.4090  -11.5960    8.7050 C.ar      1 8QT         0.0075
      7 C8          8.5870  -12.9350    8.9390 C.ar      1 8QT        -0.0384
      8 C9          8.3720  -13.8420    7.9350 C.ar      1 8QT        -0.0404
      9 C10         7.9850  -13.3850    6.7210 C.ar      1 8QT         0.0042
     10 C12        11.8520  -10.6270   11.6980 C.ar      1 8QT         0.0919
     11 C13        12.8980  -11.1080   13.4640 C.2       1 8QT         0.1048
     12 N1         12.7990   -8.1870    8.6280 N.pl3     1 8QT        -0.2920
     13 N2         11.3180   -9.6170    9.6360 N.ar      1 8QT        -0.2560
     14 C3         14.1210   -7.5990    8.4150 C.3       1 8QT         0.0659
     15 N3          9.7370  -10.9760   10.6640 N.pl3     1 8QT        -0.2907
     16 C1         14.1580   -8.6300    6.1020 C.3       1 8QT        -0.0631
     17 C2         14.3460   -7.3820    6.9210 C.3       1 8QT        -0.0302
     18 N4          7.7910  -12.0850    6.4460 N.ar      1 8QT        -0.3043
     19 N5         11.7550  -11.3650   12.8790 N.2       1 8QT        -0.3043
     20 N6         13.7570  -10.3220   12.7440 N.pl3     1 8QT        -0.2248
     21 C15        14.9800   -8.3650   13.5000 C.3       1 8QT        -0.0349
     22 C16        16.1380  -10.1160   12.1030 C.3       1 8QT        -0.0349
     23 C17        13.0590   -9.9570   11.6120 C.ar      1 8QT         0.1424
     24 N7         13.4740   -9.1570   10.6110 N.ar      1 8QT        -0.2645
     25 C18        14.3240   -6.3180    9.2520 C.3       1 8QT         0.0754
     26 C19        15.7150   -5.7510    9.0990 C.3       1 8QT        -0.0367
     27 O1         13.4380   -5.2650    8.8820 O.3       1 8QT        -0.3898
     28 H1         15.3730  -10.3686   14.0743 H         1 8QT         0.0642
     29 H2          7.7332  -10.4537   10.3799 H         1 8QT         0.0705
     30 H3          8.9091   -9.6102    9.3158 H         1 8QT         0.0705
     31 H4          7.8590  -10.1653    7.2491 H         1 8QT         0.0766
     32 H5          8.8982  -13.2765    9.9196 H         1 8QT         0.0679
     33 H6          8.5089  -14.9031    8.1091 H         1 8QT         0.0693
     34 H7          7.8231  -14.1069    5.9287 H         1 8QT         0.0767
     35 H8         13.1473  -11.4919   14.4521 H         1 8QT         0.1309
     36 H9         12.0405   -7.9511    7.9723 H         1 8QT         0.1849
     37 H10        14.8698   -8.3280    8.7583 H         1 8QT         0.0584
     38 H11         9.5624  -11.7410   11.3312 H         1 8QT         0.1885
     39 H12        14.3347   -8.4020    5.0405 H         1 8QT         0.0231
     40 H13        13.1309   -9.0020    6.2311 H         1 8QT         0.0231
     41 H14        14.8710   -9.3984    6.4355 H         1 8QT         0.0231
     42 H15        15.3735   -7.0185    6.7721 H         1 8QT         0.0286
     43 H16        13.6334   -6.6222    6.5676 H         1 8QT         0.0286
     44 H17        15.9669   -7.9928   13.8123 H         1 8QT         0.0259
     45 H18        14.2597   -8.2266   14.3198 H         1 8QT         0.0259
     46 H19        14.6406   -7.8063   12.6154 H         1 8QT         0.0259
     47 H20        17.1117   -9.7362   12.4461 H         1 8QT         0.0259
     48 H21        15.8606   -9.6171   11.1627 H         1 8QT         0.0259
     49 H22        16.2058  -11.2012   11.9362 H         1 8QT         0.0259
     50 H23        14.1529   -6.5765   10.3074 H         1 8QT         0.0614
     51 H24        15.8102   -4.8427    9.7121 H         1 8QT         0.0255
     52 H25        15.8950   -5.5011    8.0430 H         1 8QT         0.0255
     53 H26        16.4532   -6.4961    9.4305 H         1 8QT         0.0255
     54 H27        12.5403   -5.5661    8.9593 H         1 8QT         0.2099
@<TRIPOS>BOND
     1    1   12 1  
     2   13    1 ar 
     3    1   24 ar 
     4   20    2 1  
     5    2   21 1  
     6    2   22 1  
     7   10    3 ar 
     8    3   13 ar 
     9    3   15 1  
    10    4    6 1  
    11   15    4 1  
    12    6    5 ar 
    13    5   18 ar 
    14    6    7 ar 
    15    7    8 ar 
    16    8    9 ar 
    17   18    9 ar 
    18   19   10 1  
    19   10   23 ar 
    20   11   19 2  
    21   11   20 1  
    22   12   14 1  
    23   14   17 1  
    24   14   25 1  
    25   17   16 1  
    26   20   23 1  
    27   23   24 ar 
    28   25   26 1  
    29   25   27 1  
    30    2   28 1  
    31    4   29 1  
    32    4   30 1  
    33    5   31 1  
    34    7   32 1  
    35    8   33 1  
    36    9   34 1  
    37   11   35 1  
    38   12   36 1  
    39   14   37 1  
    40   15   38 1  
    41   16   39 1  
    42   16   40 1  
    43   16   41 1  
    44   17   42 1  
    45   17   43 1  
    46   21   44 1  
    47   21   45 1  
    48   21   46 1  
    49   22   47 1  
    50   22   48 1  
    51   22   49 1  
    52   25   50 1  
    53   26   51 1  
    54   26   52 1  
    55   26   53 1  
    56   27   54 1  
@<TRIPOS>SUBSTRUCTURE
     1 8QT         1

