### 
### Created by X-TOOL on Tue Oct 16 15:18:06 2018
### 

@<TRIPOS>MOLECULE
5mi5_ligand
   47    48     1     0     0
SMALL
GAST_HUCK


@<TRIPOS>ATOM
      1 CAH        33.8770    6.8820   15.4040 C.3       1 OAN         0.0257
      2 CAG        32.8850    6.4870   14.3430 C.2       1 OAN         0.1734
      3 OAN        32.4100    5.3610   14.2610 O.2       1 OAN        -0.3974
      4 NAI        32.5420    7.5070   13.4430 N.am      1 OAN        -0.2737
      5 CAB        31.5790    7.2500   12.3710 C.3       1 OAN         0.1402
      6 CAC        30.1840    6.9030   12.9360 C.3       1 OAN         0.1141
      7 OAJ        29.5120    8.1170   12.9820 O.3       1 OAN        -0.3865
      8 CAD        29.5030    5.9060   11.9610 C.3       1 OAN         0.1119
      9 OAK        28.2120    5.7440   12.4560 O.3       1 OAN        -0.3865
     10 CAE        30.3310    4.6060   12.1530 C.3       1 OAN         0.1157
     11 CAF        29.6920    3.4690   11.3280 C.3       1 OAN         0.0731
     12 OAM        29.4320    3.9620   10.0520 O.3       1 OAN        -0.3924
     13 OAL        31.6320    4.8100   11.6500 O.3       1 OAN        -0.3259
     14 CAA        32.0070    6.1100   11.4630 C.3       1 OAN         0.1447
     15 NAY        32.6950    6.4600   10.4120 N.4       1 OAN         0.4349
     16 OAQ        33.5260    5.5280    9.9400 O.3       1 OAN        -0.1888
     17 CAP        33.7180    5.7640    8.6030 C.2       1 OAN         0.3948
     18 OAR        33.1230    5.1110    7.7380 O.2       1 OAN        -0.3634
     19 NAO        34.6440    6.7670    8.4220 N.am      1 OAN        -0.2048
     20 CAS        34.7580    7.3270    7.1380 C.ar      1 OAN         0.0683
     21 CAT        34.6450    8.7190    6.9950 C.ar      1 OAN        -0.0413
     22 CAU        34.7720    9.2610    5.7320 C.ar      1 OAN        -0.0756
     23 CAV        35.0140    8.4370    4.6400 C.ar      1 OAN        -0.0773
     24 CAW        35.1300    7.0640    4.8060 C.ar      1 OAN        -0.0756
     25 CAX        35.0130    6.4920    6.0600 C.ar      1 OAN        -0.0413
     26 H1         34.1548    7.9380   15.2712 H         1 OAN         0.0467
     27 H2         34.7753    6.2530   15.3185 H         1 OAN         0.0467
     28 H3         33.4258    6.7437   16.3976 H         1 OAN         0.0467
     29 H4         32.9567    8.4124   13.5341 H         1 OAN         0.1858
     30 H5         31.4974    8.1654   11.7666 H         1 OAN         0.0667
     31 H6         30.2552    6.4592   13.9400 H         1 OAN         0.0646
     32 H7         28.6361    7.9801   13.3235 H         1 OAN         0.2100
     33 H8         29.5012    6.2481   10.9156 H         1 OAN         0.0647
     34 H9         27.7345    5.1393   11.9003 H         1 OAN         0.2100
     35 H10        30.3679    4.3346   13.2183 H         1 OAN         0.0648
     36 H11        28.7538    3.1447   11.8019 H         1 OAN         0.0584
     37 H12        30.3850    2.6170   11.2657 H         1 OAN         0.0584
     38 H13        30.2457    4.2436    9.6506 H         1 OAN         0.2095
     39 H14        32.9188    5.9418   12.0549 H         1 OAN         0.1223
     40 H15        33.2417    7.2717   10.6534 H         1 OAN         0.2433
     41 H16        32.0452    6.6983    9.6791 H         1 OAN         0.2433
     42 H17        35.2156    7.0859    9.1780 H         1 OAN         0.2277
     43 H18        34.4625    9.3526    7.8554 H         1 OAN         0.0502
     44 H19        34.6827   10.3322    5.5918 H         1 OAN         0.0577
     45 H20        35.1130    8.8696    3.6510 H         1 OAN         0.0487
     46 H21        35.3142    6.4332    3.9439 H         1 OAN         0.0577
     47 H22        35.1176    5.4217    6.1964 H         1 OAN         0.0502
@<TRIPOS>BOND
     1    1    2 1  
     2    2    3 2  
     3    2    4 am 
     4    4    5 1  
     5    5    6 1  
     6    5   14 1  
     7    6    7 1  
     8    6    8 1  
     9    8    9 1  
    10    8   10 1  
    11   10   11 1  
    12   10   13 1  
    13   11   12 1  
    14   13   14 1  
    15   14   15 1  
    16   15   16 1  
    17   16   17 1  
    18   17   18 2  
    19   17   19 am 
    20   19   20 1  
    21   20   21 ar 
    22   20   25 ar 
    23   21   22 ar 
    24   22   23 ar 
    25   23   24 ar 
    26   24   25 ar 
    27    1   26 1  
    28    1   27 1  
    29    1   28 1  
    30    4   29 1  
    31    5   30 1  
    32    6   31 1  
    33    7   32 1  
    34    8   33 1  
    35    9   34 1  
    36   10   35 1  
    37   11   36 1  
    38   11   37 1  
    39   12   38 1  
    40   14   39 1  
    41   15   40 1  
    42   15   41 1  
    43   19   42 1  
    44   21   43 1  
    45   22   44 1  
    46   23   45 1  
    47   24   46 1  
    48   25   47 1  
@<TRIPOS>SUBSTRUCTURE
     1 OAN         1

