### 
### Created by X-TOOL on Tue Oct 16 15:17:57 2018
### 

@<TRIPOS>MOLECULE
5mi6_ligand
   32    33     1     0     0
SMALL
GAST_HUCK


@<TRIPOS>ATOM
      1 C1         32.0580    5.7520   12.4270 C.3       1 NHT         0.1369
      2 C2         31.2740    7.0600   12.6120 C.3       1 NHT         0.0547
      3 C3         29.8420    6.8260   13.0640 C.3       1 NHT         0.0928
      4 C4         29.1700    5.8990   12.0820 C.3       1 NHT         0.1098
      5 C5         29.9370    4.5870   12.0920 C.3       1 NHT         0.1116
      6 C6         29.3890    3.5010   11.1840 C.3       1 NHT         0.0730
      7 C7         32.5530    6.7840   14.5050 C.2       1 NHT         0.1594
      8 C10        34.4380    7.0010   17.6950 C.3       1 NHT        -0.0438
      9 N2         31.9780    7.6180   13.7410 N.2       1 NHT        -0.3555
     10 O3         29.1890    8.0930   13.1580 O.3       1 NHT        -0.3886
     11 O4         27.8130    5.6980   12.4700 O.3       1 NHT        -0.3866
     12 O5         31.3090    4.7930   11.7120 O.3       1 NHT        -0.3538
     13 N1         33.0910    7.1830   15.6540 N.pl3     1 NHT        -0.2802
     14 O6         28.9770    4.0020    9.9140 O.3       1 NHT        -0.3924
     15 S1         32.5810    5.1640   14.0180 S.3       1 NHT         0.0009
     16 C9         33.7700    6.2620   16.5540 C.3       1 NHT         0.0329
     17 H1         32.9585    5.9736   11.8354 H         1 NHT         0.0757
     18 H2         31.3057    7.6961   11.7151 H         1 NHT         0.0398
     19 H3         29.8407    6.3513   14.0563 H         1 NHT         0.0626
     20 H4         29.1982    6.3365   11.0732 H         1 NHT         0.0646
     21 H5         29.9099    4.2069   13.1239 H         1 NHT         0.0646
     22 H6         28.5229    3.0346   11.6762 H         1 NHT         0.0584
     23 H7         30.1725    2.7451   11.0268 H         1 NHT         0.0584
     24 H8         34.9407    6.2788   18.3551 H         1 NHT         0.0250
     25 H9         33.6792    7.5545   18.2675 H         1 NHT         0.0250
     26 H10        35.1793    7.7062   17.2911 H         1 NHT         0.0250
     27 H11        28.2919    7.9653   13.4434 H         1 NHT         0.2099
     28 H12        27.3974    5.0960   11.8639 H         1 NHT         0.2100
     29 H13        33.0250    8.1770   15.9158 H         1 NHT         0.1939
     30 H14        28.2944    4.6511   10.0372 H         1 NHT         0.2095
     31 H15        33.0342    5.5558   16.9662 H         1 NHT         0.0531
     32 H16        34.5343    5.7075   15.9897 H         1 NHT         0.0531
@<TRIPOS>BOND
     1    1    2 1  
     2    1   12 1  
     3   15    1 1  
     4    2    3 1  
     5    9    2 1  
     6    3    4 1  
     7    3   10 1  
     8    5    4 1  
     9    4   11 1  
    10    5    6 1  
    11   12    5 1  
    12    6   14 1  
    13    7    9 2  
    14   13    7 1  
    15    7   15 1  
    16   16    8 1  
    17   13   16 1  
    18    1   17 1  
    19    2   18 1  
    20    3   19 1  
    21    4   20 1  
    22    5   21 1  
    23    6   22 1  
    24    6   23 1  
    25    8   24 1  
    26    8   25 1  
    27    8   26 1  
    28   10   27 1  
    29   11   28 1  
    30   13   29 1  
    31   14   30 1  
    32   16   31 1  
    33   16   32 1  
@<TRIPOS>SUBSTRUCTURE
     1 NHT         1

