### 
### Created by X-TOOL on Tue Oct 16 15:18:04 2018
### 

@<TRIPOS>MOLECULE
5mi7_ligand
   44    45     1     0     0
SMALL
GAST_HUCK


@<TRIPOS>ATOM
      1 CAH        33.7970    6.7520   14.0370 C.3       1 OAN         0.0258
      2 CAG        32.7540    6.4270   13.0030 C.2       1 OAN         0.1755
      3 OAN        32.2350    5.3220   12.8980 O.2       1 OAN        -0.3972
      4 NAI        32.4020    7.4880   12.1590 N.am      1 OAN        -0.2641
      5 CAB        31.3900    7.2740   11.1300 C.3       1 OAN         0.1483
      6 CAC        30.0200    6.9590   11.7680 C.3       1 OAN         0.1223
      7 OAJ        29.3830    8.1910   11.8560 O.3       1 OAN        -0.3842
      8 CAD        29.2600    5.9890   10.8250 C.3       1 OAN         0.1187
      9 OAK        27.9810    5.8620   11.3640 O.3       1 OAN        -0.3859
     10 CAE        30.0120    4.6310   10.8800 C.3       1 OAN         0.1375
     11 CAF        29.3520    3.6560    9.8820 C.3       1 OAN         0.0780
     12 OAM        29.5310    4.1730    8.6010 O.3       1 OAN        -0.3919
     13 OAL        31.3430    4.8240   10.4600 O.3       1 OAN        -0.2871
     14 CAA        31.7430    6.1080   10.2260 C.2       1 OAN         0.1893
     15 NAY        32.6610    6.3550    9.3370 N.2       1 OAN        -0.1541
     16 OAQ        33.0770    5.3000    8.6620 O.3       1 OAN        -0.1506
     17 CAP        33.2950    5.6820    7.3670 C.2       1 OAN         0.3788
     18 OAR        32.5550    5.3110    6.4480 O.2       1 OAN        -0.3643
     19 NAO        34.4050    6.4890    7.2910 N.am      1 OAN        -0.2057
     20 CAS        34.7030    7.0760    6.0510 C.ar      1 OAN         0.0683
     21 CAT        34.5130    6.3290    4.8760 C.ar      1 OAN        -0.0414
     22 CAU        34.8280    6.9190    3.6700 C.ar      1 OAN        -0.0756
     23 CAV        35.3310    8.2150    3.6360 C.ar      1 OAN        -0.0773
     24 CAW        35.5260    8.9260    4.8110 C.ar      1 OAN        -0.0756
     25 CAX        35.2110    8.3640    6.0350 C.ar      1 OAN        -0.0414
     26 H1         34.1057    7.8022   13.9289 H         1 OAN         0.0467
     27 H2         34.6695    6.0971   13.8962 H         1 OAN         0.0467
     28 H3         33.3786    6.5945   15.0420 H         1 OAN         0.0467
     29 H4         32.8392    8.3816   12.2605 H         1 OAN         0.1888
     30 H5         31.3093    8.1889   10.5246 H         1 OAN         0.0821
     31 H6         30.1335    6.5062   12.7640 H         1 OAN         0.0672
     32 H7         28.5236    8.0749   12.2439 H         1 OAN         0.2103
     33 H8         29.2175    6.3708    9.7943 H         1 OAN         0.0653
     34 H9         27.4673    5.2743   10.8225 H         1 OAN         0.2100
     35 H10        29.9839    4.2202   11.9000 H         1 OAN         0.0708
     36 H11        28.2781    3.5650   10.1022 H         1 OAN         0.0588
     37 H12        29.8267    2.6664    9.9559 H         1 OAN         0.0588
     38 H13        30.4601    4.2525    8.4198 H         1 OAN         0.2095
     39 H14        34.9809    6.6525    8.0920 H         1 OAN         0.2276
     40 H15        34.1291    5.3161    4.9165 H         1 OAN         0.0501
     41 H16        34.6831    6.3710    2.7460 H         1 OAN         0.0577
     42 H17        35.5726    8.6732    2.6838 H         1 OAN         0.0487
     43 H18        35.9290    9.9315    4.7696 H         1 OAN         0.0577
     44 H19        35.3577    8.9165    6.9560 H         1 OAN         0.0501
@<TRIPOS>BOND
     1    1    2 1  
     2    2    3 2  
     3    2    4 am 
     4    4    5 1  
     5    5    6 1  
     6    5   14 1  
     7    6    7 1  
     8    6    8 1  
     9    8    9 1  
    10    8   10 1  
    11   10   11 1  
    12   10   13 1  
    13   11   12 1  
    14   13   14 1  
    15   14   15 2  
    16   15   16 1  
    17   16   17 1  
    18   17   18 2  
    19   17   19 am 
    20   19   20 1  
    21   20   21 ar 
    22   20   25 ar 
    23   21   22 ar 
    24   22   23 ar 
    25   23   24 ar 
    26   24   25 ar 
    27    1   26 1  
    28    1   27 1  
    29    1   28 1  
    30    4   29 1  
    31    5   30 1  
    32    6   31 1  
    33    7   32 1  
    34    8   33 1  
    35    9   34 1  
    36   10   35 1  
    37   11   36 1  
    38   11   37 1  
    39   12   38 1  
    40   19   39 1  
    41   21   40 1  
    42   22   41 1  
    43   23   42 1  
    44   24   43 1  
    45   25   44 1  
@<TRIPOS>SUBSTRUCTURE
     1 OAN         1

