### 
### Created by X-TOOL on Mon Sep 10 21:13:30 2018
### 

@<TRIPOS>MOLECULE
5mih_ligand
   35    37     1     0     0
SMALL
GAST_HUCK


@<TRIPOS>ATOM
      1 O2         18.1940  -33.2480   13.4390 O.3       1 7NU        -0.3837
      2 C2         17.1250  -32.5280   14.0080 C.3       1 7NU         0.1385
      3 C3         16.8740  -32.9390   15.4740 C.3       1 7NU         0.1145
      4 O3         17.9620  -32.5960   16.2610 O.3       1 7NU        -0.3864
      5 C1         15.9160  -32.8210   13.1960 C.3       1 7NU         0.2096
      6 O5         14.8140  -32.1280   13.6890 O.3       1 7NU        -0.3365
      7 C5         14.4600  -32.6080   14.9480 C.3       1 7NU         0.1186
      8 C6         13.1210  -31.9510   15.4090 C.3       1 7NU         0.1107
      9 O6         12.1620  -31.5590   14.4790 O.3       1 7NU        -0.3690
     10 C7         12.8940  -30.5570   15.1460 C.3       1 7NU         0.0769
     11 C4         15.5250  -32.3250   15.9490 C.3       1 7NU         0.1123
     12 O4         15.8360  -30.9450   16.1770 O.3       1 7NU        -0.3865
     13 O1         16.1370  -32.4710   11.8280 O.3       1 7NU        -0.2851
     14 C8         15.5450  -32.9960   10.7960 C.ar      1 7NU         0.0945
     15 C9         14.5800  -34.0430   10.8850 C.ar      1 7NU        -0.0330
     16 C10        13.9370  -34.4930    9.7150 C.ar      1 7NU        -0.0706
     17 C11        14.2350  -33.9360    8.4660 C.ar      1 7NU        -0.0729
     18 C12        15.1810  -32.9080    8.3810 C.ar      1 7NU        -0.0706
     19 C13        15.8060  -32.4640    9.5640 C.ar      1 7NU        -0.0330
     20 H1         18.3188  -32.9693   12.5394 H         1 7NU         0.2101
     21 H2         17.3483  -31.4515   13.9715 H         1 7NU         0.0675
     22 H3         16.7728  -34.0336   15.5143 H         1 7NU         0.0648
     23 H4         18.7366  -33.0431   15.9407 H         1 7NU         0.2100
     24 H5         15.7083  -33.8996   13.2547 H         1 7NU         0.0993
     25 H6         14.3191  -33.6969   14.8819 H         1 7NU         0.0651
     26 H7         12.8062  -32.3932   16.3657 H         1 7NU         0.0646
     27 H8         13.6462  -29.9662   14.6028 H         1 7NU         0.0587
     28 H9         12.4050  -29.9234   15.9006 H         1 7NU         0.0587
     29 H10        15.2164  -32.7802   16.9016 H         1 7NU         0.0647
     30 H11        15.0598  -30.4937   16.4876 H         1 7NU         0.2100
     31 H12        14.3436  -34.4884   11.8446 H         1 7NU         0.0542
     32 H13        13.1990  -35.2840    9.7832 H         1 7NU         0.0589
     33 H14        13.7379  -34.2973    7.5731 H         1 7NU         0.0523
     34 H15        15.4282  -32.4620    7.4244 H         1 7NU         0.0589
     35 H16        16.5300  -31.6603    9.4932 H         1 7NU         0.0542
@<TRIPOS>BOND
     1    1    2 1  
     2    2    3 1  
     3    2    5 1  
     4    3    4 1  
     5    3   11 1  
     6    5    6 1  
     7    5   13 1  
     8    6    7 1  
     9    7    8 1  
    10    7   11 1  
    11    8    9 1  
    12    8   10 1  
    13    9   10 1  
    14   11   12 1  
    15   13   14 1  
    16   14   15 ar 
    17   14   19 ar 
    18   15   16 ar 
    19   16   17 ar 
    20   17   18 ar 
    21   18   19 ar 
    22    1   20 1  
    23    2   21 1  
    24    3   22 1  
    25    4   23 1  
    26    5   24 1  
    27    7   25 1  
    28    8   26 1  
    29   10   27 1  
    30   10   28 1  
    31   11   29 1  
    32   12   30 1  
    33   15   31 1  
    34   16   32 1  
    35   17   33 1  
    36   18   34 1  
    37   19   35 1  
@<TRIPOS>SUBSTRUCTURE
     1 7NU         1

