### 
### Created by X-TOOL on Mon Sep 10 21:13:31 2018
### 

@<TRIPOS>MOLECULE
5mim_ligand
   84    87     1     0     0
SMALL
GAST_HUCK


@<TRIPOS>ATOM
      1 N13        58.6160  -31.7850   -6.8990 N.pl3     1 1N         -0.2849
      2 C28        59.4790  -32.3110   -7.7790 C.cat     1 1N          0.2885
      3 N12        60.5610  -32.9620   -7.3300 N.pl3     1 1N         -0.2849
      4 N11        59.2600  -32.1930   -9.1050 N.pl3     1 1N         -0.2662
      5 C18        58.1040  -31.5080   -9.7150 C.3       1 1N          0.1119
      6 C10        58.3650  -30.0070   -9.8260 C.3       1 1N          0.1461
      7 C9         57.1410  -29.3350  -10.4660 C.3       1 1N          0.0254
      8 O2         58.6030  -29.4750   -8.4950 O.3       1 1N         -0.2463
      9 C11        59.5550  -28.4950   -8.4260 C.ar      1 1N          0.1872
     10 C17        59.8430  -27.6980   -9.5260 C.ar      1 1N          0.0465
     11 C16        60.8110  -26.7070   -9.4420 C.ar      1 1N          0.0413
     12 C14        61.5020  -26.4870   -8.2550 C.ar      1 1N          0.1462
     13 C13        61.2220  -27.2870   -7.1520 C.ar      1 1N          0.0413
     14 C12        60.2530  -28.2860   -7.2380 C.ar      1 1N          0.0465
     15 N4         62.4410  -25.5390   -8.1660 N.pl3     1 1N         -0.2468
     16 C15        62.3840  -24.2780   -8.6460 C.cat     1 1N          0.1603
     17 N6         63.4320  -23.4640   -8.4670 N.pl3     1 1N         -0.3503
     18 N5         61.2980  -23.8100   -9.2820 N.pl3     1 1N         -0.3503
     19 C19        57.8390  -32.0800  -11.1090 C.3       1 1N          0.0183
     20 C20        56.5990  -31.4160  -11.6950 C.3       1 1N          0.0996
     21 N7         56.2720  -31.9910  -13.0130 N.pl3     1 1N         -0.2630
     22 C21        55.0370  -31.9480  -13.5310 C.ar      1 1N          0.1347
     23 C27        53.9260  -31.9520  -12.6910 C.ar      1 1N          0.0330
     24 C26        52.6460  -31.9010  -13.2350 C.ar      1 1N          0.0335
     25 C24        52.4700  -31.8440  -14.6170 C.ar      1 1N          0.1362
     26 C23        53.5800  -31.8430  -15.4600 C.ar      1 1N          0.0335
     27 C22        54.8590  -31.8890  -14.9130 C.ar      1 1N          0.0330
     28 N8         51.2320  -31.8060  -15.1210 N.pl3     1 1N         -0.2526
     29 C25        50.3960  -32.8630  -15.0990 C.cat     1 1N          0.1563
     30 N10        49.1560  -32.7630  -15.5960 N.pl3     1 1N         -0.3513
     31 N9         50.8030  -34.0300  -14.5740 N.pl3     1 1N         -0.3513
     32 C8         56.8440  -29.9260  -11.8400 C.3       1 1N          0.1390
     33 O1         55.6440  -29.3400  -12.3530 O.3       1 1N         -0.2472
     34 C5         55.7840  -28.5860  -13.4800 C.ar      1 1N          0.1871
     35 C4         54.7170  -28.5070  -14.3710 C.ar      1 1N          0.0465
     36 C3         54.8220  -27.7450  -15.5270 C.ar      1 1N          0.0413
     37 C6         56.9560  -27.8900  -13.7410 C.ar      1 1N          0.0465
     38 C7         57.0620  -27.1230  -14.8990 C.ar      1 1N          0.0413
     39 C2         55.9940  -27.0410  -15.7900 C.ar      1 1N          0.1462
     40 N3         56.1230  -26.3110  -16.9030 N.pl3     1 1N         -0.2468
     41 C1         55.3150  -25.3240  -17.3150 C.cat     1 1N          0.1603
     42 N2         55.5930  -24.6900  -18.4620 N.pl3     1 1N         -0.3503
     43 N1         54.2470  -24.9560  -16.5940 N.pl3     1 1N         -0.3503
     44 H1         58.7898  -31.8790   -5.8881 H         1 1N          0.2615
     45 H2         57.7789  -31.2867   -7.2335 H         1 1N          0.2615
     46 H3         61.2306  -33.3700   -7.9979 H         1 1N          0.2615
     47 H4         60.7230  -33.0543   -6.3170 H         1 1N          0.2615
     48 H5         59.9530  -32.6134   -9.7405 H         1 1N          0.2646
     49 H6         57.2186  -31.6718   -9.0832 H         1 1N          0.0762
     50 H7         59.2498  -29.8288  -10.4547 H         1 1N          0.0755
     51 H8         57.3379  -28.2581  -10.5734 H         1 1N          0.0335
     52 H9         56.2675  -29.4849   -9.8144 H         1 1N          0.0335
     53 H10        59.3082  -27.8509  -10.4565 H         1 1N          0.0879
     54 H11        61.0310  -26.0976  -10.3111 H         1 1N          0.0893
     55 H12        61.7587  -27.1333   -6.2228 H         1 1N          0.0893
     56 H13        60.0409  -28.9051   -6.3738 H         1 1N          0.0879
     57 H14        63.3076  -25.8008   -7.6747 H         1 1N          0.2373
     58 H15        63.4026  -22.4997   -8.8277 H         1 1N          0.1664
     59 H16        64.2676  -23.8022   -7.9686 H         1 1N          0.1664
     60 H17        60.4829  -24.4225   -9.4283 H         1 1N          0.1664
     61 H18        61.2800  -22.8385   -9.6236 H         1 1N          0.1664
     62 H19        57.6757  -33.1654  -11.0365 H         1 1N          0.0332
     63 H20        58.7043  -31.8819  -11.7587 H         1 1N          0.0332
     64 H21        55.7508  -31.5787  -11.0138 H         1 1N          0.0663
     65 H22        57.0215  -32.4429  -13.5561 H         1 1N          0.2253
     66 H23        54.0580  -31.9947  -11.6159 H         1 1N          0.0863
     67 H24        51.7815  -31.9056  -12.5810 H         1 1N          0.0852
     68 H25        53.4479  -31.8066  -16.5353 H         1 1N          0.0852
     69 H26        55.7238  -31.8789  -15.5665 H         1 1N          0.0863
     70 H27        50.9018  -30.9278  -15.5460 H         1 1N          0.2321
     71 H28        48.5252  -33.5770  -15.5742 H         1 1N          0.1660
     72 H29        48.8334  -31.8721  -16.0000 H         1 1N          0.1660
     73 H30        51.7544  -34.1177  -14.1892 H         1 1N          0.1660
     74 H31        50.1638  -34.8375  -14.5561 H         1 1N          0.1660
     75 H32        57.6856  -29.7390  -12.5231 H         1 1N          0.0745
     76 H33        53.7988  -29.0436  -14.1610 H         1 1N          0.0879
     77 H34        53.9928  -27.6983  -16.2236 H         1 1N          0.0893
     78 H35        57.7862  -27.9431  -13.0460 H         1 1N          0.0879
     79 H36        57.9807  -26.5869  -15.1081 H         1 1N          0.0893
     80 H37        56.9279  -26.5302  -17.5072 H         1 1N          0.2373
     81 H38        54.9814  -23.9296  -18.7915 H         1 1N          0.1664
     82 H39        56.4184  -24.9630  -19.0144 H         1 1N          0.1664
     83 H40        54.0295  -25.4407  -15.7116 H         1 1N          0.1664
     84 H41        53.6436  -24.1885  -16.9223 H         1 1N          0.1664
@<TRIPOS>BOND
     1    1    2 ar 
     2    2    3 ar 
     3    2    4 ar 
     4    4    5 1  
     5    5    6 1  
     6    5   19 1  
     7    6    7 1  
     8    6    8 1  
     9    7   32 1  
    10    8    9 1  
    11    9   10 ar 
    12    9   14 ar 
    13   10   11 ar 
    14   11   12 ar 
    15   12   13 ar 
    16   12   15 1  
    17   13   14 ar 
    18   15   16 ar 
    19   16   17 ar 
    20   16   18 ar 
    21   19   20 1  
    22   20   21 1  
    23   20   32 1  
    24   21   22 1  
    25   22   23 ar 
    26   22   27 ar 
    27   23   24 ar 
    28   24   25 ar 
    29   25   26 ar 
    30   25   28 1  
    31   26   27 ar 
    32   28   29 ar 
    33   29   30 ar 
    34   29   31 ar 
    35   32   33 1  
    36   33   34 1  
    37   34   35 ar 
    38   34   37 ar 
    39   35   36 ar 
    40   36   39 ar 
    41   37   38 ar 
    42   38   39 ar 
    43   39   40 1  
    44   40   41 ar 
    45   41   42 ar 
    46   41   43 ar 
    47    1   44 1  
    48    1   45 1  
    49    3   46 1  
    50    3   47 1  
    51    4   48 1  
    52    5   49 1  
    53    6   50 1  
    54    7   51 1  
    55    7   52 1  
    56   10   53 1  
    57   11   54 1  
    58   13   55 1  
    59   14   56 1  
    60   15   57 1  
    61   17   58 1  
    62   17   59 1  
    63   18   60 1  
    64   18   61 1  
    65   19   62 1  
    66   19   63 1  
    67   20   64 1  
    68   21   65 1  
    69   23   66 1  
    70   24   67 1  
    71   26   68 1  
    72   27   69 1  
    73   28   70 1  
    74   30   71 1  
    75   30   72 1  
    76   31   73 1  
    77   31   74 1  
    78   32   75 1  
    79   35   76 1  
    80   36   77 1  
    81   37   78 1  
    82   38   79 1  
    83   40   80 1  
    84   42   81 1  
    85   42   82 1  
    86   43   83 1  
    87   43   84 1  
@<TRIPOS>SUBSTRUCTURE
     1 1N          1

