### 
### Created by X-TOOL on Mon Sep 10 21:13:33 2018
### 

@<TRIPOS>MOLECULE
5mja_ligand
   36    38     1     0     0
SMALL
GAST_HUCK


@<TRIPOS>ATOM
      1 C1          0.3120   47.8340  -11.2090 C.ar      1 7O3        -0.0461
      2 C2         -1.1010   47.8290  -11.3360 C.ar      1 7O3         0.0464
      3 C3         -1.8200   48.9890  -10.9390 C.ar      1 7O3         0.0277
      4 C7          1.9520   53.1790   -8.8970 C.3       1 7O3         0.1186
      5 C8         -3.7940   47.9500  -11.4280 C.ar      1 7O3         0.0546
      6 C9         -1.9040   46.7260  -11.8090 C.ar      1 7O3         0.1543
      7 C10        -1.7860   44.3260  -12.6430 C.ar      1 7O3         0.0735
      8 C11        -1.7000   43.2030  -11.8190 C.ar      1 7O3        -0.0087
      9 C12        -2.1240   41.9580  -12.2760 C.ar      1 7O3         0.0793
     10 C13        -2.6660   41.8230  -13.5490 C.ar      1 7O3        -0.0434
     11 C14        -2.7150   42.9150  -14.3940 C.ar      1 7O3        -0.0650
     12 C15        -2.2850   44.1570  -13.9430 C.ar      1 7O3         0.0524
     13 CL1        -2.3560   45.5100  -15.0260 Cl        1 7O3        -0.0885
     14 O1         -2.0560   40.8910  -11.4290 O.3       1 7O3        -0.3356
     15 N3         -1.2940   45.5840  -12.2280 N.pl3     1 7O3        -0.2486
     16 N2         -3.2400   46.8070  -11.8630 N.ar      1 7O3        -0.2581
     17 N1         -3.1880   49.0550  -10.9870 N.ar      1 7O3        -0.3031
     18 C4         -1.1110   50.0930  -10.4070 C.ar      1 7O3        -0.0246
     19 C5          0.2700   50.0810  -10.3480 C.ar      1 7O3         0.0739
     20 C           0.9660   48.9320  -10.7360 C.ar      1 7O3        -0.0279
     21 N           1.1060   51.1050   -9.8130 N.am      1 7O3        -0.2279
     22 C6          0.8590   52.4300   -9.6370 C.2       1 7O3         0.2215
     23 O          -0.1540   53.0220  -10.0260 O.2       1 7O3        -0.3819
     24 CL          3.0300   52.1740   -7.9140 Cl        1 7O3        -0.1006
     25 H1          0.8782   46.9539  -11.4916 H         1 7O3         0.0667
     26 H2          1.4711   53.9116   -8.2322 H         1 7O3         0.0677
     27 H3          2.5657   53.7070   -9.6417 H         1 7O3         0.0677
     28 H4         -4.8776   47.9797  -11.4359 H         1 7O3         0.1046
     29 H5         -1.3003   43.3007  -10.8161 H         1 7O3         0.0462
     30 H6         -3.0491   40.8637  -13.8777 H         1 7O3         0.0455
     31 H7         -3.0878   42.8032  -15.4057 H         1 7O3         0.0569
     32 H8         -1.5287   40.2071  -11.8247 H         1 7O3         0.2480
     33 H9         -0.2663   45.6499  -12.2464 H         1 7O3         0.2224
     34 H10        -1.6564   50.9560  -10.0424 H         1 7O3         0.0449
     35 H11         2.0471   48.9143  -10.6590 H         1 7O3         0.0572
     36 H12         2.0136   50.8016   -9.5227 H         1 7O3         0.2298
@<TRIPOS>BOND
     1    1    2 ar 
     2   20    1 ar 
     3    3    2 ar 
     4    2    6 ar 
     5    3   17 ar 
     6   18    3 ar 
     7   22    4 1  
     8    4   24 1  
     9    5   16 ar 
    10   17    5 ar 
    11    6   15 1  
    12    6   16 ar 
    13    7    8 ar 
    14    7   12 ar 
    15   15    7 1  
    16    8    9 ar 
    17    9   10 ar 
    18    9   14 1  
    19   11   10 ar 
    20   12   11 ar 
    21   12   13 1  
    22   19   18 ar 
    23   19   20 ar 
    24   21   19 1  
    25   21   22 am 
    26   22   23 2  
    27    1   25 1  
    28    4   26 1  
    29    4   27 1  
    30    5   28 1  
    31    8   29 1  
    32   10   30 1  
    33   11   31 1  
    34   14   32 1  
    35   15   33 1  
    36   18   34 1  
    37   20   35 1  
    38   21   36 1  
@<TRIPOS>SUBSTRUCTURE
     1 7O3         1

