### 
### Created by X-TOOL on Mon Sep 10 21:13:33 2018
### 

@<TRIPOS>MOLECULE
5mjb_ligand
   36    38     1     0     0
SMALL
GAST_HUCK


@<TRIPOS>ATOM
      1 C1          0.3770   47.8060  -11.4050 C.ar      1 7O3        -0.0461
      2 C2         -1.0360   47.8490  -11.5540 C.ar      1 7O3         0.0464
      3 C3         -1.7230   49.0390  -11.1940 C.ar      1 7O3         0.0277
      4 C7          2.0760   53.1420   -9.2090 C.3       1 7O3         0.0323
      5 C8         -3.7240   48.0480  -11.6880 C.ar      1 7O3         0.0546
      6 C9         -1.8640   46.7500  -11.9730 C.ar      1 7O3         0.1543
      7 C10        -1.7770   44.4020  -12.7550 C.ar      1 7O3         0.0735
      8 C11        -1.7750   43.2900  -11.9130 C.ar      1 7O3        -0.0087
      9 C12        -2.2410   42.0640  -12.3720 C.ar      1 7O3         0.0793
     10 C13        -2.7120   41.9350  -13.6730 C.ar      1 7O3        -0.0434
     11 C14        -2.6900   43.0250  -14.5250 C.ar      1 7O3        -0.0650
     12 C15        -2.2560   44.2500  -14.0590 C.ar      1 7O3         0.0524
     13 CL1        -2.2260   45.5980  -15.1530 Cl        1 7O3        -0.0885
     14 O1         -2.2120   40.9990  -11.5170 O.3       1 7O3        -0.3356
     15 N3         -1.2780   45.5990  -12.3510 N.pl3     1 7O3        -0.2486
     16 N2         -3.1970   46.8760  -12.0780 N.ar      1 7O3        -0.2581
     17 N1         -3.0890   49.1530  -11.2760 N.ar      1 7O3        -0.3031
     18 C4         -0.9840   50.1380  -10.6960 C.ar      1 7O3        -0.0246
     19 C5          0.3970   50.0770  -10.6210 C.ar      1 7O3         0.0738
     20 C           1.0630   48.8990  -10.9680 C.ar      1 7O3        -0.0279
     21 N           1.2380   51.0930  -10.1150 N.am      1 7O3        -0.2291
     22 C6          0.9930   52.4110   -9.9710 C.2       1 7O3         0.2036
     23 O          -0.0160   52.9930  -10.3810 O.2       1 7O3        -0.3835
     24 H1          0.9140   46.8945  -11.6414 H         1 7O3         0.0667
     25 H2          1.8129   54.2071   -9.1291 H         1 7O3         0.0473
     26 H3          3.0325   53.0397   -9.7424 H         1 7O3         0.0473
     27 H4          2.1701   52.7110   -8.2014 H         1 7O3         0.0473
     28 H5         -4.8062   48.1076  -11.7095 H         1 7O3         0.1046
     29 H6         -1.4086   43.3825  -10.8970 H         1 7O3         0.0462
     30 H7         -3.0959   40.9824  -14.0197 H         1 7O3         0.0455
     31 H8         -3.0123   42.9176  -15.5544 H         1 7O3         0.0569
     32 H9         -1.6611   40.3164  -11.8818 H         1 7O3         0.2480
     33 H10        -0.2488   45.6323  -12.3298 H         1 7O3         0.2224
     34 H11        -1.5022   51.0330  -10.3713 H         1 7O3         0.0449
     35 H12         2.1431   48.8538  -10.8883 H         1 7O3         0.0572
     36 H13         2.1452   50.7914   -9.8215 H         1 7O3         0.2297
@<TRIPOS>BOND
     1    1    2 ar 
     2   20    1 ar 
     3    3    2 ar 
     4    2    6 ar 
     5    3   17 ar 
     6   18    3 ar 
     7   22    4 1  
     8    5   16 ar 
     9   17    5 ar 
    10    6   15 1  
    11    6   16 ar 
    12    7    8 ar 
    13    7   12 ar 
    14   15    7 1  
    15    8    9 ar 
    16    9   10 ar 
    17    9   14 1  
    18   11   10 ar 
    19   12   11 ar 
    20   12   13 1  
    21   19   18 ar 
    22   19   20 ar 
    23   21   19 1  
    24   21   22 am 
    25   22   23 2  
    26    1   24 1  
    27    4   25 1  
    28    4   26 1  
    29    4   27 1  
    30    5   28 1  
    31    8   29 1  
    32   10   30 1  
    33   11   31 1  
    34   14   32 1  
    35   15   33 1  
    36   18   34 1  
    37   20   35 1  
    38   21   36 1  
@<TRIPOS>SUBSTRUCTURE
     1 7O3         1

