### 
### Created by X-TOOL on Mon Sep 10 21:13:33 2018
### 

@<TRIPOS>MOLECULE
5mkj_ligand
   46    47     1     0     0
SMALL
GAST_HUCK


@<TRIPOS>ATOM
      1 C12         2.9470  -17.8940   -2.3970 C.ar      1 4CU         0.0121
      2 C11         4.1910  -18.4800   -2.5930 C.ar      1 4CU        -0.0530
      3 C14         2.1090  -17.8120   -4.7870 C.ar      1 4CU        -0.0604
      4 C15         1.1050  -17.9490   -5.7340 C.ar      1 4CU        -0.0426
      5 C17         1.9460  -16.2870   -7.4590 C.2       1 4CU        -0.0799
      6 C20        -0.4450  -18.5610   -4.0120 C.ar      1 4CU        -0.0387
      7 C21         0.5590  -18.4270   -3.0630 C.ar      1 4CU         0.0925
      8 O22         0.2820  -18.6630   -1.7090 O.3       1 4CU        -0.3206
      9 O01         1.4680  -16.5580   -1.0280 O.3       1 4CU        -0.3284
     10 C02         2.7150  -17.1570   -1.2440 C.ar      1 4CU         0.1001
     11 C03         3.7110  -17.0140   -0.2940 C.ar      1 4CU        -0.0284
     12 C04         4.9480  -17.6020   -0.4910 C.ar      1 4CU        -0.0597
     13 C05         5.1910  -18.3340   -1.6410 C.ar      1 4CU        -0.0293
     14 C06         6.5640  -18.9770   -1.8460 C.2       1 4CU        -0.0538
     15 C07         7.6560  -18.2840   -1.5880 C.2       1 4CU        -0.0341
     16 C08         9.0390  -18.9020   -1.7850 C.2       1 4CU         0.0477
     17 O09         9.1620  -20.0230   -2.3420 O.co2     1 4CU        -0.5654
     18 O10        10.0620  -18.2810   -1.3940 O.co2     1 4CU        -0.5654
     19 C13         1.8400  -18.0500   -3.4470 C.ar      1 4CU         0.0043
     20 C16         1.4020  -17.6920   -7.2090 C.3       1 4CU         0.0028
     21 C18         3.0550  -16.1200   -8.1470 C.2       1 4CU        -0.1155
     22 C19        -0.1710  -18.3250   -5.3480 C.ar      1 4CU        -0.0673
     23 C23        -0.2160  -19.9370   -1.4100 C.3       1 4CU         0.0693
     24 C24         0.6350  -20.5130   -0.2810 C.3       1 4CU        -0.0280
     25 C25         0.8460  -19.5090    0.8490 C.3       1 4CU        -0.0628
     26 H1          4.3818  -19.0536   -3.4928 H         1 4CU         0.0607
     27 H2          3.1061  -17.5183   -5.0946 H         1 4CU         0.0522
     28 H3          1.4146  -15.4211   -7.0668 H         1 4CU         0.0685
     29 H4         -1.4440  -18.8506   -3.7067 H         1 4CU         0.0523
     30 H5          0.7950  -17.2283   -1.0093 H         1 4CU         0.2512
     31 H6          3.5218  -16.4403    0.6061 H         1 4CU         0.0553
     32 H7          5.7266  -17.4896    0.2548 H         1 4CU         0.0612
     33 H8          6.6393  -20.0029   -2.2035 H         1 4CU         0.0681
     34 H9          7.5707  -17.2590   -1.2303 H         1 4CU         0.0577
     35 H10         0.4723  -17.8178   -7.7834 H         1 4CU         0.0579
     36 H11         2.1470  -18.4250   -7.5520 H         1 4CU         0.0579
     37 H12         3.4404  -15.1169   -8.3236 H         1 4CU         0.0297
     38 H13         3.5875  -16.9849   -8.5399 H         1 4CU         0.0297
     39 H14        -0.9532  -18.4342   -6.0905 H         1 4CU         0.0528
     40 H15        -0.1489  -20.5836   -2.2974 H         1 4CU         0.0613
     41 H16        -1.2654  -19.8634   -1.0884 H         1 4CU         0.0613
     42 H17         1.6158  -20.8006   -0.6875 H         1 4CU         0.0288
     43 H18         0.1310  -21.4026    0.1246 H         1 4CU         0.0288
     44 H19         1.4624  -19.9674    1.6363 H         1 4CU         0.0231
     45 H20        -0.1286  -19.2190    1.2686 H         1 4CU         0.0231
     46 H21         1.3563  -18.6171    0.4565 H         1 4CU         0.0231
@<TRIPOS>BOND
     1    1    2 ar 
     2    1   10 ar 
     3   19    1 1  
     4    2   13 ar 
     5    4    3 ar 
     6    3   19 ar 
     7    4   20 1  
     8   22    4 ar 
     9   20    5 1  
    10    5   21 2  
    11    6    7 ar 
    12    6   22 ar 
    13    7    8 1  
    14    7   19 ar 
    15    8   23 1  
    16   10    9 1  
    17   10   11 ar 
    18   11   12 ar 
    19   12   13 ar 
    20   13   14 1  
    21   14   15 2  
    22   15   16 1  
    23   16   17 ar 
    24   16   18 ar 
    25   23   24 1  
    26   24   25 1  
    27    2   26 1  
    28    3   27 1  
    29    5   28 1  
    30    6   29 1  
    31    9   30 1  
    32   11   31 1  
    33   12   32 1  
    34   14   33 1  
    35   15   34 1  
    36   20   35 1  
    37   20   36 1  
    38   21   37 1  
    39   21   38 1  
    40   22   39 1  
    41   23   40 1  
    42   23   41 1  
    43   24   42 1  
    44   24   43 1  
    45   25   44 1  
    46   25   45 1  
    47   25   46 1  
@<TRIPOS>SUBSTRUCTURE
     1 4CU         1

