### 
### Created by X-TOOL on Mon Sep 10 21:13:31 2018
### 

@<TRIPOS>MOLECULE
5mkr_ligand
   59    62     1     0     0
SMALL
GAST_HUCK


@<TRIPOS>ATOM
      1 C         -13.0130   34.8590  -12.7240 C.ar      1 TI8         0.1208
      2 C1        -12.1260   33.7610  -12.7670 C.ar      1 TI8         0.0820
      3 C2        -10.8750   33.9890  -13.3190 C.ar      1 TI8         0.1531
      4 C3         -8.8100   32.5600  -13.5490 C.3       1 TI8         0.2009
      5 C4         -7.8730   32.3810  -12.3650 C.3       1 TI8         0.1376
      6 C5         -6.6870   31.7570  -13.0890 C.3       1 TI8         0.1123
      7 C6         -7.3820   30.8020  -14.0680 C.3       1 TI8         0.0906
      8 C7         -7.4530   29.3550  -13.6230 C.3       1 TI8        -0.0216
      9 C8         -8.5050   28.5280  -14.3440 C.3       1 TI8        -0.0228
     10 C9         -8.5300   27.0910  -13.8840 C.3       1 TI8         0.0755
     11 C10        -9.4780   25.9490  -11.9980 C.2       1 TI8         0.2533
     12 N         -14.2460   34.7980  -12.2250 N.pl3     1 TI8        -0.3182
     13 O          -7.5580   33.6290  -11.7660 O.3       1 TI8        -0.3837
     14 O2         -8.8630   27.0510  -12.4700 O.3       1 TI8        -0.2790
     15 C12        -9.6260   27.1230   -9.8840 C.2       1 TI8        -0.0769
     16 C21       -11.3450   36.1160  -13.7350 C.ar      1 TI8         0.0488
     17 C11        -9.8580   26.0760  -10.5760 C.2       1 TI8         0.0204
     18 N1        -10.2050   32.7860  -13.2310 N.pl3     1 TI8        -0.1701
     19 C16       -12.8710   29.5710   -9.5040 C.ar      1 TI8        -0.0577
     20 N2        -10.8520   30.6120  -12.4290 N.pl3     1 TI8        -0.2633
     21 O3         -9.6970   24.9820  -12.6790 O.2       1 TI8        -0.3601
     22 C14       -11.8460   29.7530  -11.8000 C.3       1 TI8         0.0671
     23 C15       -11.7480   29.7650  -10.2950 C.ar      1 TI8        -0.0202
     24 C13       -11.0960   31.9030  -12.6550 C.2       1 TI8         0.2238
     25 O1         -5.9670   32.7740  -13.7690 O.3       1 TI8        -0.3865
     26 C20       -10.5300   29.9680   -9.6670 C.ar      1 TI8        -0.0577
     27 N3        -12.2560   32.4440  -12.3550 N.2       1 TI8        -0.3032
     28 O4         -8.6950   31.3640  -14.2950 O.3       1 TI8        -0.3397
     29 C17       -12.7850   29.5850   -8.1250 C.ar      1 TI8        -0.0545
     30 C18       -11.5600   29.7900   -7.5330 C.ar      1 TI8         0.0330
     31 C19       -10.4280   29.9810   -8.2890 C.ar      1 TI8        -0.0545
     32 N4        -10.4220   35.1490  -13.8200 N.ar      1 TI8        -0.2770
     33 CL        -11.4400   29.8020   -5.7920 Cl        1 TI8        -0.0771
     34 N5        -12.5850   36.0440  -13.2300 N.ar      1 TI8        -0.2757
     35 H1         -8.4586   33.4131  -14.1480 H         1 TI8         0.0985
     36 H2         -8.2898   31.7044  -11.6044 H         1 TI8         0.0675
     37 H3         -6.0201   31.2164  -12.4013 H         1 TI8         0.0647
     38 H4         -6.8223   30.8173  -15.0148 H         1 TI8         0.0624
     39 H5         -7.6790   29.3366  -12.5466 H         1 TI8         0.0292
     40 H6         -6.4709   28.8920  -13.7995 H         1 TI8         0.0292
     41 H7         -8.2909   28.5487  -15.4227 H         1 TI8         0.0291
     42 H8         -9.4928   28.9746  -14.1576 H         1 TI8         0.0291
     43 H9         -7.5412   26.6360  -14.0427 H         1 TI8         0.0611
     44 H10        -9.2862   26.5339  -14.4565 H         1 TI8         0.0611
     45 H11       -14.8432   35.6372  -12.2237 H         1 TI8         0.1803
     46 H12       -14.6026   33.9116  -11.8403 H         1 TI8         0.1803
     47 H13        -6.8614   33.5076  -11.1316 H         1 TI8         0.2101
     48 H14        -9.9281   27.1627   -8.8385 H         1 TI8         0.0695
     49 H15        -9.1259   27.9767  -10.3390 H         1 TI8         0.0695
     50 H16       -11.0509   37.0835  -14.1256 H         1 TI8         0.0961
     51 H17       -10.3595   25.2370  -10.0958 H         1 TI8         0.0703
     52 H18       -13.8327   29.4055   -9.9760 H         1 TI8         0.0558
     53 H19        -9.9428   30.2142  -12.7046 H         1 TI8         0.1920
     54 H20       -11.6977   28.7226  -12.1552 H         1 TI8         0.0690
     55 H21       -12.8481   30.1006  -12.0913 H         1 TI8         0.0690
     56 H22        -5.5510   33.3448  -13.1337 H         1 TI8         0.2100
     57 H23        -9.6405   30.1195  -10.2677 H         1 TI8         0.0558
     58 H24       -13.6706   29.4365   -7.5178 H         1 TI8         0.0606
     59 H25        -9.4683   30.1397   -7.8107 H         1 TI8         0.0606
@<TRIPOS>BOND
     1    2    1 ar 
     2    1   12 1  
     3    1   34 ar 
     4    3    2 ar 
     5    2   27 1  
     6   18    3 1  
     7    3   32 ar 
     8    4    5 1  
     9   18    4 1  
    10    4   28 1  
    11    5    6 1  
    12    5   13 1  
    13    7    6 1  
    14    6   25 1  
    15    7    8 1  
    16   28    7 1  
    17    8    9 1  
    18    9   10 1  
    19   10   14 1  
    20   14   11 1  
    21   11   17 1  
    22   11   21 2  
    23   17   15 2  
    24   32   16 ar 
    25   16   34 ar 
    26   24   18 1  
    27   23   19 ar 
    28   19   29 ar 
    29   22   20 1  
    30   20   24 1  
    31   22   23 1  
    32   23   26 ar 
    33   24   27 2  
    34   26   31 ar 
    35   29   30 ar 
    36   30   31 ar 
    37   30   33 1  
    38    4   35 1  
    39    5   36 1  
    40    6   37 1  
    41    7   38 1  
    42    8   39 1  
    43    8   40 1  
    44    9   41 1  
    45    9   42 1  
    46   10   43 1  
    47   10   44 1  
    48   12   45 1  
    49   12   46 1  
    50   13   47 1  
    51   15   48 1  
    52   15   49 1  
    53   16   50 1  
    54   17   51 1  
    55   19   52 1  
    56   20   53 1  
    57   22   54 1  
    58   22   55 1  
    59   25   56 1  
    60   26   57 1  
    61   29   58 1  
    62   31   59 1  
@<TRIPOS>SUBSTRUCTURE
     1 TI8         1

