### 
### Created by X-TOOL on Mon Sep 10 21:13:33 2018
### 

@<TRIPOS>MOLECULE
5mks_ligand
   56    59     1     0     0
SMALL
GAST_HUCK


@<TRIPOS>ATOM
      1 C         -20.5080   -9.2630   12.5580 C.ar      1 TI8         0.1208
      2 C1        -19.5130   -9.1250   11.5650 C.ar      1 TI8         0.0820
      3 C2        -18.3280   -8.5200   11.9470 C.ar      1 TI8         0.1531
      4 C3        -16.1350   -8.1260   10.7870 C.3       1 TI8         0.2009
      5 C4        -15.1500   -9.2650   10.6020 C.3       1 TI8         0.1376
      6 C5        -13.9350   -8.4850   10.1110 C.3       1 TI8         0.1123
      7 C6        -14.5710   -7.4090    9.2260 C.3       1 TI8         0.0906
      8 C7        -14.5340   -7.6550    7.7320 C.3       1 TI8        -0.0219
      9 C8        -13.1860   -8.1590    7.2260 C.3       1 TI8        -0.0270
     10 C9        -13.2570   -8.6790    5.8150 C.3       1 TI8         0.0474
     11 C10       -11.9070   -9.9530    4.3310 C.3       1 TI8         0.0364
     12 N         -21.6890   -9.8430   12.3480 N.pl3     1 TI8        -0.3182
     13 O         -14.9460   -9.9490   11.8290 O.3       1 TI8        -0.3837
     14 O2        -11.9580   -9.2040    5.4400 O.3       1 TI8        -0.3830
     15 C21       -19.0440   -8.2190   14.0240 C.ar      1 TI8         0.0488
     16 N1        -17.5270   -8.5250   10.8250 N.pl3     1 TI8        -0.1701
     17 C16       -19.5690  -12.3340    7.5230 C.ar      1 TI8        -0.0577
     18 N2        -17.9330   -9.2520    8.5480 N.pl3     1 TI8        -0.2633
     19 C14       -18.8030   -9.9270    7.5980 C.3       1 TI8         0.0671
     20 C15       -18.5380  -11.4110    7.6070 C.ar      1 TI8        -0.0202
     21 C13       -18.2860   -9.1090    9.8290 C.2       1 TI8         0.2238
     22 O1        -13.2280   -7.9050   11.1970 O.3       1 TI8        -0.3865
     23 C20       -17.2410  -11.8830    7.7110 C.ar      1 TI8        -0.0577
     24 N3        -19.4780   -9.4930   10.2300 N.2       1 TI8        -0.3032
     25 O4        -15.9370   -7.2730    9.6810 O.3       1 TI8        -0.3397
     26 C17       -19.3140  -13.6930    7.5350 C.ar      1 TI8        -0.0545
     27 C18       -18.0120  -14.1270    7.6320 C.ar      1 TI8         0.0330
     28 C19       -16.9710  -13.2360    7.7270 C.ar      1 TI8        -0.0545
     29 N4        -18.0310   -8.0410   13.1660 N.ar      1 TI8        -0.2770
     30 CL        -17.6710  -15.8330    7.5930 Cl        1 TI8        -0.0771
     31 N5        -20.2370   -8.7880   13.8000 N.ar      1 TI8        -0.2757
     32 H1        -15.9000   -7.5974   11.7226 H         1 TI8         0.0985
     33 H2        -15.4920   -9.9838    9.8428 H         1 TI8         0.0675
     34 H3        -13.2559   -9.1275    9.5314 H         1 TI8         0.0647
     35 H4        -14.0368   -6.4650    9.4088 H         1 TI8         0.0624
     36 H5        -14.7662   -6.7102    7.2187 H         1 TI8         0.0292
     37 H6        -15.3000   -8.4047    7.4845 H         1 TI8         0.0292
     38 H7        -12.8434   -8.9710    7.8842 H         1 TI8         0.0288
     39 H8        -12.4640   -7.3298    7.2603 H         1 TI8         0.0288
     40 H9        -13.5349   -7.8611    5.1339 H         1 TI8         0.0560
     41 H10       -14.0097   -9.4788    5.7540 H         1 TI8         0.0560
     42 H11       -10.8725  -10.2858    4.1606 H         1 TI8         0.0523
     43 H12       -12.2472   -9.3580    3.4707 H         1 TI8         0.0523
     44 H13       -12.5593  -10.8305    4.4508 H         1 TI8         0.0523
     45 H14       -22.3725   -9.9122   13.1154 H         1 TI8         0.1803
     46 H15       -21.9185  -10.2221   11.4182 H         1 TI8         0.1803
     47 H16       -14.2361  -10.5723   11.7286 H         1 TI8         0.2101
     48 H17       -18.8773   -7.8553   15.0315 H         1 TI8         0.0961
     49 H18       -20.5923  -11.9845    7.4466 H         1 TI8         0.0558
     50 H19       -17.0285   -8.8774    8.2278 H         1 TI8         0.1920
     51 H20       -18.6147   -9.5312    6.5891 H         1 TI8         0.0690
     52 H21       -19.8521   -9.7443    7.8737 H         1 TI8         0.0690
     53 H22       -12.8449   -8.5935   11.7278 H         1 TI8         0.2100
     54 H23       -16.4219  -11.1764    7.7812 H         1 TI8         0.0558
     55 H24       -20.1279  -14.4059    7.4690 H         1 TI8         0.0606
     56 H25       -15.9505  -13.5912    7.8134 H         1 TI8         0.0606
@<TRIPOS>BOND
     1    2    1 ar 
     2    1   12 1  
     3    1   31 ar 
     4    3    2 ar 
     5    2   24 1  
     6   16    3 1  
     7    3   29 ar 
     8    4    5 1  
     9   16    4 1  
    10    4   25 1  
    11    5    6 1  
    12    5   13 1  
    13    7    6 1  
    14    6   22 1  
    15    7    8 1  
    16   25    7 1  
    17    8    9 1  
    18    9   10 1  
    19   10   14 1  
    20   14   11 1  
    21   29   15 ar 
    22   15   31 ar 
    23   21   16 1  
    24   20   17 ar 
    25   17   26 ar 
    26   19   18 1  
    27   18   21 1  
    28   19   20 1  
    29   20   23 ar 
    30   21   24 2  
    31   23   28 ar 
    32   26   27 ar 
    33   27   28 ar 
    34   27   30 1  
    35    4   32 1  
    36    5   33 1  
    37    6   34 1  
    38    7   35 1  
    39    8   36 1  
    40    8   37 1  
    41    9   38 1  
    42    9   39 1  
    43   10   40 1  
    44   10   41 1  
    45   11   42 1  
    46   11   43 1  
    47   11   44 1  
    48   12   45 1  
    49   12   46 1  
    50   13   47 1  
    51   15   48 1  
    52   17   49 1  
    53   18   50 1  
    54   19   51 1  
    55   19   52 1  
    56   22   53 1  
    57   23   54 1  
    58   26   55 1  
    59   28   56 1  
@<TRIPOS>SUBSTRUCTURE
     1 TI8         1

