### 
### Created by X-TOOL on Wed Jan  1 15:39:34 2020
### 

@<TRIPOS>MOLECULE
5mkx_ligand
   19    19     1     0     0
SMALL
GAST_HUCK


@<TRIPOS>ATOM
      1 C01        -1.6330    8.5740   35.1470 C.3       1 82I        -0.0256
      2 N05        -1.2660    9.7580   34.3710 N.2       1 82I        -0.3725
      3 C07        -0.5270    9.7230   33.2500 C.2       1 82I         0.0611
      4 C08        -0.0040    8.4910   32.7360 C.2       1 82I         0.0780
      5 N10         0.6950    8.3790   31.6470 N.2       1 82I        -0.1427
      6 N11         0.9580    9.5170   30.9390 N.am      1 82I        -0.1314
      7 C12         1.7470    9.3150   29.7270 C.3       1 82I         0.0722
      8 C16         0.5300   10.7810   31.2600 C.2       1 82I         0.2697
      9 O17         0.8090   11.7450   30.5540 O.2       1 82I        -0.3726
     10 C18        -0.2540   10.8410   32.4660 C.3       1 82I         0.1887
     11 CL1        -0.8360   12.3950   32.9420 Cl        1 82I        -0.0721
     12 H1         -2.2378    8.8771   36.0144 H         1 82I         0.0304
     13 H2         -0.7212    8.0666   35.4951 H         1 82I         0.0304
     14 H3         -2.2161    7.8878   34.5153 H         1 82I         0.0304
     15 H4         -0.2078    7.5821   33.3002 H         1 82I         0.0783
     16 H5          1.9064   10.2822   29.2279 H         1 82I         0.0604
     17 H6          1.2095    8.6364   29.0484 H         1 82I         0.0604
     18 H7          2.7195    8.8743   29.9917 H         1 82I         0.0604
     19 H8         -1.1710   10.6535   31.8881 H         1 82I         0.0964
@<TRIPOS>BOND
     1    1    2 1  
     2    2    3 2  
     3    3    4 1  
     4    3   10 1  
     5    4    5 2  
     6    5    6 1  
     7    6    7 1  
     8    6    8 am 
     9    8    9 2  
    10    8   10 1  
    11   10   11 1  
    12    1   12 1  
    13    1   13 1  
    14    1   14 1  
    15    4   15 1  
    16    7   16 1  
    17    7   17 1  
    18    7   18 1  
    19   10   19 1  
@<TRIPOS>SUBSTRUCTURE
     1 82I         1

