### 
### Created by X-TOOL on Wed Jan  1 15:39:34 2020
### 

@<TRIPOS>MOLECULE
5mky_ligand
   39    41     1     0     0
SMALL
GAST_HUCK


@<TRIPOS>ATOM
      1 C13         4.9640   14.6640    8.2000 C.ar      1 I0D        -0.0008
      2 C17         5.0840   16.0540    8.1900 C.ar      1 I0D        -0.0670
      3 C21         2.7130   16.3030    8.4570 C.ar      1 I0D        -0.0659
      4 C26         0.5460   14.4030    9.8020 C.2       1 I0D         0.0715
      5 C01         7.0860   11.6650    7.4110 C.3       1 I0D        -0.0417
      6 N05         5.8590   12.4790    7.5110 N.4       1 I0D         0.2452
      7 C06         4.8850   11.8480    8.4040 C.3       1 I0D        -0.0228
      8 C09         3.5490   12.5730    8.3480 C.3       1 I0D         0.0181
      9 C12         3.7020   14.0800    8.3560 C.ar      1 I0D        -0.0210
     10 C14         6.1910   13.8100    8.0210 C.3       1 I0D        -0.0018
     11 C19         3.9720   16.8660    8.3270 C.ar      1 I0D        -0.0797
     12 C23         2.5800   14.9150    8.4940 C.ar      1 I0D         0.0035
     13 N24         1.2950   14.3360    8.6690 N.2       1 I0D        -0.3214
     14 C27         1.1210   14.8830   11.0220 C.2       1 I0D         0.0770
     15 N29         0.4960   14.9700   12.1480 N.2       1 I0D        -0.1446
     16 N30        -0.8060   14.5700   12.1940 N.am      1 I0D        -0.1320
     17 C31        -1.4340   14.6740   13.5090 C.3       1 I0D         0.0723
     18 C35        -1.5310   14.0600   11.1470 C.2       1 I0D         0.2696
     19 O36        -2.6970   13.7290   11.2940 O.2       1 I0D        -0.3724
     20 C37        -0.7810   13.9910    9.9100 C.3       1 I0D         0.1888
     21 CL3        -1.6170   13.3900    8.5190 Cl        1 I0D        -0.0725
     22 H1          6.0630   16.5046    8.0732 H         1 I0D         0.0496
     23 H2          1.8368   16.9371    8.5295 H         1 I0D         0.0500
     24 H3          6.8327   10.6656    7.0275 H         1 I0D         0.0778
     25 H4          7.5453   11.5703    8.4060 H         1 I0D         0.0778
     26 H5          7.7944   12.1523    6.7249 H         1 I0D         0.0778
     27 H6          5.4515   12.5682    6.5934 H         1 I0D         0.2045
     28 H7          5.2684   11.8784    9.4345 H         1 I0D         0.0836
     29 H8          4.7401   10.8016    8.0974 H         1 I0D         0.0836
     30 H9          2.9500   12.2753    9.2212 H         1 I0D         0.0457
     31 H10         3.0262   12.2771    7.4265 H         1 I0D         0.0457
     32 H11         6.6949   13.7030    8.9929 H         1 I0D         0.0962
     33 H12         6.8682   14.3049    7.3093 H         1 I0D         0.0962
     34 H13         4.0862   17.9440    8.3326 H         1 I0D         0.0531
     35 H14         2.1631   15.1981   10.9983 H         1 I0D         0.0786
     36 H15        -2.4770   14.3305   13.4454 H         1 I0D         0.0605
     37 H16        -1.4128   15.7216   13.8437 H         1 I0D         0.0605
     38 H17        -0.8851   14.0482   14.2280 H         1 I0D         0.0605
     39 H18        -0.4397   12.9771   10.1658 H         1 I0D         0.0960
@<TRIPOS>BOND
     1    1    2 ar 
     2    9    1 ar 
     3    1   10 1  
     4   11    2 ar 
     5    3   11 ar 
     6   12    3 ar 
     7   13    4 2  
     8    4   14 1  
     9    4   20 1  
    10    6    5 1  
    11    7    6 1  
    12   10    6 1  
    13    8    7 1  
    14    9    8 1  
    15   12    9 ar 
    16   12   13 1  
    17   14   15 2  
    18   15   16 1  
    19   16   17 1  
    20   16   18 am 
    21   18   19 2  
    22   18   20 1  
    23   20   21 1  
    24    2   22 1  
    25    3   23 1  
    26    5   24 1  
    27    5   25 1  
    28    5   26 1  
    29    6   27 1  
    30    7   28 1  
    31    7   29 1  
    32    8   30 1  
    33    8   31 1  
    34   10   32 1  
    35   10   33 1  
    36   11   34 1  
    37   14   35 1  
    38   17   36 1  
    39   17   37 1  
    40   17   38 1  
    41   20   39 1  
@<TRIPOS>SUBSTRUCTURE
     1 I0D         1

