### 
### Created by X-TOOL on Wed Jan  1 15:39:34 2020
### 

@<TRIPOS>MOLECULE
5mkz_ligand
   29    30     1     0     0
SMALL
GAST_HUCK


@<TRIPOS>ATOM
      1 C17        25.3750   50.8450   -0.8460 C.2       1 RNK         0.0764
      2 C22        24.9250   47.4790    1.6250 C.3       1 RNK         0.0718
      3 C26        23.9360   49.0290    0.0020 C.2       1 RNK         0.2140
      4 C28        24.1580   50.1920   -0.7920 C.2       1 RNK         0.1092
      5 C01        29.8170   51.1170   -1.4690 C.3       1 RNK        -0.0502
      6 C05        28.9160   50.6840   -2.5920 C.2       1 RNK        -0.0656
      7 C06        29.2740   49.6780   -3.5380 C.2       1 RNK        -0.0875
      8 C08        28.3210   49.4610   -4.4730 C.2       1 RNK        -0.0219
      9 S10        26.9590   50.4770   -4.2350 S.3       1 RNK        -0.0533
     10 C11        27.6780   51.2120   -2.8410 C.2       1 RNK         0.0294
     11 C12        26.9440   52.3040   -2.0790 C.3       1 RNK         0.0658
     12 N15        25.6280   51.9090   -1.6300 N.pl3     1 RNK        -0.3039
     13 C18        26.3760   50.3160    0.0360 C.2       1 RNK         0.0733
     14 N20        26.2210   49.2880    0.7940 N.2       1 RNK        -0.1522
     15 N21        25.0150   48.6550    0.7700 N.am      1 RNK        -0.1486
     16 O27        22.8820   48.4000    0.0290 O.2       1 RNK        -0.4277
     17 CL2        22.8700   50.6940   -1.8010 Cl        1 RNK        -0.1004
     18 H1         25.8772   47.3393    2.1578 H         1 RNK         0.0614
     19 H2         24.7165   46.5923    1.0083 H         1 RNK         0.0614
     20 H3         24.1135   47.6173    2.3546 H         1 RNK         0.0614
     21 H4         30.7477   50.5315   -1.4991 H         1 RNK         0.0312
     22 H5         29.3100   50.9505   -0.5071 H         1 RNK         0.0312
     23 H6         30.0525   52.1858   -1.5792 H         1 RNK         0.0312
     24 H7         30.2197   49.1388   -3.5102 H         1 RNK         0.0360
     25 H8         28.4075   48.7318   -5.2772 H         1 RNK         0.0599
     26 H9         26.8390   53.1783   -2.7382 H         1 RNK         0.0678
     27 H10        27.5443   52.5782   -1.1990 H         1 RNK         0.0678
     28 H11        24.8273   52.4825   -1.9315 H         1 RNK         0.1843
     29 H12        27.3394   50.8229    0.0659 H         1 RNK         0.0778
@<TRIPOS>BOND
     1    1    4 2  
     2   12    1 1  
     3    1   13 1  
     4   15    2 1  
     5    4    3 1  
     6    3   15 am 
     7    3   16 2  
     8    4   17 1  
     9    6    5 1  
    10    6    7 1  
    11   10    6 2  
    12    8    7 2  
    13    9    8 1  
    14   10    9 1  
    15   11   10 1  
    16   11   12 1  
    17   13   14 2  
    18   14   15 1  
    19    2   18 1  
    20    2   19 1  
    21    2   20 1  
    22    5   21 1  
    23    5   22 1  
    24    5   23 1  
    25    7   24 1  
    26    8   25 1  
    27   11   26 1  
    28   11   27 1  
    29   12   28 1  
    30   13   29 1  
@<TRIPOS>SUBSTRUCTURE
     1 RNK         1

