### 
### Created by X-TOOL on Wed Jan  1 15:39:34 2020
### 

@<TRIPOS>MOLECULE
5ml0_ligand
   35    36     1     0     0
SMALL
GAST_HUCK


@<TRIPOS>ATOM
      1 C15       -14.8940   16.3570    9.8770 C.3       1 P2L         0.0384
      2 C17       -13.8680   16.3660   10.9870 C.3       1 P2L        -0.0229
      3 C22       -14.6170   14.3150    8.4750 C.2       1 P2L         0.0617
      4 C01       -13.4740   16.9770   13.2890 C.3       1 P2L        -0.0431
      5 N05       -14.4170   17.0540   12.1620 N.4       1 P2L         0.2336
      6 C06       -14.7160   18.4510   11.8330 C.3       1 P2L        -0.0321
      7 C09       -15.7590   18.5240   10.7380 C.3       1 P2L        -0.0116
      8 C12       -15.2940   17.7680    9.5050 C.3       1 P2L        -0.0343
      9 N20       -14.3710   15.6030    8.7390 N.2       1 P2L        -0.3606
     10 C23       -15.4080   13.5140    9.3710 C.2       1 P2L         0.0780
     11 N25       -15.7020   12.2680    9.1850 N.2       1 P2L        -0.1427
     12 N26       -15.2220   11.6600    8.0650 N.am      1 P2L        -0.1314
     13 C27       -15.5990   10.2560    7.9200 C.3       1 P2L         0.0722
     14 C31       -14.4470   12.2560    7.1030 C.2       1 P2L         0.2697
     15 O32       -14.0710   11.6340    6.1160 O.2       1 P2L        -0.3726
     16 C33       -14.1510   13.6430    7.3620 C.3       1 P2L         0.1887
     17 CL1       -13.1670   14.4460    6.1870 Cl        1 P2L        -0.0721
     18 H1        -15.7936   15.8398   10.2418 H         1 P2L         0.0428
     19 H2        -12.9639   16.8910   10.6451 H         1 P2L         0.0822
     20 H3        -13.6113   15.3308   11.2562 H         1 P2L         0.0822
     21 H4        -13.9002   17.4966   14.1598 H         1 P2L         0.0777
     22 H5        -12.5244   17.4544   13.0058 H         1 P2L         0.0777
     23 H6        -13.2926   15.9225   13.5439 H         1 P2L         0.0777
     24 H7        -15.2744   16.5971   12.4307 H         1 P2L         0.2031
     25 H8        -13.7961   18.9477   11.4909 H         1 P2L         0.0814
     26 H9        -15.0963   18.9612   12.7302 H         1 P2L         0.0814
     27 H10       -15.9312   19.5775   10.4724 H         1 P2L         0.0317
     28 H11       -16.6970   18.0796   11.1021 H         1 P2L         0.0317
     29 H12       -16.1123   17.7321    8.7708 H         1 P2L         0.0276
     30 H13       -14.4294   18.2868    9.0654 H         1 P2L         0.0276
     31 H14       -15.7874   13.9922   10.2728 H         1 P2L         0.0783
     32 H15       -15.1671    9.8544    6.9915 H         1 P2L         0.0604
     33 H16       -16.6951   10.1728    7.8804 H         1 P2L         0.0604
     34 H17       -15.2186    9.6836    8.7788 H         1 P2L         0.0604
     35 H18       -13.2558   13.3505    7.9303 H         1 P2L         0.0964
@<TRIPOS>BOND
     1    1    2 1  
     2    1    8 1  
     3    1    9 1  
     4    2    5 1  
     5    9    3 2  
     6    3   10 1  
     7    3   16 1  
     8    5    4 1  
     9    5    6 1  
    10    6    7 1  
    11    7    8 1  
    12   10   11 2  
    13   11   12 1  
    14   12   13 1  
    15   12   14 am 
    16   14   15 2  
    17   14   16 1  
    18   16   17 1  
    19    1   18 1  
    20    2   19 1  
    21    2   20 1  
    22    4   21 1  
    23    4   22 1  
    24    4   23 1  
    25    5   24 1  
    26    6   25 1  
    27    6   26 1  
    28    7   27 1  
    29    7   28 1  
    30    8   29 1  
    31    8   30 1  
    32   10   31 1  
    33   13   32 1  
    34   13   33 1  
    35   13   34 1  
    36   16   35 1  
@<TRIPOS>SUBSTRUCTURE
     1 P2L         1

