### 
### Created by X-TOOL on Mon Sep 10 21:13:33 2018
### 

@<TRIPOS>MOLECULE
5ml2_ligand
   61    64     1     0     0
SMALL
GAST_HUCK


@<TRIPOS>ATOM
      1 CBC       -22.7090   21.5240    7.3560 C.ar      1 NH6        -0.0582
      2 CBD       -22.5910   20.4760    8.2600 C.ar      1 NH6        -0.0545
      3 CBE       -21.8140   19.3940    7.9020 C.ar      1 NH6         0.0330
      4 CL        -21.6780   18.1210    8.9980 Cl        1 NH6        -0.0771
      5 CBF       -21.1320   19.3440    6.7080 C.ar      1 NH6        -0.0545
      6 CBG       -21.2330   20.4060    5.8220 C.ar      1 NH6        -0.0582
      7 CAW       -22.0310   21.4990    6.1280 C.ar      1 NH6        -0.0241
      8 CAV       -22.0840   22.5270    5.1840 C.3       1 NH6         0.0637
      9 NAU       -23.1300   23.5300    5.5630 N.am      1 NH6        -0.2198
     10 CAX       -24.0560   23.4660    4.4200 C.3       1 NH6         0.0431
     11 CAY       -24.4990   24.6290    3.6520 C.3       1 NH6        -0.0328
     12 CAZ       -25.2790   23.7450    2.6420 C.3       1 NH6        -0.0513
     13 CBA       -25.8120   22.5480    3.4050 C.3       1 NH6        -0.0513
     14 CBB       -25.3390   22.7920    4.8090 C.3       1 NH6        -0.0328
     15 SAR       -22.5070   24.9270    6.4980 S.o2      1 NH6         0.0725
     16 OAS       -23.5040   25.1790    7.5640 O.2       1 NH6        -0.1499
     17 OAT       -21.1390   24.5540    6.9360 O.2       1 NH6        -0.1499
     18 CAO       -22.4100   26.3840    5.5270 C.ar      1 NH6         0.1086
     19 CAP       -21.4750   26.4250    4.5100 C.ar      1 NH6        -0.0332
     20 CAQ       -21.3790   27.5460    3.7000 C.ar      1 NH6        -0.0332
     21 CAN       -23.2440   27.4740    5.7510 C.ar      1 NH6        -0.0332
     22 CAM       -23.1450   28.5980    4.9390 C.ar      1 NH6        -0.0332
     23 CAL       -22.2100   28.6260    3.9250 C.ar      1 NH6         0.1084
     24 SAI       -22.0730   30.0610    2.8860 S.o2      1 NH6         0.0699
     25 OAJ       -21.8230   29.5770    1.5100 O.2       1 NH6        -0.1501
     26 OAK       -23.3100   30.8920    3.0770 O.2       1 NH6        -0.1501
     27 NAH       -20.7080   30.9900    3.3790 N.am      1 NH6        -0.2362
     28 CAA       -19.4340   30.2870    3.2140 C.3       1 NH6         0.0602
     29 CAB       -18.4410   31.1050    2.5700 C.ar      1 NH6        -0.0246
     30 CAC       -18.2850   31.1010    1.1830 C.ar      1 NH6        -0.0588
     31 CAD       -17.2980   31.8730    0.5620 C.ar      1 NH6        -0.0685
     32 CAE       -16.4380   32.6640    1.3270 C.ar      1 NH6        -0.0687
     33 CAF       -16.5860   32.6780    2.7130 C.ar      1 NH6        -0.0685
     34 CAG       -17.5690   31.8990    3.3200 C.ar      1 NH6        -0.0588
     35 H1        -23.3345   22.3741    7.6031 H         1 NH6         0.0558
     36 H2        -23.0950   20.5076    9.2192 H         1 NH6         0.0606
     37 H3        -20.5215   18.4826    6.4623 H         1 NH6         0.0606
     38 H4        -20.6862   20.3821    4.8863 H         1 NH6         0.0558
     39 H5        -22.3288   22.1026    4.1991 H         1 NH6         0.0642
     40 H6        -21.1046   23.0254    5.1354 H         1 NH6         0.0642
     41 H7        -23.5382   22.8206    3.6953 H         1 NH6         0.0516
     42 H8        -23.6736   25.1948    3.1952 H         1 NH6         0.0284
     43 H9        -25.1414   25.3148    4.2237 H         1 NH6         0.0284
     44 H10       -24.6069   23.4097    1.8383 H         1 NH6         0.0266
     45 H11       -26.1130   24.3161    2.2082 H         1 NH6         0.0266
     46 H12       -25.3964   21.6105    3.0070 H         1 NH6         0.0266
     47 H13       -26.9104   22.5102    3.3607 H         1 NH6         0.0266
     48 H14       -26.0118   23.4517    5.3766 H         1 NH6         0.0284
     49 H15       -25.1775   21.8609    5.3720 H         1 NH6         0.0284
     50 H16       -20.8162   25.5800    4.3456 H         1 NH6         0.0638
     51 H17       -20.6550   27.5748    2.8937 H         1 NH6         0.0638
     52 H18       -23.9691   27.4473    6.5563 H         1 NH6         0.0638
     53 H19       -23.7986   29.4474    5.1016 H         1 NH6         0.0638
     54 H20       -20.7789   31.9189    3.7425 H         1 NH6         0.1699
     55 H21       -19.6022   29.3876    2.6034 H         1 NH6         0.0638
     56 H22       -19.0610   29.9923    4.2060 H         1 NH6         0.0638
     57 H23       -18.9412   30.4880    0.5758 H         1 NH6         0.0557
     58 H24       -17.2001   31.8574   -0.5175 H         1 NH6         0.0599
     59 H25       -15.6669   33.2582    0.8501 H         1 NH6         0.0559
     60 H26       -15.9348   33.2964    3.3201 H         1 NH6         0.0599
     61 H27       -17.6596   31.9091    4.4002 H         1 NH6         0.0557
@<TRIPOS>BOND
     1    1    2 ar 
     2    1    7 ar 
     3    2    3 ar 
     4    3    4 1  
     5    3    5 ar 
     6    5    6 ar 
     7    6    7 ar 
     8    7    8 1  
     9    8    9 1  
    10    9   10 1  
    11    9   15 am 
    12   10   11 1  
    13   10   14 1  
    14   11   12 1  
    15   12   13 1  
    16   13   14 1  
    17   15   16 2  
    18   15   17 2  
    19   15   18 1  
    20   18   19 ar 
    21   18   21 ar 
    22   19   20 ar 
    23   20   23 ar 
    24   21   22 ar 
    25   22   23 ar 
    26   23   24 1  
    27   24   25 2  
    28   24   26 2  
    29   24   27 am 
    30   27   28 1  
    31   28   29 1  
    32   29   30 ar 
    33   29   34 ar 
    34   30   31 ar 
    35   31   32 ar 
    36   32   33 ar 
    37   33   34 ar 
    38    1   35 1  
    39    2   36 1  
    40    5   37 1  
    41    6   38 1  
    42    8   39 1  
    43    8   40 1  
    44   10   41 1  
    45   11   42 1  
    46   11   43 1  
    47   12   44 1  
    48   12   45 1  
    49   13   46 1  
    50   13   47 1  
    51   14   48 1  
    52   14   49 1  
    53   19   50 1  
    54   20   51 1  
    55   21   52 1  
    56   22   53 1  
    57   27   54 1  
    58   28   55 1  
    59   28   56 1  
    60   30   57 1  
    61   31   58 1  
    62   32   59 1  
    63   33   60 1  
    64   34   61 1  
@<TRIPOS>SUBSTRUCTURE
     1 NH6         1

