### 
### Created by X-TOOL on Mon Sep 10 21:13:32 2018
### 

@<TRIPOS>MOLECULE
5ml3_ligand
   83    87     1     0     0
SMALL
GAST_HUCK


@<TRIPOS>ATOM
      1 C4        -36.5010    0.0670   -2.5780 C.ar      1 DL3         0.0496
      2 C5        -36.6670    0.2420   -1.2090 C.ar      1 DL3        -0.0208
      3 C6        -36.9780   -0.8610   -0.4130 C.ar      1 DL3         0.0058
      4 N1        -37.0960   -2.1240   -0.9480 N.ar      1 DL3        -0.2637
      5 N3        -36.6170   -1.1910   -3.0380 N.ar      1 DL3        -0.2535
      6 CBQ       -37.4730   -4.6380   -2.0600 C.3       1 DL3         0.0194
      7 NBP       -37.0150   -3.4620   -2.8210 N.pl3     1 DL3        -0.2936
      8 C2        -36.9050   -2.2650   -2.2710 C.ar      1 DL3         0.1820
      9 CAA       -36.1810    1.1730   -3.4390 C.3       1 DL3         0.0815
     10 NAH       -37.2770    2.2050   -3.5650 N.am      1 DL3        -0.2185
     11 CAI       -37.8970    2.5130   -4.8620 C.3       1 DL3         0.0356
     12 CAJ       -39.1610    1.7280   -5.2100 C.3       1 DL3        -0.0141
     13 CAK       -40.0110    2.5390   -6.1040 C.3       1 DL3        -0.0081
     14 CAL       -41.0360    1.6000   -6.6900 C.3       1 DL3        -0.0334
     15 NAM       -41.7450    0.8120   -5.6480 N.4       1 DL3         0.2270
     16 CAN       -41.4680    1.2580   -4.2600 C.3       1 DL3        -0.0334
     17 CAO       -39.9800    1.4520   -3.9540 C.3       1 DL3        -0.0081
     18 SAP       -36.9300    3.8100   -2.9440 S.o2      1 DL3         0.0728
     19 OAQ       -36.2210    3.5410   -1.6430 O.2       1 DL3        -0.1499
     20 OAR       -38.1940    4.5890   -2.9640 O.2       1 DL3        -0.1499
     21 CAS       -35.8150    4.6750   -4.0000 C.ar      1 DL3         0.1087
     22 CAX       -36.2470    5.6070   -4.9430 C.ar      1 DL3        -0.0332
     23 CAW       -35.3140    6.2510   -5.7570 C.ar      1 DL3        -0.0332
     24 CAT       -34.4750    4.4020   -3.8570 C.ar      1 DL3        -0.0332
     25 CAU       -33.5390    5.0350   -4.6510 C.ar      1 DL3        -0.0332
     26 CAV       -33.9580    5.9650   -5.6040 C.ar      1 DL3         0.1086
     27 SAY       -32.7500    6.7690   -6.5410 S.o2      1 DL3         0.0725
     28 OAZ       -33.4940    7.4300   -7.6630 O.2       1 DL3        -0.1499
     29 OBA       -31.7000    5.7940   -6.9410 O.2       1 DL3        -0.1499
     30 NBB       -31.9280    7.9850   -5.6680 N.am      1 DL3        -0.2198
     31 CBE       -32.3460    8.8980   -4.5560 C.3       1 DL3         0.0431
     32 CBF       -33.4720    8.5910   -3.6360 C.3       1 DL3        -0.0328
     33 CBG       -33.2230    9.8200   -2.7280 C.3       1 DL3        -0.0513
     34 CBH       -32.4200   10.8690   -3.5320 C.3       1 DL3        -0.0513
     35 CBI       -32.4180   10.3080   -4.9500 C.3       1 DL3        -0.0328
     36 CBC       -30.5330    7.6560   -5.2260 C.3       1 DL3         0.0637
     37 CBD       -29.5890    8.1480   -6.1690 C.ar      1 DL3        -0.0241
     38 CBJ       -29.9530    8.6010   -7.4450 C.ar      1 DL3        -0.0582
     39 CBK       -28.9970    9.0360   -8.3580 C.ar      1 DL3        -0.0545
     40 CBL       -27.6680    9.0240   -7.9760 C.ar      1 DL3         0.0330
     41 CL        -26.4640    9.5380   -9.0780 Cl        1 DL3        -0.0771
     42 CBM       -27.2940    8.5730   -6.7170 C.ar      1 DL3        -0.0545
     43 CBN       -28.2550    8.1370   -5.8210 C.ar      1 DL3        -0.0582
     44 H1        -36.5561    1.2245   -0.7647 H         1 DL3         0.0605
     45 H2        -37.1302   -0.7202    0.6510 H         1 DL3         0.0872
     46 H3        -37.4856   -5.5188   -2.7188 H         1 DL3         0.0488
     47 H4        -38.4868   -4.4536   -1.6750 H         1 DL3         0.0488
     48 H5        -36.7885   -4.8195   -1.2183 H         1 DL3         0.0488
     49 H6        -36.7723   -3.5767   -3.8154 H         1 DL3         0.1858
     50 H7        -35.9652    0.7766   -4.4421 H         1 DL3         0.0695
     51 H8        -35.2845    1.6706   -3.0407 H         1 DL3         0.0695
     52 H9        -37.1517    2.3133   -5.6460 H         1 DL3         0.0483
     53 H10       -38.1548    3.5823   -4.8650 H         1 DL3         0.0483
     54 H11       -38.8856    0.7815   -5.6982 H         1 DL3         0.0320
     55 H12       -39.4029    2.9851   -6.9047 H         1 DL3         0.0320
     56 H13       -40.5090    3.3370   -5.5338 H         1 DL3         0.0320
     57 H14       -40.5275    0.9043   -7.3737 H         1 DL3         0.0814
     58 H15       -41.7758    2.1902   -7.2507 H         1 DL3         0.0814
     59 H16       -41.4630   -0.1520   -5.7332 H         1 DL3         0.2013
     60 H17       -42.7365    0.8880   -5.8132 H         1 DL3         0.2013
     61 H18       -41.8680    0.5027   -3.5675 H         1 DL3         0.0814
     62 H19       -41.9829    2.2160   -4.0951 H         1 DL3         0.0814
     63 H20       -39.8687    2.3025   -3.2654 H         1 DL3         0.0320
     64 H21       -39.5958    0.5395   -3.4748 H         1 DL3         0.0320
     65 H22       -37.3030    5.8304   -5.0434 H         1 DL3         0.0638
     66 H23       -35.6408    6.9675   -6.5019 H         1 DL3         0.0638
     67 H24       -34.1501    3.6829   -3.1138 H         1 DL3         0.0638
     68 H25       -32.4848    4.8109   -4.5348 H         1 DL3         0.0638
     69 H26       -31.4737    8.8467   -3.8878 H         1 DL3         0.0516
     70 H27       -33.3496    7.6334   -3.1088 H         1 DL3         0.0284
     71 H28       -34.4532    8.6134   -4.1326 H         1 DL3         0.0284
     72 H29       -32.6502    9.5152   -1.8398 H         1 DL3         0.0266
     73 H30       -34.1853   10.2504   -2.4138 H         1 DL3         0.0266
     74 H31       -31.3947   10.9605   -3.1443 H         1 DL3         0.0266
     75 H32       -32.9136   11.8515   -3.4989 H         1 DL3         0.0266
     76 H33       -33.3377   10.5483   -5.5035 H         1 DL3         0.0284
     77 H34       -31.5436   10.6314   -5.5338 H         1 DL3         0.0284
     78 H35       -30.4267    6.5644   -5.1416 H         1 DL3         0.0642
     79 H36       -30.3434    8.1197   -4.2467 H         1 DL3         0.0642
     80 H37       -30.9999    8.6126   -7.7259 H         1 DL3         0.0558
     81 H38       -29.2873    9.3763   -9.3454 H         1 DL3         0.0606
     82 H39       -26.2473    8.5623   -6.4352 H         1 DL3         0.0606
     83 H40       -27.9569    7.7849   -4.8401 H         1 DL3         0.0558
@<TRIPOS>BOND
     1    1    2 ar 
     2    5    1 ar 
     3    1    9 1  
     4    3    2 ar 
     5    4    3 ar 
     6    8    4 ar 
     7    8    5 ar 
     8    7    6 1  
     9    7    8 1  
    10    9   10 1  
    11   10   11 1  
    12   10   18 am 
    13   11   12 1  
    14   12   13 1  
    15   12   17 1  
    16   13   14 1  
    17   14   15 1  
    18   15   16 1  
    19   16   17 1  
    20   18   19 2  
    21   18   20 2  
    22   18   21 1  
    23   21   22 ar 
    24   21   24 ar 
    25   22   23 ar 
    26   23   26 ar 
    27   24   25 ar 
    28   25   26 ar 
    29   26   27 1  
    30   27   28 2  
    31   27   29 2  
    32   27   30 am 
    33   30   31 1  
    34   30   36 1  
    35   31   32 1  
    36   31   35 1  
    37   32   33 1  
    38   33   34 1  
    39   34   35 1  
    40   36   37 1  
    41   37   38 ar 
    42   37   43 ar 
    43   38   39 ar 
    44   39   40 ar 
    45   40   41 1  
    46   40   42 ar 
    47   42   43 ar 
    48    2   44 1  
    49    3   45 1  
    50    6   46 1  
    51    6   47 1  
    52    6   48 1  
    53    7   49 1  
    54    9   50 1  
    55    9   51 1  
    56   11   52 1  
    57   11   53 1  
    58   12   54 1  
    59   13   55 1  
    60   13   56 1  
    61   14   57 1  
    62   14   58 1  
    63   15   59 1  
    64   15   60 1  
    65   16   61 1  
    66   16   62 1  
    67   17   63 1  
    68   17   64 1  
    69   22   65 1  
    70   23   66 1  
    71   24   67 1  
    72   25   68 1  
    73   31   69 1  
    74   32   70 1  
    75   32   71 1  
    76   33   72 1  
    77   33   73 1  
    78   34   74 1  
    79   34   75 1  
    80   35   76 1  
    81   35   77 1  
    82   36   78 1  
    83   36   79 1  
    84   38   80 1  
    85   39   81 1  
    86   42   82 1  
    87   43   83 1  
@<TRIPOS>SUBSTRUCTURE
     1 DL3         1

