### 
### Created by X-TOOL on Mon Sep 10 21:13:32 2018
### 

@<TRIPOS>MOLECULE
5ml4_ligand
   87    91     1     0     0
SMALL
GAST_HUCK


@<TRIPOS>ATOM
      1 CBT       -15.0730   33.7120    3.9610 C.3       1 RRQ         0.0132
      2 NBP       -15.3500   33.6640    2.5090 N.pl3     1 RRQ        -0.3243
      3 CBL       -16.4980   33.1080    2.0750 C.ar      1 RRQ         0.0458
      4 CBK       -17.1970   32.1670    2.8420 C.ar      1 RRQ        -0.0381
      5 CBM       -16.9780   33.4970    0.8090 C.ar      1 RRQ         0.0204
      6 CBQ       -16.3260   34.4560   -0.0220 C.2       1 RRQ         0.0516
      7 OBS       -16.7680   34.7580   -1.1580 O.co2     1 RRQ        -0.5667
      8 OBR       -15.3170   35.0820    0.3730 O.co2     1 RRQ        -0.5667
      9 CBN       -18.1720   32.9010    0.3840 C.ar      1 RRQ        -0.0654
     10 CBO       -18.8700   31.9570    1.1460 C.ar      1 RRQ        -0.0680
     11 CBJ       -18.3890   31.5840    2.3990 C.ar      1 RRQ        -0.0334
     12 CBB       -19.0400   30.6580    3.2090 C.3       1 RRQ         0.0616
     13 NAA       -20.4210   31.1760    3.4520 N.am      1 RRQ        -0.2224
     14 CBC       -20.6320   31.6090    4.8500 C.3       1 RRQ         0.0351
     15 CBD       -21.4750   32.8990    4.8420 C.3       1 RRQ        -0.0142
     16 CBE       -20.8290   33.9370    3.9340 C.3       1 RRQ        -0.0081
     17 CBF       -21.7530   35.1660    4.0100 C.3       1 RRQ        -0.0334
     18 NBG       -21.8070   35.6980    5.3800 N.4       1 RRQ         0.2270
     19 CBH       -22.4140   34.6990    6.2760 C.3       1 RRQ        -0.0334
     20 CBI       -21.5890   33.4230    6.2830 C.3       1 RRQ        -0.0081
     21 SAB       -21.7320   30.1510    2.9200 S.o2      1 RRQ         0.0723
     22 OAC       -21.4520   29.6780    1.5050 O.2       1 RRQ        -0.1499
     23 OAD       -22.9920   30.9470    2.9330 O.2       1 RRQ        -0.1499
     24 CAE       -21.9140   28.7030    3.9870 C.ar      1 RRQ         0.1086
     25 CAJ       -20.9840   27.7000    3.8730 C.ar      1 RRQ        -0.0332
     26 CAI       -21.0880   26.5860    4.6510 C.ar      1 RRQ        -0.0332
     27 CAF       -22.9590   28.5890    4.9100 C.ar      1 RRQ        -0.0332
     28 CAG       -23.0600   27.4590    5.7050 C.ar      1 RRQ        -0.0332
     29 CAH       -22.1190   26.4590    5.5620 C.ar      1 RRQ         0.1086
     30 SAK       -22.1920   25.0510    6.4900 S.o2      1 RRQ         0.0725
     31 OAL       -23.0590   25.3620    7.6820 O.2       1 RRQ        -0.1499
     32 OAM       -20.7990   24.6210    6.9730 O.2       1 RRQ        -0.1499
     33 NAN       -22.9510   23.5790    5.6390 N.am      1 RRQ        -0.2198
     34 CAQ       -24.1590   23.7280    4.7830 C.3       1 RRQ         0.0431
     35 CAR       -24.7080   22.3750    4.4210 C.3       1 RRQ        -0.0328
     36 CAS       -25.5790   22.7230    3.2160 C.3       1 RRQ        -0.0513
     37 CAT       -24.9870   23.9410    2.5680 C.3       1 RRQ        -0.0513
     38 CAU       -23.8740   24.4210    3.4420 C.3       1 RRQ        -0.0328
     39 CAO       -21.9400   22.6150    5.1160 C.3       1 RRQ         0.0637
     40 CAP       -21.8690   21.5390    6.0230 C.ar      1 RRQ        -0.0241
     41 CAV       -21.2060   20.3640    5.6870 C.ar      1 RRQ        -0.0582
     42 CAW       -21.1290   19.3290    6.6080 C.ar      1 RRQ        -0.0545
     43 CAX       -21.7040   19.4950    7.8610 C.ar      1 RRQ         0.0330
     44 CL        -21.6610   18.2830    9.0110 Cl        1 RRQ        -0.0771
     45 CAY       -22.3480   20.6620    8.2150 C.ar      1 RRQ        -0.0545
     46 CAZ       -22.4260   21.6700    7.3000 C.ar      1 RRQ        -0.0582
     47 H1        -14.1001   34.1957    4.1329 H         1 RRQ         0.0477
     48 H2        -15.0499   32.6887    4.3639 H         1 RRQ         0.0477
     49 H3        -15.8628   34.2873    4.4662 H         1 RRQ         0.0477
     50 H4        -14.6726   34.0515    1.8368 H         1 RRQ         0.1767
     51 H5        -16.8015   31.8814    3.8100 H         1 RRQ         0.0459
     52 H6        -18.5750   33.1845   -0.5816 H         1 RRQ         0.0601
     53 H7        -19.7832   31.5170    0.7618 H         1 RRQ         0.0458
     54 H8        -18.5046   30.5505    4.1638 H         1 RRQ         0.0645
     55 H9        -19.0872   29.6824    2.7031 H         1 RRQ         0.0645
     56 H10       -19.6608   31.8037    5.3285 H         1 RRQ         0.0483
     57 H11       -21.1634   30.8223    5.4057 H         1 RRQ         0.0483
     58 H12       -22.4819   32.6723    4.4615 H         1 RRQ         0.0320
     59 H13       -20.7683   33.5627    2.9014 H         1 RRQ         0.0320
     60 H14       -19.8202   34.1895    4.2925 H         1 RRQ         0.0320
     61 H15       -22.7664   34.8747    3.6966 H         1 RRQ         0.0814
     62 H16       -21.3707   35.9463    3.3355 H         1 RRQ         0.0814
     63 H17       -22.3619   36.5394    5.3912 H         1 RRQ         0.2013
     64 H18       -20.8728   35.9074    5.6954 H         1 RRQ         0.2013
     65 H19       -23.4319   34.4705    5.9274 H         1 RRQ         0.0814
     66 H20       -22.4588   35.1071    7.2965 H         1 RRQ         0.0814
     67 H21       -20.5852   33.6340    6.6802 H         1 RRQ         0.0320
     68 H22       -22.0815   32.6678    6.9132 H         1 RRQ         0.0320
     69 H23       -20.1682   27.7938    3.1654 H         1 RRQ         0.0638
     70 H24       -20.3556   25.7927    4.5543 H         1 RRQ         0.0638
     71 H25       -23.6894   29.3845    5.0031 H         1 RRQ         0.0638
     72 H26       -23.8633   27.3617    6.4263 H         1 RRQ         0.0638
     73 H27       -24.9121   24.3047    5.3400 H         1 RRQ         0.0516
     74 H28       -25.3052   21.9494    5.2409 H         1 RRQ         0.0284
     75 H29       -23.9055   21.6735    4.1494 H         1 RRQ         0.0284
     76 H30       -26.6073   22.9346    3.5444 H         1 RRQ         0.0266
     77 H31       -25.5868   21.8849    2.5036 H         1 RRQ         0.0266
     78 H32       -25.7530   24.7246    2.4716 H         1 RRQ         0.0266
     79 H33       -24.5977   23.6843    1.5718 H         1 RRQ         0.0266
     80 H34       -22.8967   24.1158    3.0398 H         1 RRQ         0.0284
     81 H35       -23.9007   25.5154    3.5497 H         1 RRQ         0.0284
     82 H36       -20.9586   23.1057    5.0385 H         1 RRQ         0.0642
     83 H37       -22.2469   22.2504    4.1246 H         1 RRQ         0.0642
     84 H38       -20.7509   20.2568    4.7090 H         1 RRQ         0.0558
     85 H39       -20.6266   18.4030    6.3527 H         1 RRQ         0.0606
     86 H40       -22.7836   20.7757    9.2011 H         1 RRQ         0.0606
     87 H41       -22.9299   22.5918    7.5674 H         1 RRQ         0.0558
@<TRIPOS>BOND
     1    1    2 1  
     2    2    3 1  
     3    3    4 ar 
     4    3    5 ar 
     5    4   11 ar 
     6    5    6 1  
     7    5    9 ar 
     8    6    7 ar 
     9    6    8 ar 
    10    9   10 ar 
    11   10   11 ar 
    12   11   12 1  
    13   12   13 1  
    14   13   14 1  
    15   13   21 am 
    16   14   15 1  
    17   15   16 1  
    18   15   20 1  
    19   16   17 1  
    20   17   18 1  
    21   18   19 1  
    22   19   20 1  
    23   21   22 2  
    24   21   23 2  
    25   21   24 1  
    26   24   25 ar 
    27   24   27 ar 
    28   25   26 ar 
    29   26   29 ar 
    30   27   28 ar 
    31   28   29 ar 
    32   29   30 1  
    33   30   31 2  
    34   30   32 2  
    35   30   33 am 
    36   33   34 1  
    37   33   39 1  
    38   34   35 1  
    39   34   38 1  
    40   35   36 1  
    41   36   37 1  
    42   37   38 1  
    43   39   40 1  
    44   40   41 ar 
    45   40   46 ar 
    46   41   42 ar 
    47   42   43 ar 
    48   43   44 1  
    49   43   45 ar 
    50   45   46 ar 
    51    1   47 1  
    52    1   48 1  
    53    1   49 1  
    54    2   50 1  
    55    4   51 1  
    56    9   52 1  
    57   10   53 1  
    58   12   54 1  
    59   12   55 1  
    60   14   56 1  
    61   14   57 1  
    62   15   58 1  
    63   16   59 1  
    64   16   60 1  
    65   17   61 1  
    66   17   62 1  
    67   18   63 1  
    68   18   64 1  
    69   19   65 1  
    70   19   66 1  
    71   20   67 1  
    72   20   68 1  
    73   25   69 1  
    74   26   70 1  
    75   27   71 1  
    76   28   72 1  
    77   34   73 1  
    78   35   74 1  
    79   35   75 1  
    80   36   76 1  
    81   36   77 1  
    82   37   78 1  
    83   37   79 1  
    84   38   80 1  
    85   38   81 1  
    86   39   82 1  
    87   39   83 1  
    88   41   84 1  
    89   42   85 1  
    90   45   86 1  
    91   46   87 1  
@<TRIPOS>SUBSTRUCTURE
     1 RRQ         1

