### 
### Created by X-TOOL on Mon Sep 10 21:13:32 2018
### 

@<TRIPOS>MOLECULE
5ml5_ligand
   60    63     1     0     0
SMALL
GAST_HUCK


@<TRIPOS>ATOM
      1 CAA        17.8440    7.8970  -24.4510 C.3       1 1VI         0.0553
      2 OAJ        18.5070    9.1920  -24.5330 O.3       1 1VI        -0.3321
      3 CAK        19.5320    9.2830  -25.4490 C.ar      1 1VI         0.0812
      4 CAL        19.3750   10.0510  -26.6430 C.ar      1 1VI        -0.0480
      5 CAM        20.3870   10.1350  -27.5980 C.ar      1 1VI        -0.0486
      6 CAN        21.6050    9.4460  -27.3380 C.ar      1 1VI         0.0728
      7 OAC        22.6880    9.4550  -28.1930 O.3       1 1VI        -0.3301
      8 CAB        23.6350    8.3050  -28.2510 C.3       1 1VI         0.0568
      9 CAO        21.7460    8.7270  -26.1510 C.ar      1 1VI        -0.0398
     10 CAQ        20.7520    8.6120  -25.1680 C.ar      1 1VI        -0.0197
     11 CAR        21.1100    7.7830  -24.0260 C.3       1 1VI        -0.0058
     12 CAS        21.6540    6.4610  -24.6000 C.3       1 1VI         0.0519
     13 CAT        21.8010    5.2760  -23.6200 C.2       1 1VI         0.2091
     14 OAP        22.0350    5.4540  -22.4490 O.2       1 1VI        -0.3828
     15 NBC        21.8290    4.1070  -24.2690 N.am      1 1VI        -0.2199
     16 CBG        21.9300    2.8750  -23.7200 C.ar      1 1VI         0.1304
     17 CBF        22.0530    2.5590  -22.3620 C.ar      1 1VI        -0.0159
     18 NBH        21.8500    1.8860  -24.6550 N.ar      1 1VI        -0.2941
     19 CBI        21.9640    0.5350  -24.2360 C.ar      1 1VI        -0.0142
     20 CBD        22.1170    0.2360  -22.9060 C.ar      1 1VI        -0.0513
     21 CBE        22.2110    1.2280  -21.9120 C.ar      1 1VI        -0.0247
     22 CBB        22.2910    0.9040  -20.5680 C.2       1 1VI         0.0307
     23 NBA        21.8280    1.7400  -19.6000 N.2       1 1VI        -0.3092
     24 CAZ        21.9490    1.1620  -18.4400 C.2       1 1VI         0.1832
     25 SAV        21.4670    1.9360  -16.9310 S.3       1 1VI        -0.0464
     26 CAU        21.6990    0.6630  -15.7260 C.3       1 1VI         0.0030
     27 NAY        22.4700   -0.0560  -18.6210 N.pl3     1 1VI        -0.2390
     28 CAX        22.6950   -0.2460  -19.9190 C.2       1 1VI         0.0887
     29 CAW        23.2750   -1.4200  -20.3580 C.ar      1 1VI         0.0010
     30 CAE        24.4150   -1.4830  -21.1870 C.ar      1 1VI        -0.0556
     31 CAF        25.0020   -2.7060  -21.5950 C.ar      1 1VI        -0.0290
     32 CAG        24.4380   -3.9040  -21.1980 C.ar      1 1VI         0.1313
     33 FAD        24.9620   -5.1310  -21.6070 F         1 1VI        -0.1841
     34 CAH        23.2900   -3.8530  -20.3900 C.ar      1 1VI        -0.0290
     35 CAI        22.7050   -2.6600  -19.9680 C.ar      1 1VI        -0.0556
     36 H1         17.0481    7.9399  -23.6929 H         1 1VI         0.0570
     37 H2         18.5772    7.1268  -24.1696 H         1 1VI         0.0570
     38 H3         17.4061    7.6467  -25.4285 H         1 1VI         0.0570
     39 H4         18.4451   10.5821  -26.8108 H         1 1VI         0.0496
     40 H5         20.2508   10.7065  -28.5090 H         1 1VI         0.0458
     41 H6         24.4207    8.5141  -28.9919 H         1 1VI         0.0573
     42 H7         23.0896    7.3951  -28.5418 H         1 1VI         0.0573
     43 H8         24.0935    8.1573  -27.2621 H         1 1VI         0.0573
     44 H9         22.6892    8.2221  -25.9761 H         1 1VI         0.0453
     45 H10        20.2240    7.5909  -23.4030 H         1 1VI         0.0427
     46 H11        21.8822    8.2813  -23.4216 H         1 1VI         0.0427
     47 H12        22.6487    6.6673  -25.0219 H         1 1VI         0.0528
     48 H13        20.9733    6.1437  -25.4038 H         1 1VI         0.0528
     49 H14        21.7689    4.1481  -25.2663 H         1 1VI         0.2305
     50 H15        22.0263    3.3601  -21.6322 H         1 1VI         0.0540
     51 H16        21.9301   -0.2629  -24.9690 H         1 1VI         0.0752
     52 H17        22.1675   -0.8053  -22.6089 H         1 1VI         0.0540
     53 H18        21.4233    1.0446  -14.7318 H         1 1VI         0.0373
     54 H19        22.7541    0.3519  -15.7197 H         1 1VI         0.0373
     55 H20        21.0639   -0.1994  -15.9767 H         1 1VI         0.0373
     56 H21        22.6660   -0.7385  -17.8749 H         1 1VI         0.2394
     57 H22        24.8611   -0.5552  -21.5265 H         1 1VI         0.0599
     58 H23        25.8903   -2.7024  -22.2163 H         1 1VI         0.0602
     59 H24        22.8366   -4.7873  -20.0793 H         1 1VI         0.0602
     60 H25        21.8184   -2.6793  -19.3446 H         1 1VI         0.0599
@<TRIPOS>BOND
     1    1    2 1  
     2    2    3 1  
     3    3    4 ar 
     4    3   10 ar 
     5    4    5 ar 
     6    5    6 ar 
     7    6    7 1  
     8    6    9 ar 
     9    7    8 1  
    10    9   10 ar 
    11   10   11 1  
    12   11   12 1  
    13   12   13 1  
    14   13   14 2  
    15   13   15 am 
    16   15   16 1  
    17   16   17 ar 
    18   16   18 ar 
    19   17   21 ar 
    20   18   19 ar 
    21   19   20 ar 
    22   20   21 ar 
    23   21   22 1  
    24   22   23 1  
    25   22   28 2  
    26   23   24 2  
    27   24   25 1  
    28   24   27 1  
    29   25   26 1  
    30   27   28 1  
    31   28   29 1  
    32   29   30 ar 
    33   29   35 ar 
    34   30   31 ar 
    35   31   32 ar 
    36   32   33 1  
    37   32   34 ar 
    38   34   35 ar 
    39    1   36 1  
    40    1   37 1  
    41    1   38 1  
    42    4   39 1  
    43    5   40 1  
    44    8   41 1  
    45    8   42 1  
    46    8   43 1  
    47    9   44 1  
    48   11   45 1  
    49   11   46 1  
    50   12   47 1  
    51   12   48 1  
    52   15   49 1  
    53   17   50 1  
    54   19   51 1  
    55   20   52 1  
    56   26   53 1  
    57   26   54 1  
    58   26   55 1  
    59   27   56 1  
    60   30   57 1  
    61   31   58 1  
    62   34   59 1  
    63   35   60 1  
@<TRIPOS>SUBSTRUCTURE
     1 1VI         1

