### 
### Created by X-TOOL on Mon Sep 10 21:13:33 2018
### 

@<TRIPOS>MOLECULE
5ml6_ligand
   84    88     1     0     0
SMALL
GAST_HUCK


@<TRIPOS>ATOM
      1 CAK       -21.1830   33.8730    4.0960 C.3       1 9GD        -0.0081
      2 CAL       -22.1880   34.9900    4.3260 C.3       1 9GD        -0.0334
      3 NAM       -21.9220   35.5280    5.6790 N.4       1 9GD         0.2270
      4 CAN       -22.1440   34.5030    6.7230 C.3       1 9GD        -0.0334
      5 CAO       -21.1950   33.3220    6.5310 C.3       1 9GD        -0.0081
      6 CAJ       -21.3480   32.7500    5.1240 C.3       1 9GD        -0.0142
      7 CAI       -20.2840   31.6640    4.9230 C.3       1 9GD         0.0351
      8 NAH       -20.2660   31.2290    3.4890 N.am      1 9GD        -0.2224
      9 CAA       -18.9880   30.6160    3.1130 C.3       1 9GD         0.0616
     10 CAB       -18.2470   31.5780    2.3780 C.ar      1 9GD        -0.0334
     11 CAC       -17.2640   32.3680    2.9930 C.ar      1 9GD        -0.0382
     12 CAD       -16.5370   33.3080    2.2510 C.ar      1 9GD         0.0436
     13 NBP       -15.5990   34.0620    2.8390 N.pl3     1 9GD        -0.3354
     14 CAE       -16.7550   33.5100    0.8760 C.ar      1 9GD         0.0203
     15 CBQ       -16.0210   34.4700    0.1330 C.2       1 9GD         0.0516
     16 OBS       -16.4070   34.8890   -0.9950 O.co2     1 9GD        -0.5667
     17 OBR       -14.9520   34.9420    0.6030 O.co2     1 9GD        -0.5667
     18 CAF       -17.7320   32.7070    0.2780 C.ar      1 9GD        -0.0654
     19 CAG       -18.4720   31.7600    1.0090 C.ar      1 9GD        -0.0680
     20 SAP       -21.7030   30.2370    3.0030 S.o2      1 9GD         0.0723
     21 OAQ       -21.5640   29.8020    1.5540 O.2       1 9GD        -0.1499
     22 OAR       -22.9790   31.0210    3.1750 O.2       1 9GD        -0.1499
     23 CAS       -21.8850   28.7430    4.0000 C.ar      1 9GD         0.1086
     24 CAX       -20.9820   27.7120    3.8310 C.ar      1 9GD        -0.0332
     25 CAW       -21.1160   26.5550    4.5850 C.ar      1 9GD        -0.0332
     26 CAT       -22.9370   28.6210    4.9060 C.ar      1 9GD        -0.0332
     27 CAU       -23.0730   27.4600    5.6640 C.ar      1 9GD        -0.0332
     28 CAV       -22.1630   26.4270    5.4850 C.ar      1 9GD         0.1086
     29 SAY       -22.2890   24.9530    6.4100 S.o2      1 9GD         0.0725
     30 OAZ       -23.2030   25.2260    7.5810 O.2       1 9GD        -0.1499
     31 OBA       -20.8880   24.6490    6.8820 O.2       1 9GD        -0.1499
     32 NBB       -22.9330   23.4640    5.4730 N.am      1 9GD        -0.2198
     33 CBE       -23.6790   23.5040    4.2140 C.3       1 9GD         0.0431
     34 CBF       -24.1400   24.8170    3.7920 C.3       1 9GD        -0.0328
     35 CBG       -25.1700   24.3440    2.7590 C.3       1 9GD        -0.0513
     36 CBH       -25.5540   22.9060    3.0820 C.3       1 9GD        -0.0513
     37 CBI       -24.9560   22.7400    4.4320 C.3       1 9GD        -0.0328
     38 CBC       -21.8680   22.4760    5.1940 C.3       1 9GD         0.0637
     39 CBD       -21.8360   21.4730    6.1530 C.ar      1 9GD        -0.0241
     40 CBJ       -21.1200   20.3300    5.8470 C.ar      1 9GD        -0.0582
     41 CBK       -21.0390   19.3010    6.7700 C.ar      1 9GD        -0.0545
     42 CBL       -21.6710   19.4350    7.9950 C.ar      1 9GD         0.0330
     43 CL        -21.5630   18.2080    9.1090 Cl        1 9GD        -0.0771
     44 CBM       -22.3870   20.5740    8.3210 C.ar      1 9GD        -0.0545
     45 CBN       -22.4730   21.6010    7.3950 C.ar      1 9GD        -0.0582
     46 H1        -20.1661   34.2847    4.1764 H         1 9GD         0.0320
     47 H2        -21.3325   33.4595    3.0877 H         1 9GD         0.0320
     48 H3        -23.2132   34.5954    4.2696 H         1 9GD         0.0814
     49 H4        -22.0569   35.7795    3.5714 H         1 9GD         0.0814
     50 H5        -22.5384   36.3073    5.8487 H         1 9GD         0.2013
     51 H6        -20.9648   35.8404    5.7250 H         1 9GD         0.2013
     52 H7        -23.1824   34.1452    6.6626 H         1 9GD         0.0814
     53 H8        -21.9674   34.9509    7.7120 H         1 9GD         0.0814
     54 H9        -21.4317   32.5413    7.2689 H         1 9GD         0.0320
     55 H10       -20.1585   33.6608    6.6753 H         1 9GD         0.0320
     56 H11       -22.3477   32.3046    5.0135 H         1 9GD         0.0320
     57 H12       -20.5180   30.8008    5.5633 H         1 9GD         0.0483
     58 H13       -19.2967   32.0655    5.1950 H         1 9GD         0.0483
     59 H14       -19.1678   29.7267    2.4910 H         1 9GD         0.0645
     60 H15       -18.4319   30.3253    4.0164 H         1 9GD         0.0645
     61 H16       -17.0652   32.2499    4.0521 H         1 9GD         0.0459
     62 H17       -15.4037   33.9501    3.8441 H         1 9GD         0.1734
     63 H18       -15.0730   34.7537    2.2861 H         1 9GD         0.1734
     64 H19       -17.9250   32.8181   -0.7829 H         1 9GD         0.0601
     65 H20       -19.2252   31.1644    0.5060 H         1 9GD         0.0458
     66 H21       -20.1742   27.8059    3.1143 H         1 9GD         0.0638
     67 H22       -20.4003   25.7490    4.4702 H         1 9GD         0.0638
     68 H23       -23.6496   29.4297    5.0209 H         1 9GD         0.0638
     69 H24       -23.8782   27.3646    6.3835 H         1 9GD         0.0638
     70 H25       -23.0673   23.0515    3.4196 H         1 9GD         0.0516
     71 H26       -23.3373   25.4171    3.3386 H         1 9GD         0.0284
     72 H27       -24.6013   25.3833    4.6145 H         1 9GD         0.0284
     73 H28       -24.7337   24.3938    1.7505 H         1 9GD         0.0266
     74 H29       -26.0625   24.9854    2.8045 H         1 9GD         0.0266
     75 H30       -25.1178   22.2009    2.3592 H         1 9GD         0.0266
     76 H31       -26.6461   22.7769    3.1070 H         1 9GD         0.0266
     77 H32       -25.5788   23.1918    5.2182 H         1 9GD         0.0284
     78 H33       -24.7692   21.6834    4.6741 H         1 9GD         0.0284
     79 H34       -20.8964   22.9917    5.1847 H         1 9GD         0.0642
     80 H35       -22.0516   22.0220    4.2090 H         1 9GD         0.0642
     81 H36       -20.6237   20.2400    4.8875 H         1 9GD         0.0558
     82 H37       -20.4859   18.3986    6.5358 H         1 9GD         0.0606
     83 H38       -22.8730   20.6611    9.2860 H         1 9GD         0.0606
     84 H39       -23.0309   22.5002    7.6301 H         1 9GD         0.0558
@<TRIPOS>BOND
     1    1    2 1  
     2    1    6 1  
     3    2    3 1  
     4    3    4 1  
     5    4    5 1  
     6    5    6 1  
     7    6    7 1  
     8    7    8 1  
     9    8    9 1  
    10    8   20 am 
    11    9   10 1  
    12   10   11 ar 
    13   10   19 ar 
    14   11   12 ar 
    15   12   13 1  
    16   12   14 ar 
    17   14   15 1  
    18   14   18 ar 
    19   15   16 ar 
    20   15   17 ar 
    21   18   19 ar 
    22   20   21 2  
    23   20   22 2  
    24   20   23 1  
    25   23   24 ar 
    26   23   26 ar 
    27   24   25 ar 
    28   25   28 ar 
    29   26   27 ar 
    30   27   28 ar 
    31   28   29 1  
    32   29   30 2  
    33   29   31 2  
    34   29   32 am 
    35   32   33 1  
    36   32   38 1  
    37   33   34 1  
    38   33   37 1  
    39   34   35 1  
    40   35   36 1  
    41   36   37 1  
    42   38   39 1  
    43   39   40 ar 
    44   39   45 ar 
    45   40   41 ar 
    46   41   42 ar 
    47   42   43 1  
    48   42   44 ar 
    49   44   45 ar 
    50    1   46 1  
    51    1   47 1  
    52    2   48 1  
    53    2   49 1  
    54    3   50 1  
    55    3   51 1  
    56    4   52 1  
    57    4   53 1  
    58    5   54 1  
    59    5   55 1  
    60    6   56 1  
    61    7   57 1  
    62    7   58 1  
    63    9   59 1  
    64    9   60 1  
    65   11   61 1  
    66   13   62 1  
    67   13   63 1  
    68   18   64 1  
    69   19   65 1  
    70   24   66 1  
    71   25   67 1  
    72   26   68 1  
    73   27   69 1  
    74   33   70 1  
    75   34   71 1  
    76   34   72 1  
    77   35   73 1  
    78   35   74 1  
    79   36   75 1  
    80   36   76 1  
    81   37   77 1  
    82   37   78 1  
    83   38   79 1  
    84   38   80 1  
    85   40   81 1  
    86   41   82 1  
    87   44   83 1  
    88   45   84 1  
@<TRIPOS>SUBSTRUCTURE
     1 9GD         1

