### 
### Created by X-TOOL on Mon Sep 10 21:13:33 2018
### 

@<TRIPOS>MOLECULE
5ml8_ligand
   80    84     1     0     0
SMALL
GAST_HUCK


@<TRIPOS>ATOM
      1 CAK       -16.0660    2.8690  -12.8820 C.3       1 V98        -0.0081
      2 CAL       -14.8960    2.0070  -12.4450 C.3       1 V98        -0.0334
      3 NAM       -14.0860    1.7270  -13.6580 N.4       1 V98         0.2270
      4 CAN       -14.8290    0.9830  -14.6980 C.3       1 V98        -0.0334
      5 CAO       -16.0370    1.7970  -15.1660 C.3       1 V98        -0.0081
      6 CAJ       -16.9170    2.1530  -13.9490 C.3       1 V98        -0.0142
      7 CAI       -18.0550    3.0830  -14.3020 C.3       1 V98         0.0350
      8 NAH       -18.6330    2.7820  -15.6470 N.am      1 V98        -0.2226
      9 CAA       -19.7900    1.8650  -15.6000 C.3       1 V98         0.0633
     10 CAB       -19.5710    0.7050  -16.3630 C.ar      1 V98        -0.0244
     11 CAC       -19.4000   -0.5460  -15.7500 C.ar      1 V98        -0.0588
     12 CAD       -19.2000   -1.7020  -16.5180 C.ar      1 V98        -0.0685
     13 CAE       -19.1820   -1.6190  -17.9010 C.ar      1 V98        -0.0687
     14 CAF       -19.3680   -0.3830  -18.5100 C.ar      1 V98        -0.0685
     15 CAG       -19.5700    0.7690  -17.7530 C.ar      1 V98        -0.0588
     16 SAP       -19.0700    4.3300  -16.3530 S.o2      1 V98         0.0723
     17 OAQ       -19.7050    4.1460  -17.7330 O.2       1 V98        -0.1500
     18 OAR       -17.8310    5.1970  -16.4660 O.2       1 V98        -0.1500
     19 CAS       -20.2650    5.1760  -15.3180 C.ar      1 V98         0.1086
     20 CAX       -19.8630    6.2010  -14.4560 C.ar      1 V98        -0.0332
     21 CAW       -20.8050    6.8510  -13.6530 C.ar      1 V98        -0.0332
     22 CAT       -21.6130    4.8120  -15.3700 C.ar      1 V98        -0.0332
     23 CAU       -22.5490    5.4580  -14.5740 C.ar      1 V98        -0.0332
     24 CAV       -22.1500    6.4820  -13.7200 C.ar      1 V98         0.1086
     25 SAY       -23.3230    7.2990  -12.7570 S.o2      1 V98         0.0725
     26 OAZ       -22.5970    8.0680  -11.6630 O.2       1 V98        -0.1499
     27 OBA       -24.2180    6.2650  -12.0850 O.2       1 V98        -0.1499
     28 NBB       -24.3650    8.5180  -13.6890 N.am      1 V98        -0.2198
     29 CBE       -23.9560    9.1420  -14.9710 C.3       1 V98         0.0431
     30 CBF       -22.5940    8.8180  -15.4580 C.3       1 V98        -0.0328
     31 CBG       -22.4900    9.9140  -16.5450 C.3       1 V98        -0.0513
     32 CBH       -23.3880   11.0680  -16.1150 C.3       1 V98        -0.0513
     33 CBI       -23.9200   10.6400  -14.7880 C.3       1 V98        -0.0328
     34 CBC       -25.7460    8.0360  -13.9110 C.3       1 V98         0.0637
     35 CBD       -26.6240    8.6060  -13.0140 C.ar      1 V98        -0.0241
     36 CBJ       -27.9770    8.5610  -13.3130 C.ar      1 V98        -0.0582
     37 CBK       -28.9000    9.1000  -12.4330 C.ar      1 V98        -0.0545
     38 CBL       -28.4430    9.6750  -11.2620 C.ar      1 V98         0.0330
     39 CL        -29.5170   10.3300  -10.2070 Cl        1 V98        -0.0771
     40 CBM       -27.0950    9.7180  -10.9520 C.ar      1 V98        -0.0545
     41 CBN       -26.1750    9.1850  -11.8300 C.ar      1 V98        -0.0582
     42 H1        -15.6814    3.8101  -13.3019 H         1 V98         0.0320
     43 H2        -16.6966    3.0882  -12.0078 H         1 V98         0.0320
     44 H3        -15.2622    1.0655  -12.0097 H         1 V98         0.0814
     45 H4        -14.2888    2.5433  -11.7009 H         1 V98         0.0814
     46 H5        -13.2823    1.1822  -13.3874 H         1 V98         0.2013
     47 H6        -13.7809    2.6047  -14.0488 H         1 V98         0.2013
     48 H7        -15.1749    0.0249  -14.2827 H         1 V98         0.0814
     49 H8        -14.1647    0.7932  -15.5540 H         1 V98         0.0814
     50 H9        -16.6241    1.2038  -15.8825 H         1 V98         0.0320
     51 H10       -15.6910    2.7213  -15.6517 H         1 V98         0.0320
     52 H11       -17.3292    1.2226  -13.5314 H         1 V98         0.0320
     53 H12       -17.6808    4.1174  -14.3006 H         1 V98         0.0483
     54 H13       -18.8461    2.9783  -13.5449 H         1 V98         0.0483
     55 H14       -20.6742    2.3877  -15.9935 H         1 V98         0.0641
     56 H15       -19.9710    1.5741  -14.5547 H         1 V98         0.0641
     57 H16       -19.4228   -0.6195  -14.6687 H         1 V98         0.0557
     58 H17       -19.0596   -2.6598  -16.0302 H         1 V98         0.0599
     59 H18       -19.0247   -2.5077  -18.5014 H         1 V98         0.0559
     60 H19       -19.3556   -0.3146  -19.5918 H         1 V98         0.0599
     61 H20       -19.7272    1.7198  -18.2493 H         1 V98         0.0557
     62 H21       -18.8198    6.4920  -14.4103 H         1 V98         0.0638
     63 H22       -20.4916    7.6403  -12.9793 H         1 V98         0.0638
     64 H23       -21.9304    4.0188  -16.0372 H         1 V98         0.0638
     65 H24       -23.5916    5.1646  -14.6176 H         1 V98         0.0638
     66 H25       -24.6906    8.8603  -15.7398 H         1 V98         0.0516
     67 H26       -22.5324    7.8043  -15.8807 H         1 V98         0.0284
     68 H27       -21.8318    8.9351  -14.6736 H         1 V98         0.0284
     69 H28       -22.8268    9.5162  -17.5137 H         1 V98         0.0266
     70 H29       -21.4494   10.2596  -16.6323 H         1 V98         0.0266
     71 H30       -24.2066   11.2150  -16.8349 H         1 V98         0.0266
     72 H31       -22.8098   11.9991  -16.0220 H         1 V98         0.0266
     73 H32       -23.2472   10.9322  -13.9683 H         1 V98         0.0284
     74 H33       -24.9237   11.0499  -14.6024 H         1 V98         0.0284
     75 H34       -25.7683    6.9430  -13.7894 H         1 V98         0.0642
     76 H35       -26.0573    8.2977  -14.9331 H         1 V98         0.0642
     77 H36       -28.3125    8.1034  -14.2366 H         1 V98         0.0558
     78 H37       -29.9600    9.0717  -12.6579 H         1 V98         0.0606
     79 H38       -26.7639   10.1686  -10.0233 H         1 V98         0.0606
     80 H39       -25.1158    9.2164  -11.6014 H         1 V98         0.0558
@<TRIPOS>BOND
     1    1    2 1  
     2    1    6 1  
     3    2    3 1  
     4    3    4 1  
     5    4    5 1  
     6    5    6 1  
     7    6    7 1  
     8    7    8 1  
     9    8    9 1  
    10    8   16 am 
    11    9   10 1  
    12   10   11 ar 
    13   10   15 ar 
    14   11   12 ar 
    15   12   13 ar 
    16   13   14 ar 
    17   14   15 ar 
    18   16   17 2  
    19   16   18 2  
    20   16   19 1  
    21   19   20 ar 
    22   19   22 ar 
    23   20   21 ar 
    24   21   24 ar 
    25   22   23 ar 
    26   23   24 ar 
    27   24   25 1  
    28   25   26 2  
    29   25   27 2  
    30   25   28 am 
    31   28   29 1  
    32   28   34 1  
    33   29   30 1  
    34   29   33 1  
    35   30   31 1  
    36   31   32 1  
    37   32   33 1  
    38   34   35 1  
    39   35   36 ar 
    40   35   41 ar 
    41   36   37 ar 
    42   37   38 ar 
    43   38   39 1  
    44   38   40 ar 
    45   40   41 ar 
    46    1   42 1  
    47    1   43 1  
    48    2   44 1  
    49    2   45 1  
    50    3   46 1  
    51    3   47 1  
    52    4   48 1  
    53    4   49 1  
    54    5   50 1  
    55    5   51 1  
    56    6   52 1  
    57    7   53 1  
    58    7   54 1  
    59    9   55 1  
    60    9   56 1  
    61   11   57 1  
    62   12   58 1  
    63   13   59 1  
    64   14   60 1  
    65   15   61 1  
    66   20   62 1  
    67   21   63 1  
    68   22   64 1  
    69   23   65 1  
    70   29   66 1  
    71   30   67 1  
    72   30   68 1  
    73   31   69 1  
    74   31   70 1  
    75   32   71 1  
    76   32   72 1  
    77   33   73 1  
    78   33   74 1  
    79   34   75 1  
    80   34   76 1  
    81   36   77 1  
    82   37   78 1  
    83   40   79 1  
    84   41   80 1  
@<TRIPOS>SUBSTRUCTURE
     1 V98         1

