### 
### Created by X-TOOL on Wed Jan  1 15:39:34 2020
### 

@<TRIPOS>MOLECULE
5mli_ligand
   19    19     1     0     0
SMALL
GAST_HUCK


@<TRIPOS>ATOM
      1 C01        27.9470   47.6010    0.9490 C.3       1 82I        -0.0256
      2 N05        26.7590   46.7660    1.0050 N.2       1 82I        -0.3725
      3 C07        25.5900   47.0570    0.4160 C.2       1 82I         0.0611
      4 C08        25.3890   48.2620   -0.3360 C.2       1 82I         0.0780
      5 N10        24.2810   48.6060   -0.8960 N.2       1 82I        -0.1427
      6 N11        23.2080   47.7800   -0.7620 N.am      1 82I        -0.1314
      7 C12        21.9950   48.2380   -1.4290 C.3       1 82I         0.0722
      8 C16        23.1960   46.5900   -0.0770 C.2       1 82I         0.2697
      9 O17        22.1800   45.9070   -0.0120 O.2       1 82I        -0.3726
     10 C18        24.4700   46.2520    0.5220 C.3       1 82I         0.1887
     11 CL1        24.5480   44.7800    1.4070 Cl        1 82I        -0.0721
     12 H1         28.7583   47.1229    1.5176 H         1 82I         0.0304
     13 H2         27.7241   48.5857    1.3857 H         1 82I         0.0304
     14 H3         28.2580   47.7264   -0.0986 H         1 82I         0.0304
     15 H4         26.2371   48.9369   -0.4414 H         1 82I         0.0783
     16 H5         21.1883   47.5085   -1.2644 H         1 82I         0.0604
     17 H6         22.1850   48.3373   -2.5079 H         1 82I         0.0604
     18 H7         21.6965   49.2136   -1.0179 H         1 82I         0.0604
     19 H8         24.7685   45.7309   -0.3996 H         1 82I         0.0964
@<TRIPOS>BOND
     1    1    2 1  
     2    2    3 2  
     3    3    4 1  
     4    3   10 1  
     5    4    5 2  
     6    5    6 1  
     7    6    7 1  
     8    6    8 am 
     9    8    9 2  
    10    8   10 1  
    11   10   11 1  
    12    1   12 1  
    13    1   13 1  
    14    1   14 1  
    15    4   15 1  
    16    7   16 1  
    17    7   17 1  
    18    7   18 1  
    19   10   19 1  
@<TRIPOS>SUBSTRUCTURE
     1 82I         1

