### 
### Created by X-TOOL on Wed Jan  1 15:39:34 2020
### 

@<TRIPOS>MOLECULE
5mlj_ligand
   45    47     1     0     0
SMALL
GAST_HUCK


@<TRIPOS>ATOM
      1 C20       -11.9630   -4.9500   15.4100 C.ar      1 9ST        -0.0599
      2 C22       -10.6000   -4.7030   15.3600 C.ar      1 9ST        -0.0686
      3 C24        -9.7630   -5.5630   14.6820 C.ar      1 9ST        -0.0687
      4 C26       -10.2880   -6.6680   14.0500 C.ar      1 9ST        -0.0686
      5 C28       -11.6520   -6.9180   14.0960 C.ar      1 9ST        -0.0599
      6 C01       -16.0110   -9.3720   15.8780 C.3       1 9ST        -0.0429
      7 N05       -15.7650   -8.0060   15.4130 N.4       1 9ST         0.2353
      8 C06       -16.4320   -7.7720   14.1300 C.3       1 9ST        -0.0226
      9 C09       -16.2380   -6.3290   13.7000 C.3       1 9ST         0.0404
     10 C11       -14.7440   -6.0590   13.5190 C.3       1 9ST        -0.0216
     11 C14       -13.9990   -6.3290   14.8320 C.3       1 9ST         0.0337
     12 C16       -14.3120   -7.7410   15.3330 C.3       1 9ST        -0.0196
     13 C19       -12.5080   -6.0570   14.7700 C.ar      1 9ST        -0.0349
     14 N30       -17.0010   -6.0760   12.4740 N.2       1 9ST        -0.3607
     15 C32       -18.2280   -5.5330   12.4150 C.2       1 9ST         0.0574
     16 C33       -18.8210   -4.9510   13.5820 C.2       1 9ST         0.0776
     17 N35       -19.9890   -4.4030   13.6200 N.2       1 9ST        -0.1428
     18 N36       -20.7070   -4.3920   12.4600 N.am      1 9ST        -0.1317
     19 C37       -22.0220   -3.7660   12.5590 C.3       1 9ST         0.0722
     20 C41       -20.2870   -4.9040   11.2540 C.2       1 9ST         0.2654
     21 O42       -21.0010   -4.8500   10.2580 O.2       1 9ST        -0.3730
     22 C43       -18.9720   -5.4920   11.2930 C.3       1 9ST         0.1696
     23 BR        -18.3720   -6.2010    9.6560 Br        1 9ST        -0.0378
     24 H1        -12.6110   -4.2725   15.9542 H         1 9ST         0.0557
     25 H2        -10.1908   -3.8303   15.8559 H         1 9ST         0.0599
     26 H3         -8.6968   -5.3704   14.6465 H         1 9ST         0.0559
     27 H4         -9.6329   -7.3454   13.5143 H         1 9ST         0.0599
     28 H5        -12.0536   -7.7946   13.6006 H         1 9ST         0.0557
     29 H6        -17.0949   -9.5515   15.9315 H         1 9ST         0.0778
     30 H7        -15.5677   -9.5051   16.8759 H         1 9ST         0.0778
     31 H8        -15.5553  -10.0859   15.1761 H         1 9ST         0.0778
     32 H9        -16.1593   -7.3690   16.0874 H         1 9ST         0.2032
     33 H10       -17.5071   -7.9794   14.2351 H         1 9ST         0.0822
     34 H11       -16.0024   -8.4399   13.3688 H         1 9ST         0.0822
     35 H12       -16.6195   -5.6648   14.4895 H         1 9ST         0.0430
     36 H13       -14.5965   -5.0091   13.2259 H         1 9ST         0.0301
     37 H14       -14.3473   -6.7184   12.7330 H         1 9ST         0.0301
     38 H15       -14.4071   -5.6273   15.5743 H         1 9ST         0.0514
     39 H16       -13.8585   -8.4682   14.6435 H         1 9ST         0.0841
     40 H17       -13.8755   -7.8642   16.3351 H         1 9ST         0.0841
     41 H18       -18.2437   -4.9725   14.5052 H         1 9ST         0.0783
     42 H19       -22.5214   -3.8053   11.5797 H         1 9ST         0.0604
     43 H20       -21.9064   -2.7172   12.8697 H         1 9ST         0.0604
     44 H21       -22.6291   -4.3038   13.3021 H         1 9ST         0.0604
     45 H22       -18.5186   -4.5196   11.0505 H         1 9ST         0.0914
@<TRIPOS>BOND
     1    1    2 ar 
     2   13    1 ar 
     3    2    3 ar 
     4    4    3 ar 
     5    5    4 ar 
     6   13    5 ar 
     7    7    6 1  
     8    7    8 1  
     9   12    7 1  
    10    9    8 1  
    11   10    9 1  
    12    9   14 1  
    13   11   10 1  
    14   11   12 1  
    15   11   13 1  
    16   14   15 2  
    17   15   16 1  
    18   15   22 1  
    19   16   17 2  
    20   17   18 1  
    21   18   19 1  
    22   18   20 am 
    23   20   21 2  
    24   20   22 1  
    25   22   23 1  
    26    1   24 1  
    27    2   25 1  
    28    3   26 1  
    29    4   27 1  
    30    5   28 1  
    31    6   29 1  
    32    6   30 1  
    33    6   31 1  
    34    7   32 1  
    35    8   33 1  
    36    8   34 1  
    37    9   35 1  
    38   10   36 1  
    39   10   37 1  
    40   11   38 1  
    41   12   39 1  
    42   12   40 1  
    43   16   41 1  
    44   19   42 1  
    45   19   43 1  
    46   19   44 1  
    47   22   45 1  
@<TRIPOS>SUBSTRUCTURE
     1 9ST         1

