### 
### Created by X-TOOL on Mon Sep 10 21:13:31 2018
### 

@<TRIPOS>MOLECULE
5mm9_ligand
   45    45     1     0     0
SMALL
GAST_HUCK


@<TRIPOS>ATOM
      1 CAA        33.9100    6.5350  -13.2960 C.3       1 8SH        -0.0350
      2 CAB        33.6360    5.0150  -13.1460 C.3       1 8SH         0.0894
      3 OAC        32.6350    4.8600  -12.1260 O.3       1 8SH        -0.2329
      4 PAD        32.0970    3.4190  -11.6430 P.3       1 8SH         0.2764
      5 OAE        31.3050    2.7400  -12.7930 O.2       1 8SH        -0.5350
      6 OAF        33.3590    2.4550  -11.2540 O.3       1 8SH        -0.2329
      7 CAG        33.5060    1.1010  -11.7470 C.3       1 8SH         0.0894
      8 CAH        33.2080    0.0710  -10.6130 C.3       1 8SH        -0.0350
      9 CAI        31.1070    3.6490  -10.2030 C.3       1 8SH         0.0939
     10 CAJ        30.3830    2.3510   -9.8210 C.3       1 8SH         0.0165
     11 SAK        29.1330    2.9240   -8.5660 S.3       1 8SH        -0.1760
     12 CAL        32.0270    4.0460   -9.0000 C.3       1 8SH        -0.0245
     13 CAM        32.5370    5.5470   -9.0900 C.3       1 8SH        -0.0412
     14 CAN        31.3080    6.5690   -8.9710 C.3       1 8SH        -0.0191
     15 CAO        31.7750    8.0030   -8.8140 C.ar      1 8SH        -0.0430
     16 CAP        32.2780    8.4620   -7.5840 C.ar      1 8SH        -0.0603
     17 CAQ        32.7290    9.8150   -7.4110 C.ar      1 8SH        -0.0686
     18 CAR        32.6640   10.7080   -8.5020 C.ar      1 8SH        -0.0687
     19 CAS        32.1590   10.2410   -9.7360 C.ar      1 8SH        -0.0686
     20 CAT        31.7140    8.8910   -9.8840 C.ar      1 8SH        -0.0603
     21 H1         34.6741    6.6951  -14.0709 H         1 8SH         0.0257
     22 H2         34.2691    6.9392  -12.3380 H         1 8SH         0.0257
     23 H3         32.9811    7.0482  -13.5854 H         1 8SH         0.0257
     24 H4         34.5584    4.4935  -12.8506 H         1 8SH         0.0635
     25 H5         33.2704    4.6026  -14.0980 H         1 8SH         0.0635
     26 H6         34.5356    0.9562  -12.1060 H         1 8SH         0.0635
     27 H7         32.8022    0.9395  -12.5768 H         1 8SH         0.0635
     28 H8         33.3244   -0.9501  -11.0053 H         1 8SH         0.0257
     29 H9         32.1781    0.2101  -10.2526 H         1 8SH         0.0257
     30 H10        33.9115    0.2269   -9.7819 H         1 8SH         0.0257
     31 H11        30.3695    4.4431  -10.3912 H         1 8SH         0.0590
     32 H12        31.0809    1.6237   -9.3805 H         1 8SH         0.0396
     33 H13        29.8886    1.9019  -10.6950 H         1 8SH         0.0396
     34 H14        28.5948    2.1345   -8.2449 H         1 8SH         0.1017
     35 H15        32.9004    3.3774   -8.9889 H         1 8SH         0.0289
     36 H16        31.4588    3.9225   -8.0663 H         1 8SH         0.0289
     37 H17        33.0420    5.6999  -10.0552 H         1 8SH         0.0288
     38 H18        33.2461    5.7375   -8.2709 H         1 8SH         0.0288
     39 H19        30.7018    6.2950   -8.0950 H         1 8SH         0.0426
     40 H20        30.6937    6.4931   -9.8803 H         1 8SH         0.0426
     41 H21        32.3268    7.7776   -6.7448 H         1 8SH         0.0557
     42 H22        33.1147   10.1462   -6.4536 H         1 8SH         0.0599
     43 H23        32.9958   11.7344   -8.3950 H         1 8SH         0.0559
     44 H24        32.1083   10.9162  -10.5825 H         1 8SH         0.0599
     45 H25        31.3253    8.5555  -10.8387 H         1 8SH         0.0557
@<TRIPOS>BOND
     1    1    2 1  
     2    2    3 1  
     3    3    4 1  
     4    4    5 2  
     5    4    6 1  
     6    4    9 1  
     7    6    7 1  
     8    7    8 1  
     9    9   10 1  
    10    9   12 1  
    11   10   11 1  
    12   12   13 1  
    13   13   14 1  
    14   14   15 1  
    15   15   16 ar 
    16   15   20 ar 
    17   16   17 ar 
    18   17   18 ar 
    19   18   19 ar 
    20   19   20 ar 
    21    1   21 1  
    22    1   22 1  
    23    1   23 1  
    24    2   24 1  
    25    2   25 1  
    26    7   26 1  
    27    7   27 1  
    28    8   28 1  
    29    8   29 1  
    30    8   30 1  
    31    9   31 1  
    32   10   32 1  
    33   10   33 1  
    34   11   34 1  
    35   12   35 1  
    36   12   36 1  
    37   13   37 1  
    38   13   38 1  
    39   14   39 1  
    40   14   40 1  
    41   16   41 1  
    42   17   42 1  
    43   18   43 1  
    44   19   44 1  
    45   20   45 1  
@<TRIPOS>SUBSTRUCTURE
     1 8SH         1

