### 
### Created by X-TOOL on Wed Jan  1 15:39:34 2020
### 

@<TRIPOS>MOLECULE
5mme_ligand
   48    49     1     0     0
SMALL
GAST_HUCK


@<TRIPOS>ATOM
      1 CAA        10.4150  -18.5350    6.8510 C.3       1 8Q6        -0.0373
      2 CAB        11.1350  -11.5250   13.3960 C.3       1 8Q6         0.0647
      3 CAC         5.5740  -14.6460   10.3450 C.3       1 8Q6         0.0647
      4 CAD        11.0250  -10.7950    2.6840 C.3       1 8Q6         0.0089
      5 CAH        10.4040  -14.5550    2.8180 C.ar      1 8Q6        -0.0636
      6 CAI        10.4000  -15.5950    3.7410 C.ar      1 8Q6        -0.0359
      7 CAJ        11.5000  -13.2030    8.9670 C.ar      1 8Q6        -0.0150
      8 CAK         9.6060  -14.2620    7.9060 C.ar      1 8Q6        -0.0150
      9 CAL         9.4750  -13.5350   10.2090 C.ar      1 8Q6        -0.0319
     10 CAM        11.2330  -13.0480    4.4920 C.ar      1 8Q6        -0.0292
     11 CAN        10.2990  -17.6210    5.6270 C.3       1 8Q6         0.0664
     12 CAS        10.7930  -12.2370    2.2100 C.2       1 8Q6         0.1189
     13 CAT        11.3750  -12.4720   11.2970 C.2       1 8Q6         0.2612
     14 CAU         7.5660  -14.5920    9.1710 C.2       1 8Q6         0.2612
     15 CAV        10.9130  -13.7860    7.8290 C.ar      1 8Q6         0.0673
     16 CAW        10.8180  -13.2710    3.1710 C.ar      1 8Q6         0.0105
     17 CAX        10.7880  -13.0680   10.1630 C.ar      1 8Q6         0.0573
     18 CAY         8.8850  -14.1410    9.0960 C.ar      1 8Q6         0.0573
     19 CAZ        11.2180  -14.0790    5.4390 C.ar      1 8Q6         0.0950
     20 CBA        10.8170  -15.3620    5.0440 C.ar      1 8Q6         0.1199
     21 NAO        11.6710  -13.8650    6.7130 N.pl3     1 8Q6        -0.2759
     22 OAE        10.5690  -12.4670    1.0180 O.2       1 8Q6        -0.3843
     23 OAF        12.5930  -12.2940   11.3890 O.2       1 8Q6        -0.3568
     24 OAG         7.0460  -15.2930    8.2890 O.2       1 8Q6        -0.3568
     25 OAP        10.4830  -12.1280   12.2660 O.3       1 8Q6        -0.2809
     26 OAQ         6.9070  -14.1560   10.2820 O.3       1 8Q6        -0.2809
     27 OAR        10.8370  -16.3350    5.9940 O.3       1 8Q6        -0.3189
     28 H1         10.0122  -19.5288    6.6059 H         1 8Q6         0.0255
     29 H2          9.8438  -18.1036    7.6862 H         1 8Q6         0.0255
     30 H3         11.4723  -18.6289    7.1396 H         1 8Q6         0.0255
     31 H4         10.3838  -11.2617   14.1552 H         1 8Q6         0.0575
     32 H5         11.6635  -10.6161   13.0725 H         1 8Q6         0.0575
     33 H6         11.8566  -12.2356   13.8252 H         1 8Q6         0.0575
     34 H7          5.0869  -14.2675   11.2557 H         1 8Q6         0.0575
     35 H8          5.5882  -15.7457   10.3668 H         1 8Q6         0.0575
     36 H9          5.0154  -14.3039    9.4613 H         1 8Q6         0.0575
     37 H10        10.9750  -10.1132    1.8222 H         1 8Q6         0.0447
     38 H11        12.0162  -10.7187    3.1547 H         1 8Q6         0.0447
     39 H12        10.2500  -10.5200    3.4145 H         1 8Q6         0.0447
     40 H13        10.0782  -14.7465    1.8020 H         1 8Q6         0.0544
     41 H14        10.0722  -16.5846    3.4437 H         1 8Q6         0.0521
     42 H15        12.5242  -12.8516    8.9157 H         1 8Q6         0.0615
     43 H16         9.1478  -14.7271    7.0407 H         1 8Q6         0.0615
     44 H17         8.9023  -13.4263   11.1229 H         1 8Q6         0.0621
     45 H18        11.5711  -12.0606    4.7847 H         1 8Q6         0.0546
     46 H19         9.2437  -17.5170    5.3346 H         1 8Q6         0.0609
     47 H20        10.8722  -18.0423    4.7880 H         1 8Q6         0.0609
     48 H21        12.6879  -13.7534    6.8325 H         1 8Q6         0.2051
@<TRIPOS>BOND
     1   11    1 1  
     2   25    2 1  
     3   26    3 1  
     4   12    4 1  
     5    6    5 ar 
     6    5   16 ar 
     7   20    6 ar 
     8   15    7 ar 
     9    7   17 ar 
    10   15    8 ar 
    11    8   18 ar 
    12   17    9 ar 
    13   18    9 ar 
    14   10   16 ar 
    15   19   10 ar 
    16   27   11 1  
    17   16   12 1  
    18   12   22 2  
    19   17   13 1  
    20   13   23 2  
    21   13   25 1  
    22   18   14 1  
    23   14   24 2  
    24   14   26 1  
    25   21   15 1  
    26   20   19 ar 
    27   19   21 1  
    28   20   27 1  
    29    1   28 1  
    30    1   29 1  
    31    1   30 1  
    32    2   31 1  
    33    2   32 1  
    34    2   33 1  
    35    3   34 1  
    36    3   35 1  
    37    3   36 1  
    38    4   37 1  
    39    4   38 1  
    40    4   39 1  
    41    5   40 1  
    42    6   41 1  
    43    7   42 1  
    44    8   43 1  
    45    9   44 1  
    46   10   45 1  
    47   11   46 1  
    48   11   47 1  
    49   21   48 1  
@<TRIPOS>SUBSTRUCTURE
     1 8Q6         1

