### 
### Created by X-TOOL on Wed Jan  1 15:39:34 2020
### 

@<TRIPOS>MOLECULE
5mmg_ligand
   46    48     1     0     0
SMALL
GAST_HUCK


@<TRIPOS>ATOM
      1 CAA        -0.8740   -3.5460   -6.4300 C.3       1 UT0        -0.0373
      2 CAB        -6.6770   -1.9460   -1.2010 C.3       1 UT0         0.0089
      3 CAC         3.3800   -1.2280    0.6830 C.3       1 UT0         0.0871
      4 CAG        -4.9930   -2.0660   -4.6040 C.ar      1 UT0        -0.0639
      5 CAH        -3.7070   -2.0410   -5.1510 C.ar      1 UT0        -0.0362
      6 CAI        -0.7380   -3.8330   -2.5100 C.ar      1 UT0        -0.0570
      7 CAJ         0.1660   -4.8260   -2.1010 C.ar      1 UT0        -0.0852
      8 CAK         1.9220   -5.3670   -0.4810 C.2       1 UT0        -0.0763
      9 CAL         2.4860   -4.6740    0.5130 C.2       1 UT0         0.0502
     10 CAM        -4.0380   -1.7760   -2.4220 C.ar      1 UT0        -0.0296
     11 CAN         0.1090   -2.4510   -0.7630 C.ar      1 UT0        -0.0231
     12 CAO        -1.1520   -2.0700   -6.1780 C.3       1 UT0         0.0664
     13 CAR        -6.4920   -1.9780   -2.7280 C.2       1 UT0         0.1189
     14 CAS        -0.7840   -2.6160   -1.8300 C.ar      1 UT0         0.0388
     15 CAT        -5.1740   -1.9300   -3.2310 C.ar      1 UT0         0.0102
     16 CAU        -2.7430   -1.7770   -2.9500 C.ar      1 UT0         0.0933
     17 CAV        -2.5880   -1.8930   -4.3280 C.ar      1 UT0         0.1194
     18 CAW         0.9890   -4.5980   -1.0610 C.ar      1 UT0        -0.0415
     19 CAX         0.9590   -3.4270   -0.4070 C.ar      1 UT0         0.0872
     20 NAP        -1.6310   -1.6010   -2.1680 N.pl3     1 UT0        -0.2841
     21 NAY         1.8660   -3.4910    0.5900 N.am      1 UT0        -0.1340
     22 OAD        -7.4780   -2.1600   -3.4650 O.2       1 UT0        -0.3843
     23 OAE         1.0650   -1.4530    2.0000 O.2       1 UT0        -0.1417
     24 OAF         3.0330   -2.8260    2.8370 O.2       1 UT0        -0.1417
     25 OAQ        -1.2980   -1.8490   -4.7800 O.3       1 UT0        -0.3190
     26 SAZ         2.2860   -2.2680    1.6190 S.o2      1 UT0         0.0844
     27 H1         -0.7609   -3.7185   -7.5105 H         1 UT0         0.0255
     28 H2         -1.7123   -4.1474   -6.0485 H         1 UT0         0.0255
     29 H3          0.0520   -3.8382   -5.9131 H         1 UT0         0.0255
     30 H4         -7.7495   -1.9896   -0.9606 H         1 UT0         0.0447
     31 H5         -6.2487   -1.0159   -0.7991 H         1 UT0         0.0447
     32 H6         -6.1652   -2.8096   -0.7514 H         1 UT0         0.0447
     33 H7          3.7057   -0.3828    1.3071 H         1 UT0         0.0496
     34 H8          2.8537   -0.8470   -0.2046 H         1 UT0         0.0496
     35 H9          4.2582   -1.8101    0.3669 H         1 UT0         0.0496
     36 H10        -5.8529   -2.1918   -5.2520 H         1 UT0         0.0543
     37 H11        -3.5769   -2.1373   -6.2229 H         1 UT0         0.0521
     38 H12        -1.3980   -4.0113   -3.3513 H         1 UT0         0.0442
     39 H13         0.2011   -5.7757   -2.6225 H         1 UT0         0.0507
     40 H14         2.1773   -6.3851   -0.7711 H         1 UT0         0.0196
     41 H15         3.3043   -5.0120    1.1471 H         1 UT0         0.0894
     42 H16        -4.1684   -1.6522   -1.3530 H         1 UT0         0.0544
     43 H17         0.1135   -1.5163   -0.2139 H         1 UT0         0.0410
     44 H18        -2.0781   -1.7775   -6.6945 H         1 UT0         0.0609
     45 H19        -0.3138   -1.4683   -6.5591 H         1 UT0         0.0609
     46 H20        -1.4243   -0.6547   -1.8178 H         1 UT0         0.2028
@<TRIPOS>BOND
     1   12    1 1  
     2   13    2 1  
     3   26    3 1  
     4    5    4 ar 
     5   15    4 ar 
     6   17    5 ar 
     7    7    6 ar 
     8   14    6 ar 
     9   18    7 ar 
    10    9    8 2  
    11   18    8 1  
    12   21    9 1  
    13   10   15 ar 
    14   16   10 ar 
    15   11   14 ar 
    16   19   11 ar 
    17   25   12 1  
    18   15   13 1  
    19   13   22 2  
    20   14   20 1  
    21   16   17 ar 
    22   20   16 1  
    23   17   25 1  
    24   19   18 ar 
    25   21   19 1  
    26   21   26 am 
    27   26   23 2  
    28   26   24 2  
    29    1   27 1  
    30    1   28 1  
    31    1   29 1  
    32    2   30 1  
    33    2   31 1  
    34    2   32 1  
    35    3   33 1  
    36    3   34 1  
    37    3   35 1  
    38    4   36 1  
    39    5   37 1  
    40    6   38 1  
    41    7   39 1  
    42    8   40 1  
    43    9   41 1  
    44   10   42 1  
    45   11   43 1  
    46   12   44 1  
    47   12   45 1  
    48   20   46 1  
@<TRIPOS>SUBSTRUCTURE
     1 UT0         1

