### 
### Created by X-TOOL on Mon Sep 10 21:13:32 2018
### 

@<TRIPOS>MOLECULE
5mmn_ligand
   44    46     1     0     0
SMALL
GAST_HUCK


@<TRIPOS>ATOM
      1 O1        -45.5730    5.1660    4.8370 O.2       1 O54        -0.3888
      2 C2        -45.1360    4.9910    3.6890 C.2       1 O54         0.2910
      3 N4        -44.0520    5.6520    3.2850 N.am      1 O54        -0.2674
      4 C6        -43.3940    6.6480    4.1310 C.3       1 O54         0.0291
      5 C9        -42.8650    7.7460    3.2560 C.3       1 O54        -0.0450
      6 N3        -45.6270    4.1260    2.7900 N.am      1 O54        -0.2054
      7 C5        -46.7970    3.3940    2.9020 C.ar      1 O54         0.1360
      8 C8        -47.4890    3.1680    4.0920 C.ar      1 O54        -0.0166
      9 C11       -48.7340    2.4810    4.0950 C.ar      1 O54        -0.0144
     10 C13       -49.4500    2.2240    5.2790 C.ar      1 O54        -0.0124
     11 C16       -50.6600    1.5370    5.2170 C.ar      1 O54        -0.0585
     12 C17       -51.1730    1.1300    3.9920 C.ar      1 O54        -0.0558
     13 C14       -50.4690    1.3910    2.8010 C.ar      1 O54        -0.0294
     14 C18       -51.0860    0.9180    1.5000 C.3       1 O54        -0.0258
     15 C12       -49.2500    2.0820    2.8530 C.ar      1 O54         0.0075
     16 C10       -48.5050    2.3680    1.6750 C.ar      1 O54         0.0121
     17 N7        -47.3180    3.0260    1.7150 N.ar      1 O54        -0.2763
     18 C15       -48.9700    2.6300    6.6380 C.ar      1 O54        -0.0140
     19 C20       -48.3690    3.8730    6.9030 C.ar      1 O54        -0.0385
     20 C22       -47.9390    4.1680    8.1860 C.ar      1 O54        -0.0013
     21 N23       -48.1230    3.2850    9.1920 N.ar      1 O54        -0.3039
     22 C21       -48.6920    2.0900    8.9840 C.ar      1 O54         0.0205
     23 C24       -48.8720    1.1200   10.1300 C.3       1 O54        -0.0167
     24 C19       -49.1330    1.7450    7.7160 C.ar      1 O54        -0.0307
     25 H1        -43.6774    5.4619    2.3775 H         1 O54         0.1853
     26 H2        -42.5637    6.1784    4.6788 H         1 O54         0.0515
     27 H3        -44.1185    7.0621    4.8477 H         1 O54         0.0515
     28 H4        -42.3668    8.5034    3.8790 H         1 O54         0.0249
     29 H5        -43.6975    8.2117    2.7082 H         1 O54         0.0249
     30 H6        -42.1428    7.3280    2.5393 H         1 O54         0.0249
     31 H7        -45.0942    3.9963    1.9537 H         1 O54         0.2304
     32 H8        -47.0716    3.5212    5.0280 H         1 O54         0.0519
     33 H9        -51.2039    1.3189    6.1290 H         1 O54         0.0650
     34 H10       -52.1221    0.6077    3.9527 H         1 O54         0.0525
     35 H11       -52.0355    0.4040    1.7101 H         1 O54         0.0420
     36 H12       -50.3963    0.2234    0.9983 H         1 O54         0.0420
     37 H13       -51.2741    1.7833    0.8474 H         1 O54         0.0420
     38 H14       -48.8973    2.0506    0.7156 H         1 O54         0.0862
     39 H15       -48.2427    4.5974    6.1065 H         1 O54         0.0634
     40 H16       -47.4508    5.1152    8.3848 H         1 O54         0.0788
     41 H17       -49.3537    0.2024    9.7614 H         1 O54         0.0418
     42 H18       -49.5037    1.5801   10.9041 H         1 O54         0.0418
     43 H19       -47.8896    0.8718   10.5581 H         1 O54         0.0418
     44 H20       -49.6077    0.7838    7.5552 H         1 O54         0.0625
@<TRIPOS>BOND
     1    1    2 2  
     2    2    3 am 
     3    2    6 am 
     4    3    4 1  
     5    4    5 1  
     6    6    7 1  
     7    7    8 ar 
     8    7   17 ar 
     9    8    9 ar 
    10    9   10 ar 
    11    9   15 ar 
    12   10   11 ar 
    13   10   18 1  
    14   11   12 ar 
    15   12   13 ar 
    16   13   14 1  
    17   13   15 ar 
    18   15   16 ar 
    19   16   17 ar 
    20   18   19 ar 
    21   18   24 ar 
    22   19   20 ar 
    23   20   21 ar 
    24   21   22 ar 
    25   22   23 1  
    26   22   24 ar 
    27    3   25 1  
    28    4   26 1  
    29    4   27 1  
    30    5   28 1  
    31    5   29 1  
    32    5   30 1  
    33    6   31 1  
    34    8   32 1  
    35   11   33 1  
    36   12   34 1  
    37   14   35 1  
    38   14   36 1  
    39   14   37 1  
    40   16   38 1  
    41   19   39 1  
    42   20   40 1  
    43   23   41 1  
    44   23   42 1  
    45   23   43 1  
    46   24   44 1  
@<TRIPOS>SUBSTRUCTURE
     1 O54         1

