### 
### Created by X-TOOL on Mon Sep 10 21:13:34 2018
### 

@<TRIPOS>MOLECULE
5mmp_ligand
   49    52     1     0     0
SMALL
GAST_HUCK


@<TRIPOS>ATOM
      1 O1         46.3070  -16.2060   -9.8380 O.2       1 G3Z        -0.3888
      2 C2         47.3160  -15.7620  -10.3980 C.2       1 G3Z         0.2911
      3 N4         48.0100  -14.7580   -9.8650 N.am      1 G3Z        -0.2674
      4 C6         47.6960  -14.0380   -8.6410 C.3       1 G3Z         0.0291
      5 C9         48.3320  -12.6560   -8.7240 C.3       1 G3Z        -0.0450
      6 N3         47.7890  -16.2410  -11.5590 N.am      1 G3Z        -0.2056
      7 C5         47.0990  -17.0620  -12.3900 C.ar      1 G3Z         0.1341
      8 C8         46.1650  -18.0080  -11.9240 C.ar      1 G3Z        -0.0187
      9 C11        45.5000  -18.8300  -12.8450 C.ar      1 G3Z        -0.0171
     10 C13        44.5450  -19.7830  -12.4370 C.ar      1 G3Z        -0.0170
     11 C15        44.1230  -19.9830  -11.0110 C.ar      1 G3Z        -0.0117
     12 C20        43.8560  -21.2610  -10.4930 C.ar      1 G3Z        -0.0332
     13 C23        43.4100  -21.3850   -9.1690 C.ar      1 G3Z         0.0052
     14 N26        43.2130  -20.2930   -8.4040 N.ar      1 G3Z        -0.3042
     15 C22        43.4440  -19.0480   -8.8800 C.ar      1 G3Z         0.0052
     16 C19        43.8750  -18.8610  -10.1970 C.ar      1 G3Z        -0.0332
     17 C16        43.9190  -20.5780  -13.4080 C.ar      1 G3Z        -0.0632
     18 C18        44.2140  -20.4340  -14.7680 C.ar      1 G3Z        -0.0346
     19 C14        45.1510  -19.4840  -15.1900 C.ar      1 G3Z         0.0802
     20 C12        45.8030  -18.7030  -14.2130 C.ar      1 G3Z         0.0318
     21 C10        46.7490  -17.7410  -14.6090 C.ar      1 G3Z         0.0122
     22 N7         47.3680  -16.9740  -13.7070 N.ar      1 G3Z        -0.2786
     23 N17        45.4480  -19.3020  -16.5180 N.pl3     1 G3Z        -0.2603
     24 C21        45.1900  -20.1370  -17.5770 C.ar      1 G3Z         0.0911
     25 C25        45.4150  -21.5150  -17.4970 C.ar      1 G3Z        -0.0186
     26 C28        45.1570  -22.3220  -18.6080 C.ar      1 G3Z        -0.0438
     27 C29        44.6820  -21.7410  -19.7840 C.ar      1 G3Z        -0.0010
     28 N27        44.4860  -20.4090  -19.8370 N.ar      1 G3Z        -0.3082
     29 C24        44.7270  -19.6090  -18.7780 C.ar      1 G3Z         0.0343
     30 H1         48.8314  -14.4696  -10.3570 H         1 G3Z         0.1853
     31 H2         48.1003  -14.5823   -7.7748 H         1 G3Z         0.0515
     32 H3         46.6054  -13.9401   -8.5361 H         1 G3Z         0.0515
     33 H4         48.1066  -12.0929   -7.8063 H         1 G3Z         0.0249
     34 H5         47.9268  -12.1175   -9.5934 H         1 G3Z         0.0249
     35 H6         49.4217  -12.7597   -8.8321 H         1 G3Z         0.0249
     36 H7         48.7138  -15.9744  -11.8303 H         1 G3Z         0.2304
     37 H8         45.9622  -18.0996  -10.8631 H         1 G3Z         0.0507
     38 H9         43.9931  -22.1418  -11.1098 H         1 G3Z         0.0680
     39 H10        43.2217  -22.3697   -8.7566 H         1 G3Z         0.0806
     40 H11        43.2939  -18.1892   -8.2358 H         1 G3Z         0.0806
     41 H12        44.0171  -17.8601  -10.5883 H         1 G3Z         0.0680
     42 H13        43.1914  -21.3195  -13.0984 H         1 G3Z         0.0635
     43 H14        43.7147  -21.0609  -15.4979 H         1 G3Z         0.0486
     44 H15        46.9794  -17.6199  -15.6613 H         1 G3Z         0.0860
     45 H16        45.9286  -18.4213  -16.7510 H         1 G3Z         0.2170
     46 H17        45.7873  -21.9543  -16.5786 H         1 G3Z         0.0655
     47 H18        45.3247  -23.3917  -18.5565 H         1 G3Z         0.0678
     48 H19        44.4718  -22.3577  -20.6503 H         1 G3Z         0.0723
     49 H20        44.5579  -18.5417  -18.8638 H         1 G3Z         0.0744
@<TRIPOS>BOND
     1    1    2 2  
     2    2    3 am 
     3    2    6 am 
     4    3    4 1  
     5    4    5 1  
     6    6    7 1  
     7    7    8 ar 
     8    7   22 ar 
     9    8    9 ar 
    10    9   10 ar 
    11    9   20 ar 
    12   10   11 1  
    13   10   17 ar 
    14   11   12 ar 
    15   11   16 ar 
    16   12   13 ar 
    17   13   14 ar 
    18   14   15 ar 
    19   15   16 ar 
    20   17   18 ar 
    21   18   19 ar 
    22   19   20 ar 
    23   19   23 1  
    24   20   21 ar 
    25   21   22 ar 
    26   23   24 1  
    27   24   25 ar 
    28   24   29 ar 
    29   25   26 ar 
    30   26   27 ar 
    31   27   28 ar 
    32   28   29 ar 
    33    3   30 1  
    34    4   31 1  
    35    4   32 1  
    36    5   33 1  
    37    5   34 1  
    38    5   35 1  
    39    6   36 1  
    40    8   37 1  
    41   12   38 1  
    42   13   39 1  
    43   15   40 1  
    44   16   41 1  
    45   17   42 1  
    46   18   43 1  
    47   21   44 1  
    48   23   45 1  
    49   25   46 1  
    50   26   47 1  
    51   27   48 1  
    52   29   49 1  
@<TRIPOS>SUBSTRUCTURE
     1 G3Z         1

