### 
### Created by X-TOOL on Mon Sep 10 21:13:30 2018
### 

@<TRIPOS>MOLECULE
5mn1_ligand
   13    13     1     0     0
SMALL
GAST_HUCK


@<TRIPOS>ATOM
      1 N1         -2.3850  -14.1490  -17.6780 N.ar      1 2AP        -0.2856
      2 C2         -1.6970  -15.2460  -17.3250 C.ar      1 2AP         0.1085
      3 C3         -1.1550  -15.3990  -16.0400 C.ar      1 2AP        -0.0164
      4 C4         -1.3360  -14.3750  -15.1300 C.ar      1 2AP        -0.0542
      5 C5         -2.0380  -13.2520  -15.4940 C.ar      1 2AP        -0.0480
      6 C6         -2.5330  -13.1840  -16.7610 C.ar      1 2AP        -0.0042
      7 N          -1.5130  -16.1650  -18.2690 N.pl3     1 2AP        -0.3221
      8 H1         -0.6094  -16.2955  -15.7686 H         1 2AP         0.0610
      9 H2         -0.9246  -14.4579  -14.1305 H         1 2AP         0.0699
     10 H3         -2.1939  -12.4413  -14.7915 H         1 2AP         0.0597
     11 H4         -3.0811  -12.2930  -17.0451 H         1 2AP         0.0781
     12 H5         -0.9920  -17.0271  -18.0539 H         1 2AP         0.1766
     13 H6         -1.8915  -16.0145  -19.2150 H         1 2AP         0.1766
@<TRIPOS>BOND
     1    1    2 ar 
     2    1    6 ar 
     3    2    3 ar 
     4    2    7 1  
     5    3    4 ar 
     6    4    5 ar 
     7    5    6 ar 
     8    3    8 1  
     9    4    9 1  
    10    5   10 1  
    11    6   11 1  
    12    7   12 1  
    13    7   13 1  
@<TRIPOS>SUBSTRUCTURE
     1 2AP         1

