### 
### Created by X-TOOL on Mon Sep 10 21:13:30 2018
### 

@<TRIPOS>MOLECULE
5mnb_ligand
   13    13     1     0     0
SMALL
GAST_HUCK


@<TRIPOS>ATOM
      1 N1         -2.4050  -14.1910  -17.8150 N.ar      1 2AP        -0.2856
      2 C2         -1.8420  -15.3630  -17.4800 C.ar      1 2AP         0.1085
      3 C3         -1.3080  -15.5870  -16.1920 C.ar      1 2AP        -0.0164
      4 C4         -1.3520  -14.5480  -15.2770 C.ar      1 2AP        -0.0542
      5 C5         -1.9060  -13.3440  -15.6330 C.ar      1 2AP        -0.0480
      6 C6         -2.4200  -13.2180  -16.8900 C.ar      1 2AP        -0.0042
      7 N          -1.8100  -16.3190  -18.4340 N.pl3     1 2AP        -0.3221
      8 H1         -0.8758  -16.5451  -15.9268 H         1 2AP         0.0610
      9 H2         -0.9490  -14.6859  -14.2802 H         1 2AP         0.0699
     10 H3         -1.9343  -12.5157  -14.9342 H         1 2AP         0.0597
     11 H4         -2.8704  -12.2697  -17.1601 H         1 2AP         0.0781
     12 H5         -1.3893  -17.2367  -18.2296 H         1 2AP         0.1766
     13 H6         -2.2063  -16.1302  -19.3658 H         1 2AP         0.1766
@<TRIPOS>BOND
     1    1    2 ar 
     2    1    6 ar 
     3    2    3 ar 
     4    2    7 1  
     5    3    4 ar 
     6    4    5 ar 
     7    5    6 ar 
     8    3    8 1  
     9    4    9 1  
    10    5   10 1  
    11    6   11 1  
    12    7   12 1  
    13    7   13 1  
@<TRIPOS>SUBSTRUCTURE
     1 2AP         1

