### 
### Created by X-TOOL on Mon Sep 10 21:13:30 2018
### 

@<TRIPOS>MOLECULE
5mnc_ligand
   14    14     1     0     0
SMALL
GAST_HUCK


@<TRIPOS>ATOM
      1 C1         -1.6130  -15.1870  -16.9920 C.ar      1 ANL         0.0352
      2 C2         -2.1990  -13.9590  -17.1810 C.ar      1 ANL        -0.0447
      3 C3         -2.1740  -13.0440  -16.1410 C.ar      1 ANL        -0.0737
      4 C4         -1.5830  -13.3660  -14.9350 C.ar      1 ANL        -0.0751
      5 C5         -1.0120  -14.5990  -14.7700 C.ar      1 ANL        -0.0737
      6 C6         -1.0160  -15.5140  -15.8010 C.ar      1 ANL        -0.0447
      7 N          -1.6270  -16.1800  -18.0710 N.pl3     1 ANL        -0.3369
      8 H1         -2.6713  -13.7110  -18.1246 H         1 ANL         0.0515
      9 H2         -2.6225  -12.0663  -16.2751 H         1 ANL         0.0583
     10 H3         -1.5714  -12.6467  -14.1241 H         1 ANL         0.0505
     11 H4         -0.5536  -14.8576  -13.8223 H         1 ANL         0.0583
     12 H5         -0.5509  -16.4846  -15.6716 H         1 ANL         0.0515
     13 H6         -2.0702  -15.9542  -18.9730 H         1 ANL         0.1719
     14 H7         -1.1937  -17.1032  -17.9269 H         1 ANL         0.1719
@<TRIPOS>BOND
     1    1    2 ar 
     2    1    6 ar 
     3    1    7 1  
     4    2    3 ar 
     5    3    4 ar 
     6    4    5 ar 
     7    5    6 ar 
     8    2    8 1  
     9    3    9 1  
    10    4   10 1  
    11    5   11 1  
    12    6   12 1  
    13    7   13 1  
    14    7   14 1  
@<TRIPOS>SUBSTRUCTURE
     1 ANL         1

