### 
### Created by X-TOOL on Wed Jan  1 15:39:34 2020
### 

@<TRIPOS>MOLECULE
5mng_ligand
   18    18     1     0     0
SMALL
GAST_HUCK


@<TRIPOS>ATOM
      1 C1         -1.7430  -14.7430  -17.0860 C.ar      1 BAM         0.0260
      2 C2         -1.5750  -13.3550  -17.1640 C.ar      1 BAM        -0.0565
      3 C3         -1.2340  -12.6360  -16.0350 C.ar      1 BAM        -0.0618
      4 C4         -1.0630  -13.2840  -14.8200 C.ar      1 BAM        -0.0618
      5 C5         -1.2180  -14.6540  -14.7420 C.ar      1 BAM        -0.0618
      6 C6         -1.5470  -15.3800  -15.8690 C.ar      1 BAM        -0.0565
      7 C          -2.1090  -15.5200  -18.2810 C.cat     1 BAM         0.2356
      8 N1         -1.7330  -16.7690  -18.3930 N.pl3     1 BAM        -0.2721
      9 N2         -2.7790  -14.9530  -19.2520 N.pl3     1 BAM        -0.2721
     10 H1         -1.7126  -12.8448  -18.1105 H         1 BAM         0.0617
     11 H2         -1.0996  -11.5622  -16.0983 H         1 BAM         0.0618
     12 H3         -0.8080  -12.7154  -13.9330 H         1 BAM         0.0618
     13 H4         -1.0810  -15.1605  -13.7935 H         1 BAM         0.0618
     14 H5         -1.6531  -16.4568  -15.8027 H         1 BAM         0.0617
     15 H6         -1.9902  -17.3112  -19.2302 H         1 BAM         0.3181
     16 H7         -1.1800  -17.2095  -17.6440 H         1 BAM         0.3181
     17 H8         -3.0764  -13.9705  -19.1673 H         1 BAM         0.3181
     18 H9         -3.0088  -15.4893  -20.1008 H         1 BAM         0.3181
@<TRIPOS>BOND
     1    1    2 ar 
     2    1    6 ar 
     3    1    7 1  
     4    2    3 ar 
     5    3    4 ar 
     6    4    5 ar 
     7    5    6 ar 
     8    7    8 ar 
     9    7    9 ar 
    10    2   10 1  
    11    3   11 1  
    12    4   12 1  
    13    5   13 1  
    14    6   14 1  
    15    8   15 1  
    16    8   16 1  
    17    9   17 1  
    18    9   18 1  
@<TRIPOS>SUBSTRUCTURE
     1 BAM         1

