### 
### Created by X-TOOL on Wed Jan  1 15:39:34 2020
### 

@<TRIPOS>MOLECULE
5mnh_ligand
   18    18     1     0     0
SMALL
GAST_HUCK


@<TRIPOS>ATOM
      1 C1         -1.7930  -14.8770  -17.1720 C.ar      1 BAM         0.0260
      2 C2         -1.3250  -15.5230  -16.0440 C.ar      1 BAM        -0.0565
      3 C3         -1.0530  -14.8210  -14.8880 C.ar      1 BAM        -0.0618
      4 C4         -1.2370  -13.4780  -14.8480 C.ar      1 BAM        -0.0618
      5 C5         -1.6700  -12.8190  -15.9720 C.ar      1 BAM        -0.0618
      6 C6         -1.9500  -13.5140  -17.1330 C.ar      1 BAM        -0.0565
      7 C          -2.1320  -15.6410  -18.3840 C.cat     1 BAM         0.2356
      8 N1         -1.7400  -16.8810  -18.5070 N.pl3     1 BAM        -0.2721
      9 N2         -2.8330  -15.0940  -19.3410 N.pl3     1 BAM        -0.2721
     10 H1         -1.1695  -16.5955  -16.0676 H         1 BAM         0.0617
     11 H2         -0.6915  -15.3439  -14.0099 H         1 BAM         0.0618
     12 H3         -1.0434  -12.9281  -13.9341 H         1 BAM         0.0618
     13 H4         -1.7935  -11.7423  -15.9484 H         1 BAM         0.0618
     14 H5         -2.2937  -12.9827  -18.0131 H         1 BAM         0.0617
     15 H6         -1.9777  -17.4145  -19.3554 H         1 BAM         0.3181
     16 H7         -1.1932  -17.3252  -17.7556 H         1 BAM         0.3181
     17 H8         -3.1476  -14.1170  -19.2551 H         1 BAM         0.3181
     18 H9         -3.0711  -15.6397  -20.1815 H         1 BAM         0.3181
@<TRIPOS>BOND
     1    1    2 ar 
     2    1    6 ar 
     3    1    7 1  
     4    2    3 ar 
     5    3    4 ar 
     6    4    5 ar 
     7    5    6 ar 
     8    7    8 ar 
     9    7    9 ar 
    10    2   10 1  
    11    3   11 1  
    12    4   12 1  
    13    5   13 1  
    14    6   14 1  
    15    8   15 1  
    16    8   16 1  
    17    9   17 1  
    18    9   18 1  
@<TRIPOS>SUBSTRUCTURE
     1 BAM         1

