### 
### Created by X-TOOL on Wed Jan  1 15:39:34 2020
### 

@<TRIPOS>MOLECULE
5mno_ligand
   23    23     1     0     0
SMALL
GAST_HUCK


@<TRIPOS>ATOM
      1 C1         -1.6460  -13.5880  -14.6380 C.3       1 MRZ        -0.0467
      2 C6         -2.4590  -13.0450  -15.7860 C.3       1 MRZ        -0.0195
      3 C5         -1.7990  -13.3400  -17.1070 C.3       1 MRZ         0.0648
      4 N4         -1.6190  -14.7890  -17.2510 N.pl3     1 MRZ        -0.2597
      5 C3         -0.7440  -15.2930  -16.1840 C.3       1 MRZ         0.0648
      6 C2         -1.3560  -15.0510  -14.8390 C.3       1 MRZ        -0.0195
      7 C7         -2.0030  -15.5110  -18.3070 C.cat     1 MRZ         0.2903
      8 N8         -1.6490  -16.7710  -18.4400 N.pl3     1 MRZ        -0.2848
      9 N9         -2.7160  -14.9730  -19.2730 N.pl3     1 MRZ        -0.2848
     10 H1         -2.2091  -13.4564  -13.7023 H         1 MRZ         0.0267
     11 H2         -0.6962  -13.0367  -14.5751 H         1 MRZ         0.0267
     12 H3         -2.5602  -11.9558  -15.6707 H         1 MRZ         0.0299
     13 H4         -3.4560  -13.5095  -15.7712 H         1 MRZ         0.0299
     14 H5         -0.8184  -12.8431  -17.1461 H         1 MRZ         0.0690
     15 H6         -2.4324  -12.9662  -17.9249 H         1 MRZ         0.0690
     16 H7          0.2255  -14.7762  -16.2378 H         1 MRZ         0.0690
     17 H8         -0.5917  -16.3736  -16.3222 H         1 MRZ         0.0690
     18 H9         -2.2953  -15.6184  -14.7631 H         1 MRZ         0.0299
     19 H10        -0.6584  -15.3906  -14.0593 H         1 MRZ         0.0299
     20 H11        -1.9570  -17.3084  -19.2630 H         1 MRZ         0.2615
     21 H12        -1.0638  -17.2202  -17.7212 H         1 MRZ         0.2615
     22 H13        -3.0133  -13.9890  -19.2070 H         1 MRZ         0.2615
     23 H14        -2.9769  -15.5358  -20.0953 H         1 MRZ         0.2615
@<TRIPOS>BOND
     1    1    2 1  
     2    1    6 1  
     3    2    3 1  
     4    3    4 1  
     5    4    5 1  
     6    4    7 ar 
     7    5    6 1  
     8    7    8 ar 
     9    7    9 ar 
    10    1   10 1  
    11    1   11 1  
    12    2   12 1  
    13    2   13 1  
    14    3   14 1  
    15    3   15 1  
    16    5   16 1  
    17    5   17 1  
    18    6   18 1  
    19    6   19 1  
    20    8   20 1  
    21    8   21 1  
    22    9   22 1  
    23    9   23 1  
@<TRIPOS>SUBSTRUCTURE
     1 MRZ         1

