### 
### Created by X-TOOL on Mon Sep 10 21:13:31 2018
### 

@<TRIPOS>MOLECULE
5mnx_ligand
   13    13     1     0     0
SMALL
GAST_HUCK


@<TRIPOS>ATOM
      1 N1         -2.3420  -14.1550  -17.7720 N.ar      1 2AP        -0.2856
      2 C2         -1.8700  -15.3900  -17.5070 C.ar      1 2AP         0.1085
      3 C3         -1.3250  -15.6290  -16.2320 C.ar      1 2AP        -0.0164
      4 C4         -1.2890  -14.5990  -15.3120 C.ar      1 2AP        -0.0542
      5 C5         -1.7850  -13.3530  -15.6270 C.ar      1 2AP        -0.0480
      6 C6         -2.3150  -13.1570  -16.8700 C.ar      1 2AP        -0.0042
      7 N          -1.9360  -16.3130  -18.4580 N.pl3     1 2AP        -0.3221
      8 H1         -0.9384  -16.6086  -15.9749 H         1 2AP         0.0610
      9 H2         -0.8650  -14.7735  -14.3297 H         1 2AP         0.0699
     10 H3         -1.7552  -12.5459  -14.9040 H         1 2AP         0.0597
     11 H4         -2.7187  -12.1860  -17.1332 H         1 2AP         0.0781
     12 H5         -1.5818  -17.2634  -18.2787 H         1 2AP         0.1766
     13 H6         -2.3415  -16.0791  -19.3755 H         1 2AP         0.1766
@<TRIPOS>BOND
     1    1    2 ar 
     2    1    6 ar 
     3    2    3 ar 
     4    2    7 1  
     5    3    4 ar 
     6    4    5 ar 
     7    5    6 ar 
     8    3    8 1  
     9    4    9 1  
    10    5   10 1  
    11    6   11 1  
    12    7   12 1  
    13    7   13 1  
@<TRIPOS>SUBSTRUCTURE
     1 2AP         1

