### 
### Created by X-TOOL on Mon Sep 10 21:13:31 2018
### 

@<TRIPOS>MOLECULE
5mny_ligand
   14    14     1     0     0
SMALL
GAST_HUCK


@<TRIPOS>ATOM
      1 C1         -1.6540  -15.2430  -17.0440 C.ar      1 WOT         0.0352
      2 C2         -0.9450  -15.5690  -15.9080 C.ar      1 WOT        -0.0447
      3 C3         -0.8330  -14.6170  -14.9050 C.ar      1 WOT        -0.0737
      4 C4         -1.4320  -13.3830  -15.0380 C.ar      1 WOT        -0.0751
      5 C5         -2.1470  -13.0860  -16.1790 C.ar      1 WOT        -0.0737
      6 C6         -2.2620  -14.0180  -17.1970 C.ar      1 WOT        -0.0447
      7 N          -1.7270  -16.2210  -18.1330 N.pl3     1 WOT        -0.3369
      8 H1         -0.4861  -16.5452  -15.8008 H         1 WOT         0.0515
      9 H2         -0.2689  -14.8460  -14.0081 H         1 WOT         0.0583
     10 H3         -1.3412  -12.6472  -14.2471 H         1 WOT         0.0505
     11 H4         -2.6221  -12.1169  -16.2799 H         1 WOT         0.0583
     12 H5         -2.8202  -13.7869  -18.0970 H         1 WOT         0.0515
     13 H6         -1.2758  -17.1412  -18.0299 H         1 WOT         0.1719
     14 H7         -2.2295  -15.9882  -19.0014 H         1 WOT         0.1719
@<TRIPOS>BOND
     1    1    2 ar 
     2    1    6 ar 
     3    1    7 1  
     4    2    3 ar 
     5    3    4 ar 
     6    4    5 ar 
     7    5    6 ar 
     8    2    8 1  
     9    3    9 1  
    10    4   10 1  
    11    5   11 1  
    12    6   12 1  
    13    7   13 1  
    14    7   14 1  
@<TRIPOS>SUBSTRUCTURE
     1 WOT         1

