### 
### Created by X-TOOL on Wed Jan  1 15:39:35 2020
### 

@<TRIPOS>MOLECULE
5mo0_ligand
   18    18     1     0     0
SMALL
GAST_HUCK


@<TRIPOS>ATOM
      1 C1         -1.8380  -14.8810  -17.1570 C.ar      1 BAM         0.0260
      2 C2         -1.9930  -13.5000  -17.1510 C.ar      1 BAM        -0.0565
      3 C3         -1.6700  -12.7600  -16.0280 C.ar      1 BAM        -0.0618
      4 C4         -1.1890  -13.3870  -14.8980 C.ar      1 BAM        -0.0618
      5 C5         -1.0180  -14.7550  -14.8960 C.ar      1 BAM        -0.0618
      6 C6         -1.3480  -15.5030  -16.0110 C.ar      1 BAM        -0.0565
      7 C          -2.1870  -15.6740  -18.3500 C.cat     1 BAM         0.2356
      8 N1         -1.7870  -16.9180  -18.4460 N.pl3     1 BAM        -0.2721
      9 N2         -2.9020  -15.1410  -19.3070 N.pl3     1 BAM        -0.2721
     10 H1         -2.3705  -12.9981  -18.0346 H         1 BAM         0.0617
     11 H2         -1.7954  -11.6833  -16.0362 H         1 BAM         0.0618
     12 H3         -0.9464  -12.8068  -14.0151 H         1 BAM         0.0618
     13 H4         -0.6224  -15.2472  -14.0149 H         1 BAM         0.0618
     14 H5         -1.2247  -16.5798  -15.9933 H         1 BAM         0.0617
     15 H6         -2.0295  -17.4742  -19.2784 H         1 BAM         0.3181
     16 H7         -1.2301  -17.3398  -17.6891 H         1 BAM         0.3181
     17 H8         -3.2164  -14.1631  -19.2314 H         1 BAM         0.3181
     18 H9         -3.1506  -15.6993  -20.1361 H         1 BAM         0.3181
@<TRIPOS>BOND
     1    1    2 ar 
     2    1    6 ar 
     3    1    7 1  
     4    2    3 ar 
     5    3    4 ar 
     6    4    5 ar 
     7    5    6 ar 
     8    7    8 ar 
     9    7    9 ar 
    10    2   10 1  
    11    3   11 1  
    12    4   12 1  
    13    5   13 1  
    14    6   14 1  
    15    8   15 1  
    16    8   16 1  
    17    9   17 1  
    18    9   18 1  
@<TRIPOS>SUBSTRUCTURE
     1 BAM         1

