### 
### Created by X-TOOL on Wed Jan  1 15:39:35 2020
### 

@<TRIPOS>MOLECULE
5mo2_ligand
   23    23     1     0     0
SMALL
GAST_HUCK


@<TRIPOS>ATOM
      1 C1         -1.6950  -13.5420  -14.6370 C.3       1 D86        -0.0467
      2 C6         -1.3970  -15.0110  -14.8090 C.3       1 D86        -0.0195
      3 C5         -0.7740  -15.2810  -16.1540 C.3       1 D86         0.0648
      4 N4         -1.6240  -14.7820  -17.2430 N.pl3     1 D86        -0.2597
      5 C3         -1.8990  -13.3380  -17.1000 C.3       1 D86         0.0648
      6 C2         -2.5490  -13.0500  -15.7720 C.3       1 D86        -0.0195
      7 C7         -2.0520  -15.4990  -18.2710 C.cat     1 D86         0.2903
      8 N8         -1.7260  -16.7830  -18.3860 N.pl3     1 D86        -0.2848
      9 N9         -2.8000  -14.9840  -19.2240 N.pl3     1 D86        -0.2848
     10 H1         -0.7503  -12.9787  -14.6223 H         1 D86         0.0267
     11 H2         -2.2285  -13.3881  -13.6875 H         1 D86         0.0267
     12 H3         -2.3344  -15.5805  -14.7258 H         1 D86         0.0299
     13 H4         -0.7016  -15.3320  -14.0194 H         1 D86         0.0299
     14 H5         -0.6365  -16.3657  -16.2745 H         1 D86         0.0690
     15 H6          0.2038  -14.7796  -16.2037 H         1 D86         0.0690
     16 H7         -2.5717  -13.0164  -17.9088 H         1 D86         0.0690
     17 H8         -0.9525  -12.7815  -17.1672 H         1 D86         0.0690
     18 H9         -2.6928  -11.9643  -15.6697 H         1 D86         0.0299
     19 H10        -3.5256  -13.5546  -15.7325 H         1 D86         0.0299
     20 H11        -2.0649  -17.3304  -19.1900 H         1 D86         0.2615
     21 H12        -1.1346  -17.2302  -17.6711 H         1 D86         0.2615
     22 H13        -3.0795  -13.9936  -19.1808 H         1 D86         0.2615
     23 H14        -3.1057  -15.5714  -20.0129 H         1 D86         0.2615
@<TRIPOS>BOND
     1    1    2 1  
     2    1    6 1  
     3    2    3 1  
     4    3    4 1  
     5    4    5 1  
     6    4    7 ar 
     7    5    6 1  
     8    7    8 ar 
     9    7    9 ar 
    10    1   10 1  
    11    1   11 1  
    12    2   12 1  
    13    2   13 1  
    14    3   14 1  
    15    3   15 1  
    16    5   16 1  
    17    5   17 1  
    18    6   18 1  
    19    6   19 1  
    20    8   20 1  
    21    8   21 1  
    22    9   22 1  
    23    9   23 1  
@<TRIPOS>SUBSTRUCTURE
     1 D86         1

