### 
### Created by X-TOOL on Mon Sep 10 21:13:33 2018
### 

@<TRIPOS>MOLECULE
5mo8_ligand
   60    62     1     0     0
SMALL
GAST_HUCK


@<TRIPOS>ATOM
      1 CL          5.4220  139.4700  351.1360 Cl        1 C98        -0.0710
      2 C17         4.8600  138.8410  352.6520 C.ar      1 C98         0.0425
      3 C16         4.3820  139.7010  353.6290 C.ar      1 C98        -0.0104
      4 C19         4.0900  141.1420  353.3900 C.ar      1 C98        -0.0218
      5 C24         2.8700  141.6960  353.7710 C.ar      1 C98        -0.0557
      6 C23         2.5990  143.0350  353.5490 C.ar      1 C98        -0.0622
      7 C22         3.5350  143.8410  352.9450 C.ar      1 C98        -0.0627
      8 C21         4.7450  143.3110  352.5560 C.ar      1 C98        -0.0622
      9 C20         5.0230  141.9720  352.7730 C.ar      1 C98        -0.0557
     10 C15         4.0580  139.1510  354.8660 C.ar      1 C98        -0.0594
     11 C14         4.1610  137.7900  355.0860 C.ar      1 C98        -0.0538
     12 C18         4.9490  137.4800  352.8650 C.ar      1 C98        -0.0401
     13 C13         4.5890  136.9340  354.0890 C.ar      1 C98         0.0028
     14 C12         4.6320  135.4420  354.3080 C.3       1 C98         0.0006
     15 N2          5.2620  135.0590  355.5690 N.4       1 C98         0.2394
     16 C11         5.9830  133.7920  355.4800 C.3       1 C98        -0.0304
     17 C10         6.0450  133.0710  356.8060 C.3       1 C98         0.0076
     18 C9          6.9620  131.8740  356.7330 C.3       1 C98         0.0358
     19 N1          6.9170  131.0430  357.9270 N.am      1 C98        -0.2848
     20 C8          8.0090  130.5050  358.4580 C.2       1 C98         0.1959
     21 O3          9.1420  130.8300  358.1170 O.2       1 C98        -0.3937
     22 C7          7.7830  129.4210  359.4900 C.3       1 C98         0.1321
     23 C6          8.0310  129.9120  360.8990 C.2       1 C98         0.2229
     24 O2          7.1080  130.0350  361.6970 O.2       1 C98        -0.3815
     25 N           9.3220  130.1790  361.1930 N.am      1 C98        -0.2315
     26 C5          9.8350  130.6990  362.4030 C.ar      1 C98         0.0698
     27 C4          8.9690  130.9800  363.4510 C.ar      1 C98        -0.0387
     28 C3          9.4430  131.6070  364.5900 C.ar      1 C98        -0.0720
     29 C2         10.7790  131.9490  364.6930 C.ar      1 C98        -0.0630
     30 C25        11.1840  131.0120  362.5220 C.ar      1 C98        -0.0271
     31 C1         11.6610  131.6480  363.6640 C.ar      1 C98        -0.0034
     32 C          13.0760  132.0980  363.7270 C.2       1 C98         0.0594
     33 O1         13.4750  132.8300  364.6090 O.co2     1 C98        -0.5608
     34 O          13.8070  131.7130  362.7380 O.co2     1 C98        -0.5608
     35 H1          2.1236  141.0706  354.2473 H         1 C98         0.0615
     36 H2          1.6447  143.4500  353.8526 H         1 C98         0.0615
     37 H3          3.3212  144.8901  352.7756 H         1 C98         0.0610
     38 H4          5.4831  143.9448  352.0778 H         1 C98         0.0615
     39 H5          5.9775  141.5651  352.4592 H         1 C98         0.0615
     40 H6          3.7205  139.7983  355.6673 H         1 C98         0.0609
     41 H7          3.9013  137.3870  356.0582 H         1 C98         0.0564
     42 H8          5.3027  136.8330  352.0704 H         1 C98         0.0567
     43 H9          5.1973  134.9845  353.4827 H         1 C98         0.0983
     44 H10         3.6009  135.0589  354.3029 H         1 C98         0.0983
     45 H11         4.5463  134.9733  356.2736 H         1 C98         0.2028
     46 H12         5.9122  135.7813  355.8366 H         1 C98         0.2028
     47 H13         7.0092  133.9926  355.1386 H         1 C98         0.0814
     48 H14         5.4734  133.1459  354.7500 H         1 C98         0.0814
     49 H15         5.0343  132.7328  357.0784 H         1 C98         0.0336
     50 H16         6.4194  133.7637  357.5741 H         1 C98         0.0336
     51 H17         7.9930  132.2315  356.5947 H         1 C98         0.0522
     52 H18         6.6676  131.2604  355.8689 H         1 C98         0.0522
     53 H19         6.0334  130.8712  358.3626 H         1 C98         0.1852
     54 H20         8.4666  128.5849  359.2809 H         1 C98         0.0744
     55 H21         6.7427  129.0717  359.4147 H         1 C98         0.0744
     56 H22         9.9898  129.9872  360.4738 H         1 C98         0.2258
     57 H23         7.9222  130.7085  363.3772 H         1 C98         0.0523
     58 H24         8.7642  131.8310  365.4049 H         1 C98         0.0584
     59 H25        11.1393  132.4546  365.5816 H         1 C98         0.0521
     60 H26        11.8685  130.7591  361.7204 H         1 C98         0.0535
@<TRIPOS>BOND
     1    1    2 1  
     2    2    3 ar 
     3    2   12 ar 
     4    3    4 1  
     5    3   10 ar 
     6    4    5 ar 
     7    4    9 ar 
     8    5    6 ar 
     9    6    7 ar 
    10    7    8 ar 
    11    8    9 ar 
    12   10   11 ar 
    13   11   13 ar 
    14   12   13 ar 
    15   13   14 1  
    16   14   15 1  
    17   15   16 1  
    18   16   17 1  
    19   17   18 1  
    20   18   19 1  
    21   19   20 am 
    22   20   21 2  
    23   20   22 1  
    24   22   23 1  
    25   23   24 2  
    26   23   25 am 
    27   25   26 1  
    28   26   27 ar 
    29   26   30 ar 
    30   27   28 ar 
    31   28   29 ar 
    32   29   31 ar 
    33   30   31 ar 
    34   31   32 1  
    35   32   33 ar 
    36   32   34 ar 
    37    5   35 1  
    38    6   36 1  
    39    7   37 1  
    40    8   38 1  
    41    9   39 1  
    42   10   40 1  
    43   11   41 1  
    44   12   42 1  
    45   14   43 1  
    46   14   44 1  
    47   15   45 1  
    48   15   46 1  
    49   16   47 1  
    50   16   48 1  
    51   17   49 1  
    52   17   50 1  
    53   18   51 1  
    54   18   52 1  
    55   19   53 1  
    56   22   54 1  
    57   22   55 1  
    58   25   56 1  
    59   27   57 1  
    60   28   58 1  
    61   29   59 1  
    62   30   60 1  
@<TRIPOS>SUBSTRUCTURE
     1 C98         1

