### 
### Created by X-TOOL on Mon Sep 10 21:13:32 2018
### 

@<TRIPOS>MOLECULE
5mob_ligand
   40    40     1     0     0
SMALL
GAST_HUCK


@<TRIPOS>ATOM
      1 C1         19.4410   13.5410    4.6480 C.2       1 A8S         0.0909
      2 C2         19.2200   12.9370    3.2970 C.2       1 A8S         0.0311
      3 C3         18.0870   12.3300    2.8290 C.2       1 A8S         0.0351
      4 C4         16.8590   12.2550    3.6850 C.2       1 A8S        -0.0047
      5 C5         15.6990   11.6550    3.2820 C.2       1 A8S        -0.0742
      6 C6         18.1160   11.6660    1.4880 C.3       1 A8S        -0.0112
      7 C7         14.4750   11.6740    4.1620 C.3       1 A8S         0.0260
      8 O7         14.7580   12.3370    5.3470 O.3       1 A8S        -0.4554
      9 C8         13.4600   12.5170    3.4150 C.3       1 A8S        -0.0462
     10 C9         12.4550   11.8640    2.5350 C.3       1 A8S         0.0129
     11 C10        12.3730   10.3840    2.5620 C.2       1 A8S         0.1033
     12 O10        11.4230    9.8290    2.0070 O.2       1 A8S        -0.3917
     13 C11        13.4270    9.5910    3.2620 C.3       1 A8S         0.0154
     14 O11        18.5270   13.7180    5.4980 O.co2     1 A8S        -0.5498
     15 C12        13.9920   10.2750    4.4680 C.3       1 A8S        -0.0372
     16 O12        20.5980   13.8980    4.9490 O.co2     1 A8S        -0.5498
     17 C13        13.5640   14.0060    3.3950 C.3       1 A8S        -0.0712
     18 C14        12.8970   10.2790    5.5020 C.3       1 A8S        -0.0687
     19 C15        15.0650    9.4000    5.0410 C.3       1 A8S        -0.0687
     20 H1         20.0596   12.9864    2.6052 H         1 A8S         0.1115
     21 H2         16.8927   12.7010    4.6779 H         1 A8S         0.1244
     22 H3         15.6584   11.1575    2.3141 H         1 A8S         0.0546
     23 H4         19.0961   11.8330    1.0173 H         1 A8S         0.0420
     24 H5         17.3263   12.0911    0.8512 H         1 A8S         0.0420
     25 H6         17.9471   10.5859    1.6099 H         1 A8S         0.0420
     26 H7         15.4632   11.8887    5.7988 H         1 A8S         0.1850
     27 H8         12.7746   12.5290    4.2752 H         1 A8S         0.0178
     28 H9         12.6815   12.1615    1.5005 H         1 A8S         0.0484
     29 H10        11.4664   12.2529    2.8204 H         1 A8S         0.0484
     30 H11        14.2472    9.4017    2.5539 H         1 A8S         0.0486
     31 H12        12.9882    8.6336    3.5793 H         1 A8S         0.0486
     32 H13        14.3480   14.3282    4.0961 H         1 A8S         0.0221
     33 H14        12.6010   14.4449    3.6949 H         1 A8S         0.0221
     34 H15        13.8197   14.3421    2.3793 H         1 A8S         0.0221
     35 H16        13.2579   10.7727    6.4163 H         1 A8S         0.0224
     36 H17        12.6081    9.2433    5.7342 H         1 A8S         0.0224
     37 H18        12.0252   10.8239    5.1108 H         1 A8S         0.0224
     38 H19        15.9087    9.3459    4.3372 H         1 A8S         0.0224
     39 H20        14.6632    8.3901    5.2101 H         1 A8S         0.0224
     40 H21        15.4109    9.8217    5.9963 H         1 A8S         0.0224
@<TRIPOS>BOND
     1    1    2 1  
     2    1   14 ar 
     3    1   16 ar 
     4    2    3 2  
     5    3    4 1  
     6    3    6 1  
     7    4    5 2  
     8    5    7 1  
     9    7    8 1  
    10    7    9 1  
    11    7   15 1  
    12    9   10 1  
    13    9   17 1  
    14   10   11 1  
    15   11   12 2  
    16   11   13 1  
    17   13   15 1  
    18   15   18 1  
    19   15   19 1  
    20    2   20 1  
    21    4   21 1  
    22    5   22 1  
    23    6   23 1  
    24    6   24 1  
    25    6   25 1  
    26    8   26 1  
    27    9   27 1  
    28   10   28 1  
    29   10   29 1  
    30   13   30 1  
    31   13   31 1  
    32   17   32 1  
    33   17   33 1  
    34   17   34 1  
    35   18   35 1  
    36   18   36 1  
    37   18   37 1  
    38   19   38 1  
    39   19   39 1  
    40   19   40 1  
@<TRIPOS>SUBSTRUCTURE
     1 A8S         1

