### 
### Created by X-TOOL on Mon Sep 10 21:13:33 2018
### 

@<TRIPOS>MOLECULE
5mod_ligand
   28    28     1     0     0
SMALL
GAST_HUCK


@<TRIPOS>ATOM
      1 CL          6.1710  142.8150  353.2660 Cl        1 86L        -0.0805
      2 C9          5.3190  141.3200  353.0650 C.ar      1 86L         0.0617
      3 C8          5.8850  140.1530  353.5300 C.ar      1 86L        -0.0498
      4 C6          5.2160  138.9450  353.3960 C.ar      1 86L        -0.0089
      5 C7          5.8400  137.6640  353.8700 C.3       1 86L        -0.0065
      6 N           5.0050  137.0630  354.9050 N.4       1 86L         0.2293
      7 C5          3.9660  138.9460  352.7960 C.ar      1 86L        -0.0635
      8 C4          3.3940  140.1170  352.3250 C.ar      1 86L        -0.0386
      9 C3          4.0750  141.3160  352.4480 C.ar      1 86L         0.0987
     10 O           3.6460  142.5240  351.9590 O.3       1 86L        -0.3189
     11 C1          3.1380  143.5350  352.8690 C.3       1 86L         0.0744
     12 C2          3.5260  144.8840  352.3410 C.3       1 86L        -0.0347
     13 C           1.6580  143.3460  352.9490 C.3       1 86L        -0.0347
     14 H1          6.8597  140.1789  354.0038 H         1 86L         0.0537
     15 H2          6.8381  137.8741  354.2819 H         1 86L         0.0957
     16 H3          5.9317  136.9671  353.0239 H         1 86L         0.0957
     17 H4          5.4272  136.2037  355.2204 H         1 86L         0.2006
     18 H5          4.0902  136.8695  354.5284 H         1 86L         0.2006
     19 H6          4.9209  137.7006  355.6812 H         1 86L         0.2006
     20 H7          3.4254  138.0121  352.6933 H         1 86L         0.0534
     21 H8          2.4146  140.0942  351.8609 H         1 86L         0.0526
     22 H9          3.5763  143.4014  353.8690 H         1 86L         0.0642
     23 H10         3.1494  145.6649  353.0180 H         1 86L         0.0258
     24 H11         3.0911  145.0252  351.3406 H         1 86L         0.0258
     25 H12         4.6221  144.9514  352.2772 H         1 86L         0.0258
     26 H13         1.2291  144.0947  353.6313 H         1 86L         0.0258
     27 H14         1.4371  142.3367  353.3266 H         1 86L         0.0258
     28 H15         1.2182  143.4675  351.9481 H         1 86L         0.0258
@<TRIPOS>BOND
     1    1    2 1  
     2    2    3 ar 
     3    2    9 ar 
     4    3    4 ar 
     5    4    5 1  
     6    4    7 ar 
     7    5    6 1  
     8    7    8 ar 
     9    8    9 ar 
    10    9   10 1  
    11   10   11 1  
    12   11   12 1  
    13   11   13 1  
    14    3   14 1  
    15    5   15 1  
    16    5   16 1  
    17    6   17 1  
    18    6   18 1  
    19    6   19 1  
    20    7   20 1  
    21    8   21 1  
    22   11   22 1  
    23   12   23 1  
    24   12   24 1  
    25   12   25 1  
    26   13   26 1  
    27   13   27 1  
    28   13   28 1  
@<TRIPOS>SUBSTRUCTURE
     1 86L         1

