### 
### Created by X-TOOL on Mon Sep 10 21:13:32 2018
### 

@<TRIPOS>MOLECULE
5moe_ligand
   25    26     1     0     0
SMALL
GAST_HUCK


@<TRIPOS>ATOM
      1 C7         33.6930  149.8330  368.3620 C.2       1 OQC        -0.0226
      2 CL         34.5220  150.3750  365.4440 Cl        1 OQC        -0.0756
      3 C5         34.0810  148.8270  366.0860 C.ar      1 OQC         0.0347
      4 C6         34.1150  147.7410  365.2320 C.ar      1 OQC        -0.0450
      5 C1         33.7470  146.4800  365.6820 C.ar      1 OQC        -0.0016
      6 C          33.7860  145.3000  364.7520 C.3       1 OQC        -0.0031
      7 N          34.8020  144.3100  365.0810 N.4       1 OQC         0.2305
      8 C4         33.6910  148.6950  367.4130 C.ar      1 OQC        -0.0299
      9 C3         33.3200  147.4280  367.8560 C.ar      1 OQC        -0.0668
     10 C2         33.3500  146.3420  367.0000 C.ar      1 OQC        -0.0586
     11 C10        32.5320  150.2350  369.0750 C.2       1 OQC        -0.0585
     12 C9         32.8800  151.2630  369.8540 C.2       1 OQC         0.0796
     13 C8         34.6730  150.6660  368.7710 C.2       1 OQC         0.0895
     14 O          34.2000  151.5550  369.6910 O.3       1 OQC        -0.2665
     15 H1         34.4311  147.8745  364.2038 H         1 OQC         0.0556
     16 H2         33.9821  145.6696  363.7347 H         1 OQC         0.0973
     17 H3         32.8031  144.8070  364.7799 H         1 OQC         0.0973
     18 H4         34.7636  143.5549  364.4144 H         1 OQC         0.2007
     19 H5         34.6326  143.9496  366.0070 H         1 OQC         0.2007
     20 H6         35.7130  144.7402  365.0493 H         1 OQC         0.2007
     21 H7         33.0040  147.2912  368.8839 H         1 OQC         0.0567
     22 H8         33.0573  145.3655  367.3684 H         1 OQC         0.0552
     23 H9         31.5418  149.7880  369.0004 H         1 OQC         0.0333
     24 H10        32.2041  151.7922  370.5241 H         1 OQC         0.0966
     25 H11        35.7016  150.6329  368.4149 H         1 OQC         0.0997
@<TRIPOS>BOND
     1    8    1 1  
     2    1   11 1  
     3    1   13 2  
     4    3    2 1  
     5    3    4 ar 
     6    3    8 ar 
     7    4    5 ar 
     8    5    6 1  
     9    5   10 ar 
    10    6    7 1  
    11    8    9 ar 
    12    9   10 ar 
    13   11   12 2  
    14   12   14 1  
    15   13   14 1  
    16    4   15 1  
    17    6   16 1  
    18    6   17 1  
    19    7   18 1  
    20    7   19 1  
    21    7   20 1  
    22    9   21 1  
    23   10   22 1  
    24   11   23 1  
    25   12   24 1  
    26   13   25 1  
@<TRIPOS>SUBSTRUCTURE
     1 OQC         1

