### 
### Created by X-TOOL on Mon Sep 10 21:13:30 2018
### 

@<TRIPOS>MOLECULE
5mon_ligand
   13    13     1     0     0
SMALL
GAST_HUCK


@<TRIPOS>ATOM
      1 N1         -2.3590  -14.1710  -17.7730 N.ar      1 2AP        -0.2856
      2 C2         -1.8560  -15.3910  -17.4920 C.ar      1 2AP         0.1085
      3 C3         -1.3270  -15.6040  -16.2040 C.ar      1 2AP        -0.0164
      4 C4         -1.3310  -14.5670  -15.2910 C.ar      1 2AP        -0.0542
      5 C5         -1.8520  -13.3380  -15.6300 C.ar      1 2AP        -0.0480
      6 C6         -2.3700  -13.1650  -16.8800 C.ar      1 2AP        -0.0042
      7 N          -1.8980  -16.3280  -18.4310 N.pl3     1 2AP        -0.3221
      8 H1         -0.9209  -16.5716  -15.9319 H         1 2AP         0.0610
      9 H2         -0.9207  -14.7220  -14.2997 H         1 2AP         0.0699
     10 H3         -1.8505  -12.5224  -14.9160 H         1 2AP         0.0597
     11 H4         -2.7949  -12.2069  -17.1566 H         1 2AP         0.0781
     12 H5         -1.5200  -17.2667  -18.2391 H         1 2AP         0.1766
     13 H6         -2.3086  -16.1165  -19.3516 H         1 2AP         0.1766
@<TRIPOS>BOND
     1    1    2 ar 
     2    1    6 ar 
     3    2    3 ar 
     4    2    7 1  
     5    3    4 ar 
     6    4    5 ar 
     7    5    6 ar 
     8    3    8 1  
     9    4    9 1  
    10    5   10 1  
    11    6   11 1  
    12    7   12 1  
    13    7   13 1  
@<TRIPOS>SUBSTRUCTURE
     1 2AP         1

