### 
### Created by X-TOOL on Mon Sep 10 21:13:30 2018
### 

@<TRIPOS>MOLECULE
5moo_ligand
   14    14     1     0     0
SMALL
GAST_HUCK


@<TRIPOS>ATOM
      1 C1         -1.6310  -15.2520  -17.0480 C.ar      1 WOT         0.0352
      2 C2         -1.0160  -15.5760  -15.8580 C.ar      1 WOT        -0.0447
      3 C3         -1.0080  -14.6460  -14.8340 C.ar      1 WOT        -0.0737
      4 C4         -1.6060  -13.4170  -15.0070 C.ar      1 WOT        -0.0751
      5 C5         -2.2130  -13.1070  -16.2060 C.ar      1 WOT        -0.0737
      6 C6         -2.2290  -14.0250  -17.2400 C.ar      1 WOT        -0.0447
      7 N          -1.6500  -16.2350  -18.1330 N.pl3     1 WOT        -0.3369
      8 H1         -0.5461  -16.5440  -15.7266 H         1 WOT         0.0515
      9 H2         -0.5291  -14.8853  -13.8914 H         1 WOT         0.0583
     10 H3         -1.5994  -12.6931  -14.2002 H         1 WOT         0.0505
     11 H4         -2.6803  -12.1379  -16.3386 H         1 WOT         0.0583
     12 H5         -2.7033  -13.7841  -18.1845 H         1 WOT         0.0515
     13 H6         -1.2066  -17.1554  -18.0019 H         1 WOT         0.1719
     14 H7         -2.1067  -16.0061  -19.0274 H         1 WOT         0.1719
@<TRIPOS>BOND
     1    1    2 ar 
     2    1    6 ar 
     3    1    7 1  
     4    2    3 ar 
     5    3    4 ar 
     6    4    5 ar 
     7    5    6 ar 
     8    2    8 1  
     9    3    9 1  
    10    4   10 1  
    11    5   11 1  
    12    6   12 1  
    13    7   13 1  
    14    7   14 1  
@<TRIPOS>SUBSTRUCTURE
     1 WOT         1

