### 
### Created by X-TOOL on Wed Jan  1 15:39:34 2020
### 

@<TRIPOS>MOLECULE
5moq_ligand
   18    18     1     0     0
SMALL
GAST_HUCK


@<TRIPOS>ATOM
      1 C1         -1.7960  -14.8760  -17.1720 C.ar      1 BAM         0.0260
      2 C2         -1.9510  -13.5070  -17.1350 C.ar      1 BAM        -0.0565
      3 C3         -1.6700  -12.8090  -15.9750 C.ar      1 BAM        -0.0618
      4 C4         -1.2370  -13.4700  -14.8520 C.ar      1 BAM        -0.0618
      5 C5         -1.0420  -14.8110  -14.8940 C.ar      1 BAM        -0.0618
      6 C6         -1.3310  -15.5190  -16.0410 C.ar      1 BAM        -0.0565
      7 C          -2.1350  -15.6410  -18.3830 C.cat     1 BAM         0.2356
      8 N1         -1.7530  -16.8860  -18.4960 N.pl3     1 BAM        -0.2721
      9 N2         -2.8510  -15.1000  -19.3360 N.pl3     1 BAM        -0.2721
     10 H1         -2.2936  -12.9769  -18.0163 H         1 BAM         0.0617
     11 H2         -1.7924  -11.7322  -15.9519 H         1 BAM         0.0618
     12 H3         -1.0518  -12.9217  -13.9354 H         1 BAM         0.0618
     13 H4         -0.6574  -15.3284  -14.0225 H         1 BAM         0.0618
     14 H5         -1.1916  -16.5939  -16.0557 H         1 BAM         0.0617
     15 H6         -1.9896  -17.4224  -19.3429 H         1 BAM         0.3181
     16 H7         -1.2154  -17.3306  -17.7382 H         1 BAM         0.3181
     17 H8         -3.1572  -14.1197  -19.2569 H         1 BAM         0.3181
     18 H9         -3.1082  -15.6546  -20.1650 H         1 BAM         0.3181
@<TRIPOS>BOND
     1    1    2 ar 
     2    1    6 ar 
     3    1    7 1  
     4    2    3 ar 
     5    3    4 ar 
     6    4    5 ar 
     7    5    6 ar 
     8    7    8 ar 
     9    7    9 ar 
    10    2   10 1  
    11    3   11 1  
    12    4   12 1  
    13    5   13 1  
    14    6   14 1  
    15    8   15 1  
    16    8   16 1  
    17    9   17 1  
    18    9   18 1  
@<TRIPOS>SUBSTRUCTURE
     1 BAM         1

