### 
### Created by X-TOOL on Wed Jan  1 15:39:34 2020
### 

@<TRIPOS>MOLECULE
5mos_ligand
   23    23     1     0     0
SMALL
GAST_HUCK


@<TRIPOS>ATOM
      1 C1         -1.5360  -13.5390  -14.6870 C.3       1 D86        -0.0467
      2 C6         -1.3110  -15.0130  -14.8330 C.3       1 D86        -0.0195
      3 C5         -0.7920  -15.3350  -16.1720 C.3       1 D86         0.0648
      4 N4         -1.6400  -14.7980  -17.2440 N.pl3     1 D86        -0.2597
      5 C3         -1.8970  -13.3570  -17.1320 C.3       1 D86         0.0648
      6 C2         -2.4370  -13.0280  -15.7810 C.3       1 D86        -0.0195
      7 C7         -2.0080  -15.5070  -18.3060 C.cat     1 D86         0.2903
      8 N8         -1.6670  -16.7750  -18.4380 N.pl3     1 D86        -0.2848
      9 N9         -2.7380  -14.9780  -19.2630 N.pl3     1 D86        -0.2848
     10 H1         -0.5686  -13.0185  -14.7432 H         1 D86         0.0267
     11 H2         -2.0035  -13.3397  -13.7114 H         1 D86         0.0267
     12 H3         -2.2645  -15.5398  -14.6801 H         1 D86         0.0299
     13 H4         -0.5842  -15.3431  -14.0761 H         1 D86         0.0299
     14 H5         -0.7396  -16.4287  -16.2772 H         1 D86         0.0690
     15 H6          0.2169  -14.9082  -16.2721 H         1 D86         0.0690
     16 H7         -2.6289  -13.0589  -17.8971 H         1 D86         0.0690
     17 H8         -0.9570  -12.8079  -17.2900 H         1 D86         0.0690
     18 H9         -2.5275  -11.9356  -15.6886 H         1 D86         0.0299
     19 H10        -3.4297  -13.4888  -15.6710 H         1 D86         0.0299
     20 H11        -1.9640  -17.3042  -19.2702 H         1 D86         0.2615
     21 H12        -1.1038  -17.2354  -17.7088 H         1 D86         0.2615
     22 H13        -3.0285  -13.9916  -19.2037 H         1 D86         0.2615
     23 H14        -3.0194  -15.5500  -20.0720 H         1 D86         0.2615
@<TRIPOS>BOND
     1    1    2 1  
     2    1    6 1  
     3    2    3 1  
     4    3    4 1  
     5    4    5 1  
     6    4    7 ar 
     7    5    6 1  
     8    7    8 ar 
     9    7    9 ar 
    10    1   10 1  
    11    1   11 1  
    12    2   12 1  
    13    2   13 1  
    14    3   14 1  
    15    3   15 1  
    16    5   16 1  
    17    5   17 1  
    18    6   18 1  
    19    6   19 1  
    20    8   20 1  
    21    8   21 1  
    22    9   22 1  
    23    9   23 1  
@<TRIPOS>SUBSTRUCTURE
     1 D86         1

