### 
### Created by X-TOOL on Wed Jan  1 15:39:36 2020
### 

@<TRIPOS>MOLECULE
5mpk_ligand
   49    52     1     0     0
SMALL
GAST_HUCK


@<TRIPOS>ATOM
      1 CAA        25.1450  -24.8280  -13.6130 C.3       1 0BC        -0.0374
      2 CAB        20.1450  -17.9220  -11.6520 C.3       1 0BC         0.0088
      3 CAE        21.9740  -21.1630  -10.9040 C.ar      1 0BC        -0.0667
      4 CAF        22.7950  -22.0700  -11.5670 C.ar      1 0BC        -0.0389
      5 CAG        21.4090  -20.3400  -22.8300 C.2       1 0BC         0.0778
      6 CAH        20.5070  -20.5670  -20.5120 C.2       1 0BC         0.0253
      7 CAI        22.0830  -20.1920  -18.2360 C.ar      1 0BC        -0.0343
      8 CAJ        24.1170  -19.3660  -17.2760 C.ar      1 0BC        -0.0266
      9 CAK        23.8140  -19.3660  -19.6780 C.ar      1 0BC        -0.0363
     10 CAL        21.9020  -19.7840  -12.8860 C.ar      1 0BC        -0.0305
     11 CAM        24.4820  -23.7550  -12.7460 C.3       1 0BC         0.0659
     12 CAV        20.6910  -19.1200  -10.8710 C.2       1 0BC         0.1183
     13 CAW        22.3070  -20.1990  -15.8210 C.2       1 0BC         0.2299
     14 CAX        21.5100  -20.0200  -11.5610 C.ar      1 0BC         0.0073
     15 CAY        22.8580  -19.9430  -17.1040 C.ar      1 0BC         0.0575
     16 CAZ        22.5490  -19.9230  -19.5170 C.ar      1 0BC        -0.0094
     17 CBA        24.5990  -19.0850  -18.5670 C.ar      1 0BC         0.0431
     18 CBB        21.7930  -20.1860  -20.5940 C.2       1 0BC         0.0341
     19 CBC        22.7400  -20.6870  -13.5580 C.ar      1 0BC         0.1026
     20 CBD        23.1920  -21.8230  -12.8830 C.ar      1 0BC         0.1189
     21 CBE        25.8040  -18.5440  -18.7710 C.2       1 0BC         0.1862
     22 NAN        22.2790  -20.0570  -21.8470 N.2       1 0BC        -0.3027
     23 NAO        27.6590  -17.6460  -18.4440 N.2       1 0BC        -0.0637
     24 NAP        26.6370  -18.1050  -17.8320 N.pl3     1 0BC        -0.1507
     25 NAQ        26.3500  -18.3180  -19.9650 N.2       1 0BC        -0.2071
     26 NAR        23.1780  -20.5010  -14.8310 N.am      1 0BC        -0.2348
     27 NAS        27.4810  -17.7830  -19.7590 N.2       1 0BC        -0.1385
     28 OAC        20.4320  -19.2430   -9.6700 O.2       1 0BC        -0.3843
     29 OAD        21.0850  -20.0670  -15.6410 O.2       1 0BC        -0.3744
     30 OAT        24.0150  -22.6780  -13.5700 O.3       1 0BC        -0.3205
     31 SAU        19.9610  -20.7550  -22.1030 S.3       1 0BC        -0.0010
     32 H1         25.4997  -25.6492  -12.9728 H         1 0BC         0.0255
     33 H2         25.9975  -24.3889  -14.1519 H         1 0BC         0.0255
     34 H3         24.4144  -25.2172  -14.3374 H         1 0BC         0.0255
     35 H4         19.5221  -17.3046  -10.9881 H         1 0BC         0.0447
     36 H5         19.5374  -18.2805  -12.4960 H         1 0BC         0.0447
     37 H6         20.9830  -17.3199  -12.0331 H         1 0BC         0.0447
     38 H7         21.6929  -21.3438   -9.8728 H         1 0BC         0.0520
     39 H8         23.1269  -22.9696  -11.0613 H         1 0BC         0.0512
     40 H9         21.6088  -20.3057  -23.9000 H         1 0BC         0.1181
     41 H10        19.9301  -20.7238  -19.6018 H         1 0BC         0.0802
     42 H11        21.0892  -20.6070  -18.1132 H         1 0BC         0.0676
     43 H12        24.7264  -19.1333  -16.4103 H         1 0BC         0.0689
     44 H13        24.1876  -19.1509  -20.6726 H         1 0BC         0.0672
     45 H14        21.5538  -18.8938  -13.3973 H         1 0BC         0.0517
     46 H15        25.2140  -23.3684  -12.0216 H         1 0BC         0.0608
     47 H16        23.6309  -24.1967  -12.2071 H         1 0BC         0.0608
     48 H17        26.4873  -18.1303  -16.8132 H         1 0BC         0.2708
     49 H18        24.1525  -20.5881  -15.0376 H         1 0BC         0.2219
@<TRIPOS>BOND
     1   11    1 1  
     2   12    2 1  
     3    4    3 ar 
     4    3   14 ar 
     5   20    4 ar 
     6   22    5 2  
     7    5   31 1  
     8   18    6 2  
     9    6   31 1  
    10   15    7 ar 
    11    7   16 ar 
    12   15    8 ar 
    13    8   17 ar 
    14   16    9 ar 
    15   17    9 ar 
    16   10   14 ar 
    17   19   10 ar 
    18   30   11 1  
    19   14   12 1  
    20   12   28 2  
    21   13   15 1  
    22   26   13 am 
    23   13   29 2  
    24   16   18 1  
    25   17   21 1  
    26   18   22 1  
    27   20   19 ar 
    28   19   26 1  
    29   20   30 1  
    30   21   24 1  
    31   21   25 2  
    32   24   23 1  
    33   23   27 2  
    34   25   27 1  
    35    1   32 1  
    36    1   33 1  
    37    1   34 1  
    38    2   35 1  
    39    2   36 1  
    40    2   37 1  
    41    3   38 1  
    42    4   39 1  
    43    5   40 1  
    44    6   41 1  
    45    7   42 1  
    46    8   43 1  
    47    9   44 1  
    48   10   45 1  
    49   11   46 1  
    50   11   47 1  
    51   24   48 1  
    52   26   49 1  
@<TRIPOS>SUBSTRUCTURE
     1 0BC         1

