### 
### Created by X-TOOL on Wed Jan  1 15:39:35 2020
### 

@<TRIPOS>MOLECULE
5mpn_ligand
   39    41     1     0     0
SMALL
GAST_HUCK


@<TRIPOS>ATOM
      1 CAA       -15.7340  -14.7960   -2.4620 C.3       1 YE5        -0.0368
      2 CAB        -9.3790  -12.0150    2.8870 C.3       1 YE5         0.0091
      3 CAD       -11.3270  -17.9100    1.0940 C.ar      1 YE5        -0.0583
      4 CAE       -11.2070  -16.5780    0.7040 C.ar      1 YE5        -0.0531
      5 CAF       -12.5370  -18.3700    1.6020 C.ar      1 YE5        -0.0456
      6 CAG       -11.6320  -11.6040   -0.1540 C.ar      1 YE5        -0.0510
      7 CAH       -12.5940  -12.3320   -0.8550 C.ar      1 YE5        -0.0248
      8 CAI       -13.5030  -16.1910    1.3320 C.ar      1 YE5        -0.0389
      9 CAJ       -11.1470  -13.5610    1.1420 C.ar      1 YE5        -0.0424
     10 CAK       -14.6720  -13.7770   -2.0440 C.3       1 YE5         0.0698
     11 CAQ        -9.9610  -11.4380    1.5950 C.2       1 YE5         0.1221
     12 CAR       -10.8940  -12.2080    0.8650 C.ar      1 YE5         0.0222
     13 CAS       -12.2890  -15.6930    0.8170 C.ar      1 YE5        -0.0153
     14 CAT       -13.6480  -17.5350    1.7290 C.ar      1 YE5         0.0391
     15 CAU       -12.8270  -13.6760   -0.5390 C.ar      1 YE5         0.1075
     16 CAV       -12.1050  -14.3270    0.4580 C.ar      1 YE5         0.0202
     17 CAW       -14.7920  -18.0480    2.2700 C.2       1 YE5         0.1854
     18 NAL       -16.6960  -18.2500    3.2230 N.2       1 YE5        -0.0637
     19 NAM       -15.8280  -17.3650    2.7590 N.pl3     1 YE5        -0.1508
     20 NAN       -15.0610  -19.3360    2.4830 N.2       1 YE5        -0.2072
     21 NAO       -16.2210  -19.4170    3.0520 N.2       1 YE5        -0.1384
     22 OAC        -9.7280  -10.2540    1.3280 O.2       1 YE5        -0.3840
     23 OAP       -13.7490  -14.4460   -1.1760 O.3       1 YE5        -0.3119
     24 H1        -16.4614  -14.3137   -3.1315 H         1 YE5         0.0256
     25 H2        -16.2523  -15.1731   -1.5681 H         1 YE5         0.0256
     26 H3        -15.2518  -15.6337   -2.9870 H         1 YE5         0.0256
     27 H4         -8.6749  -11.2931    3.3264 H         1 YE5         0.0448
     28 H5         -8.8503  -12.9535    2.6640 H         1 YE5         0.0448
     29 H6        -10.1932  -12.2132    3.5995 H         1 YE5         0.0448
     30 H7        -10.4826  -18.5835    1.0021 H         1 YE5         0.0623
     31 H8        -10.2636  -16.2204    0.3074 H         1 YE5         0.0637
     32 H9        -12.6196  -19.4066    1.9081 H         1 YE5         0.0648
     33 H10       -11.4568  -10.5634   -0.4022 H         1 YE5         0.0647
     34 H11       -13.1622  -11.8560   -1.6460 H         1 YE5         0.0558
     35 H12       -14.3496  -15.5204    1.4253 H         1 YE5         0.0652
     36 H13       -10.5719  -14.0402    1.9261 H         1 YE5         0.0652
     37 H14       -15.1454  -12.9379   -1.5132 H         1 YE5         0.0616
     38 H15       -14.1449  -13.3985   -2.9322 H         1 YE5         0.0616
     39 H16       -15.9330  -16.3405    2.7730 H         1 YE5         0.2707
@<TRIPOS>BOND
     1   10    1 1  
     2   11    2 1  
     3    4    3 ar 
     4    3    5 ar 
     5   13    4 ar 
     6   14    5 ar 
     7    7    6 ar 
     8    6   12 ar 
     9   15    7 ar 
    10   13    8 ar 
    11    8   14 ar 
    12    9   12 ar 
    13   16    9 ar 
    14   23   10 1  
    15   12   11 1  
    16   11   22 2  
    17   16   13 1  
    18   14   17 1  
    19   15   16 ar 
    20   15   23 1  
    21   17   19 1  
    22   17   20 2  
    23   19   18 1  
    24   18   21 2  
    25   20   21 1  
    26    1   24 1  
    27    1   25 1  
    28    1   26 1  
    29    2   27 1  
    30    2   28 1  
    31    2   29 1  
    32    3   30 1  
    33    4   31 1  
    34    5   32 1  
    35    6   33 1  
    36    7   34 1  
    37    8   35 1  
    38    9   36 1  
    39   10   37 1  
    40   10   38 1  
    41   19   39 1  
@<TRIPOS>SUBSTRUCTURE
     1 YE5         1

