### 
### Created by X-TOOL on Mon Sep 10 21:13:31 2018
### 

@<TRIPOS>MOLECULE
5mpz_ligand
   21    22     1     0     0
SMALL
GAST_HUCK


@<TRIPOS>ATOM
      1 CAA         1.0390   20.4310   71.8020 C.3       1 4I8         0.0644
      2 CAD         2.2090   22.5330   74.9800 C.ar      1 4I8        -0.0637
      3 CAE         2.6550   23.3650   75.9910 C.ar      1 4I8        -0.0406
      4 CAF         0.0210   22.6490   75.9280 C.ar      1 4I8        -0.0195
      5 CAJ         0.4560   21.3370   73.8950 C.2       1 4I8         0.2490
      6 CAK         0.8750   22.1620   74.9420 C.ar      1 4I8         0.0387
      7 CAL         0.8740   24.7550   78.5780 C.2       1 4I8         0.3690
      8 CAM         1.8070   23.8030   76.9130 C.ar      1 4I8         0.1108
      9 CAN         0.5110   23.4530   76.8800 C.ar      1 4I8         0.1527
     10 NAG         2.0310   24.6070   77.9570 N.am      1 4I8        -0.2039
     11 OAB        -0.7070   20.9420   73.7660 O.2       1 4I8        -0.3646
     12 OAC         0.7110   25.4330   79.5900 O.2       1 4I8        -0.3719
     13 OAH         1.4450   21.1290   72.9780 O.3       1 4I8        -0.2832
     14 OAI        -0.0960   24.0480   77.9310 O.3       1 4I8        -0.1999
     15 H1          1.9013   20.3136   71.1292 H         1 4I8         0.0575
     16 H2          0.2501   21.0020   71.2906 H         1 4I8         0.0575
     17 H3          0.6526   19.4391   72.0793 H         1 4I8         0.0575
     18 H4          2.8977   22.1743   74.2237 H         1 4I8         0.0551
     19 H5          3.6975   23.6593   76.0302 H         1 4I8         0.0491
     20 H6         -1.0291   22.3802   75.9249 H         1 4I8         0.0562
     21 H7          2.9050   25.0171   78.2177 H         1 4I8         0.2299
@<TRIPOS>BOND
     1   13    1 1  
     2    3    2 ar 
     3    2    6 ar 
     4    8    3 ar 
     5    4    6 ar 
     6    9    4 ar 
     7    6    5 1  
     8    5   11 2  
     9    5   13 1  
    10   10    7 am 
    11    7   12 2  
    12    7   14 1  
    13    8    9 ar 
    14    8   10 1  
    15    9   14 1  
    16    1   15 1  
    17    1   16 1  
    18    1   17 1  
    19    2   18 1  
    20    3   19 1  
    21    4   20 1  
    22   10   21 1  
@<TRIPOS>SUBSTRUCTURE
     1 4I8         1

