### 
### Created by X-TOOL on Mon Sep 10 21:13:32 2018
### 

@<TRIPOS>MOLECULE
5mqe_ligand
   17    17     1     0     0
SMALL
GAST_HUCK


@<TRIPOS>ATOM
      1 CAA       -20.4620  -25.0520  -12.3550 C.3       1 PKU         0.0186
      2 CAD       -18.4520  -29.9460  -14.7610 C.2       1 PKU         0.0339
      3 CAE       -17.8070  -27.8860  -14.3260 C.2       1 PKU        -0.0530
      4 CAH       -20.0130  -27.0720  -13.5730 C.2       1 PKU         0.2163
      5 CAI       -17.4190  -29.1050  -14.7640 C.2       1 PKU        -0.0001
      6 CAJ       -19.1310  -27.9950  -14.0630 C.2       1 PKU         0.1253
      7 NAF       -19.5010  -26.0050  -12.9380 N.am      1 PKU        -0.2904
      8 NAG       -19.5070  -29.2610  -14.3040 N.pl3     1 PKU        -0.2753
      9 OAB       -21.2260  -27.2540  -13.6670 O.2       1 PKU        -0.3920
     10 BR        -15.6230  -29.6620  -15.3420 Br        1 PKU        -0.0816
     11 H1        -19.9149  -24.2312  -11.8682 H         1 PKU         0.0482
     12 H2        -21.0856  -25.5690  -11.6108 H         1 PKU         0.0482
     13 H3        -21.1028  -24.6443  -13.1507 H         1 PKU         0.0482
     14 H4        -18.4403  -30.9900  -15.0708 H         1 PKU         0.0934
     15 H5        -17.1841  -27.0004  -14.2090 H         1 PKU         0.0391
     16 H6        -18.5138  -25.8638  -12.8643 H         1 PKU         0.1833
     17 H7        -20.4528  -29.6427  -14.1606 H         1 PKU         0.2378
@<TRIPOS>BOND
     1    7    1 1  
     2    5    2 2  
     3    2    8 1  
     4    3    5 1  
     5    6    3 2  
     6    4    6 1  
     7    4    7 am 
     8    4    9 2  
     9    5   10 1  
    10    6    8 1  
    11    1   11 1  
    12    1   12 1  
    13    1   13 1  
    14    2   14 1  
    15    3   15 1  
    16    7   16 1  
    17    8   17 1  
@<TRIPOS>SUBSTRUCTURE
     1 PKU         1

