### 
### Created by X-TOOL on Mon Sep 10 21:13:34 2018
### 

@<TRIPOS>MOLECULE
5mql_ligand
   68    72     1     0     0
SMALL
GAST_HUCK


@<TRIPOS>ATOM
      1 CBE        37.9010   90.2680    6.4840 C.3       1 G65         0.0110
      2 CBF        39.4060   90.3760    6.7460 C.3       1 G65         0.0092
      3 NBG        40.2420   90.1540    5.5380 N.4       1 G65         0.2405
      4 CBJ        41.6080   89.8650    5.9840 C.3       1 G65        -0.0427
      5 CBH        39.8470   89.0170    4.6870 C.3       1 G65         0.0092
      6 CBI        38.3480   89.0140    4.4360 C.3       1 G65         0.0110
      7 NBD        37.5990   89.0460    5.7090 N.4       1 G65         0.2553
      8 CBC        36.1570   88.9580    5.3990 C.3       1 G65         0.0045
      9 CAZ        35.5440   87.8730    6.0270 C.ar      1 G65         0.0061
     10 CBA        34.7600   88.1050    7.1640 C.ar      1 G65        -0.0494
     11 CBB        34.1460   87.0360    7.8100 C.ar      1 G65        -0.0479
     12 CAY        35.7050   86.5750    5.5160 C.ar      1 G65        -0.0494
     13 CAX        35.1030   85.4970    6.1690 C.ar      1 G65        -0.0479
     14 CAV        34.3260   85.7380    7.3130 C.ar      1 G65         0.0485
     15 CAU        33.7250   84.6720    7.9690 C.2       1 G65         0.2255
     16 OAW        32.9190   83.9490    7.3780 O.2       1 G65        -0.3771
     17 NAT        34.1160   84.5310    9.2590 N.am      1 G65        -0.2404
     18 CAO        33.6390   83.5320   10.0110 C.ar      1 G65         0.0495
     19 CAN        34.0140   82.2050    9.7560 C.ar      1 G65        -0.0241
     20 CAP        32.8320   83.8190   11.1090 C.ar      1 G65        -0.0588
     21 CAQ        32.3680   82.7650   11.8940 C.ar      1 G65        -0.0821
     22 CAR        32.7230   81.4370   11.6450 C.ar      1 G65        -0.0356
     23 CAS        32.1980   80.4980   12.5200 C.3       1 G65        -0.0401
     24 CAM        33.5000   81.1430   10.5000 C.ar      1 G65         0.0569
     25 NAL        33.9740   79.9030   10.2380 N.pl3     1 G65        -0.2428
     26 CAJ        33.2250   78.8500    9.8700 C.2       1 G65         0.1996
     27 NAK        33.6980   77.5920    9.8900 N.2       1 G65        -0.3077
     28 SAI        31.5970   78.8040    9.4040 S.3       1 G65         0.0234
     29 CAH        31.5590   77.1090    9.2560 C.2       1 G65         0.0142
     30 CAG        32.7910   76.6310    9.5560 C.2       1 G65         0.0141
     31 CAF        33.1070   75.3120    9.5410 C.ar      1 G65         0.0019
     32 CAA        32.1290   74.3100    9.6530 C.ar      1 G65        -0.0398
     33 CAB        32.4850   72.9560    9.6490 C.ar      1 G65        -0.0376
     34 CAC        33.8200   72.5590    9.5480 C.ar      1 G65         0.0074
     35 NAD        34.8160   73.5390    9.4360 N.ar      1 G65        -0.3004
     36 CAE        34.4430   74.9020    9.4430 C.ar      1 G65         0.0139
     37 H1         37.5679   91.1490    5.9158 H         1 G65         0.0868
     38 H2         37.3677   90.2285    7.4453 H         1 G65         0.0868
     39 H3         39.6814   89.6251    7.5012 H         1 G65         0.0868
     40 H4         39.6190   91.3826    7.1350 H         1 G65         0.0868
     41 H5         40.2256   90.9948    4.9822 H         1 G65         0.2035
     42 H6         42.2516   89.6957    5.1081 H         1 G65         0.0778
     43 H7         41.6047   88.9647    6.6160 H         1 G65         0.0778
     44 H8         41.9930   90.7177    6.5625 H         1 G65         0.0778
     45 H9         40.1289   88.0790    5.1876 H         1 G65         0.0868
     46 H10        40.3721   89.0905    3.7232 H         1 G65         0.0868
     47 H11        38.0776   88.1029    3.8822 H         1 G65         0.0868
     48 H12        38.0812   89.8986    3.8392 H         1 G65         0.0868
     49 H13        37.8639   88.2465    6.2628 H         1 G65         0.2053
     50 H14        36.0352   88.8515    4.3110 H         1 G65         0.0991
     51 H15        35.6663   89.8837    5.7341 H         1 G65         0.0991
     52 H16        34.6318   89.1137    7.5397 H         1 G65         0.0572
     53 H17        33.5346   87.2057    8.6889 H         1 G65         0.0652
     54 H18        36.2929   86.4106    4.6202 H         1 G65         0.0572
     55 H19        35.2341   84.4872    5.7972 H         1 G65         0.0652
     56 H20        34.7672   85.1797    9.6527 H         1 G65         0.2227
     57 H21        34.7212   81.9994    8.9606 H         1 G65         0.0399
     58 H22        32.5696   84.8431   11.3487 H         1 G65         0.0394
     59 H23        31.7089   82.9832   12.7265 H         1 G65         0.0490
     60 H24        31.6392   81.0112   13.3165 H         1 G65         0.0342
     61 H25        33.0166   79.9132   12.9648 H         1 G65         0.0342
     62 H26        31.5216   79.8248   11.9729 H         1 G65         0.0342
     63 H27        34.9893   79.7546   10.3278 H         1 G65         0.2192
     64 H28        30.6944   76.5120    8.9698 H         1 G65         0.0700
     65 H29        31.0854   74.5886    9.7437 H         1 G65         0.0710
     66 H30        31.7101   72.2019    9.7257 H         1 G65         0.0699
     67 H31        34.0825   71.5073    9.5561 H         1 G65         0.0791
     68 H32        35.2177   75.6567    9.3700 H         1 G65         0.0802
@<TRIPOS>BOND
     1    1    2 1  
     2    1    7 1  
     3    2    3 1  
     4    3    4 1  
     5    3    5 1  
     6    5    6 1  
     7    6    7 1  
     8    7    8 1  
     9    8    9 1  
    10    9   10 ar 
    11    9   12 ar 
    12   10   11 ar 
    13   11   14 ar 
    14   12   13 ar 
    15   13   14 ar 
    16   14   15 1  
    17   15   16 2  
    18   15   17 am 
    19   17   18 1  
    20   18   19 ar 
    21   18   20 ar 
    22   19   24 ar 
    23   20   21 ar 
    24   21   22 ar 
    25   22   23 1  
    26   22   24 ar 
    27   24   25 1  
    28   25   26 1  
    29   26   27 2  
    30   26   28 1  
    31   27   30 1  
    32   28   29 1  
    33   29   30 2  
    34   30   31 1  
    35   31   32 ar 
    36   31   36 ar 
    37   32   33 ar 
    38   33   34 ar 
    39   34   35 ar 
    40   35   36 ar 
    41    1   37 1  
    42    1   38 1  
    43    2   39 1  
    44    2   40 1  
    45    3   41 1  
    46    4   42 1  
    47    4   43 1  
    48    4   44 1  
    49    5   45 1  
    50    5   46 1  
    51    6   47 1  
    52    6   48 1  
    53    7   49 1  
    54    8   50 1  
    55    8   51 1  
    56   10   52 1  
    57   11   53 1  
    58   12   54 1  
    59   13   55 1  
    60   17   56 1  
    61   19   57 1  
    62   20   58 1  
    63   21   59 1  
    64   23   60 1  
    65   23   61 1  
    66   23   62 1  
    67   25   63 1  
    68   29   64 1  
    69   32   65 1  
    70   33   66 1  
    71   34   67 1  
    72   36   68 1  
@<TRIPOS>SUBSTRUCTURE
     1 G65         1

