### 
### Created by X-TOOL on Mon Sep 10 21:13:32 2018
### 

@<TRIPOS>MOLECULE
5mqt_ligand
   70    74     1     0     0
SMALL
GAST_HUCK


@<TRIPOS>ATOM
      1 C1        -11.4830  123.7180   28.1080 C.ar      1 STI        -0.0301
      2 C6        -10.4630  124.5100   27.6230 C.ar      1 STI        -0.0291
      3 C5         -9.3390  123.9220   27.0630 C.ar      1 STI         0.0316
      4 C4         -9.3190  122.5360   27.0090 C.ar      1 STI         0.0248
      5 N3        -10.2970  121.7520   27.4690 N.ar      1 STI        -0.2920
      6 C2        -11.3560  122.3540   28.0120 C.ar      1 STI         0.0142
      7 C7         -8.1880  124.7290   26.5910 C.ar      1 STI         0.0621
      8 C12        -6.9810  124.1510   26.2430 C.ar      1 STI        -0.0153
      9 C11        -5.9750  125.0010   25.8450 C.ar      1 STI         0.0146
     10 N10        -6.1180  126.3270   25.7890 N.ar      1 STI        -0.2516
     11 C9         -7.3210  126.7890   26.1510 C.ar      1 STI         0.2094
     12 N8         -8.3730  126.0590   26.5460 N.ar      1 STI        -0.2455
     13 N13        -7.4300  128.1430   26.1060 N.pl3     1 STI        -0.2475
     14 C14        -8.4870  128.9940   26.4070 C.ar      1 STI         0.0547
     15 C19        -9.0450  128.9220   27.6810 C.ar      1 STI        -0.0359
     16 C18       -10.0310  129.8440   28.0050 C.ar      1 STI        -0.0821
     17 C17       -10.4630  130.7990   27.1090 C.ar      1 STI        -0.0588
     18 C16        -9.9150  130.8530   25.8430 C.ar      1 STI         0.0494
     19 C15        -8.9250  129.9470   25.4920 C.ar      1 STI        -0.0244
     20 N21       -10.3620  131.8230   24.9200 N.am      1 STI        -0.2404
     21 C22       -11.2410  132.8230   25.1480 C.2       1 STI         0.2255
     22 C23       -11.4550  133.7670   24.0130 C.ar      1 STI         0.0485
     23 C25       -10.7810  133.5630   22.8210 C.ar      1 STI        -0.0479
     24 C26       -10.9690  134.4160   21.7500 C.ar      1 STI        -0.0494
     25 C27       -11.8310  135.4940   21.8380 C.ar      1 STI         0.0061
     26 C28       -12.4900  135.7080   23.0360 C.ar      1 STI        -0.0494
     27 C29       -12.3110  134.8550   24.1100 C.ar      1 STI        -0.0479
     28 C46       -12.0840  136.3730   20.6370 C.3       1 STI         0.0045
     29 N48       -11.6900  137.7760   20.8170 N.4       1 STI         0.2553
     30 C53       -10.7640  138.2060   19.7790 C.3       1 STI         0.0110
     31 C52       -10.4480  139.6710   19.9330 C.3       1 STI         0.0092
     32 N51        -9.8460  139.9390   21.2340 N.4       1 STI         0.2405
     33 C54        -9.5730  141.3590   21.3880 C.3       1 STI        -0.0427
     34 C50       -10.7370  139.4690   22.2900 C.3       1 STI         0.0092
     35 C49       -11.0620  138.0030   22.1120 C.3       1 STI         0.0110
     36 O29       -11.8390  132.9640   26.2090 O.2       1 STI        -0.3771
     37 C20        -8.6130  127.8790   28.6740 C.3       1 STI        -0.0402
     38 H1        -12.3650  124.1624   28.5549 H         1 STI         0.0718
     39 H2        -10.5400  125.5898   27.6795 H         1 STI         0.0773
     40 H3         -8.4533  122.0585   26.5645 H         1 STI         0.0864
     41 H4        -12.1578  121.7347   28.3974 H         1 STI         0.0847
     42 H5         -6.8342  123.0777   26.2820 H         1 STI         0.0677
     43 H6         -5.0197  124.5731   25.5632 H         1 STI         0.0893
     44 H7         -6.5756  128.6253   25.7924 H         1 STI         0.2158
     45 H8        -10.4752  129.8122   28.9933 H         1 STI         0.0490
     46 H9        -11.2318  131.5063   27.3983 H         1 STI         0.0394
     47 H10        -8.4901  129.9814   24.4997 H         1 STI         0.0399
     48 H11        -9.9864  131.7632   23.9951 H         1 STI         0.2227
     49 H12       -10.0989  132.7258   22.7268 H         1 STI         0.0652
     50 H13       -10.4319  134.2372   20.8256 H         1 STI         0.0572
     51 H14       -13.1567  136.5571   23.1342 H         1 STI         0.0572
     52 H15       -12.8442  135.0380   25.0359 H         1 STI         0.0652
     53 H16       -13.1601  136.3445   20.4106 H         1 STI         0.0991
     54 H17       -11.5193  135.9638   19.7863 H         1 STI         0.0991
     55 H18       -12.5224  138.3417   20.7608 H         1 STI         0.2053
     56 H19       -11.2200  138.0351   18.7927 H         1 STI         0.0868
     57 H20        -9.8340  137.6241   19.8588 H         1 STI         0.0868
     58 H21       -11.3775  140.2518   19.8397 H         1 STI         0.0868
     59 H22        -9.7458  139.9732   19.1421 H         1 STI         0.0868
     60 H23        -8.9746  139.4363   21.2978 H         1 STI         0.2035
     61 H24        -9.1200  141.5405   22.3738 H         1 STI         0.0778
     62 H25       -10.5133  141.9241   21.3070 H         1 STI         0.0778
     63 H26        -8.8792  141.6866   20.5998 H         1 STI         0.0778
     64 H27       -11.6701  140.0507   22.2588 H         1 STI         0.0868
     65 H28       -10.2474  139.6132   23.2644 H         1 STI         0.0868
     66 H29       -10.1337  137.4160   22.1726 H         1 STI         0.0868
     67 H30       -11.7498  137.6848   22.9092 H         1 STI         0.0868
     68 H31        -7.8279  127.2509   28.2278 H         1 STI         0.0342
     69 H32        -9.4748  127.2514   28.9450 H         1 STI         0.0342
     70 H33        -8.2201  128.3716   29.5757 H         1 STI         0.0342
@<TRIPOS>BOND
     1    1    2 ar 
     2    1    6 ar 
     3    2    3 ar 
     4    3    4 ar 
     5    3    7 1  
     6    4    5 ar 
     7    5    6 ar 
     8    7    8 ar 
     9    7   12 ar 
    10    8    9 ar 
    11    9   10 ar 
    12   10   11 ar 
    13   11   12 ar 
    14   11   13 1  
    15   13   14 1  
    16   14   15 ar 
    17   14   19 ar 
    18   15   16 ar 
    19   15   37 1  
    20   16   17 ar 
    21   17   18 ar 
    22   18   19 ar 
    23   18   20 1  
    24   20   21 am 
    25   21   22 1  
    26   21   36 2  
    27   22   23 ar 
    28   22   27 ar 
    29   23   24 ar 
    30   24   25 ar 
    31   25   26 ar 
    32   25   28 1  
    33   26   27 ar 
    34   28   29 1  
    35   29   30 1  
    36   29   35 1  
    37   30   31 1  
    38   31   32 1  
    39   32   33 1  
    40   32   34 1  
    41   34   35 1  
    42    1   38 1  
    43    2   39 1  
    44    4   40 1  
    45    6   41 1  
    46    8   42 1  
    47    9   43 1  
    48   13   44 1  
    49   16   45 1  
    50   17   46 1  
    51   19   47 1  
    52   20   48 1  
    53   23   49 1  
    54   24   50 1  
    55   26   51 1  
    56   27   52 1  
    57   28   53 1  
    58   28   54 1  
    59   29   55 1  
    60   30   56 1  
    61   30   57 1  
    62   31   58 1  
    63   31   59 1  
    64   32   60 1  
    65   33   61 1  
    66   33   62 1  
    67   33   63 1  
    68   34   64 1  
    69   34   65 1  
    70   35   66 1  
    71   35   67 1  
    72   37   68 1  
    73   37   69 1  
    74   37   70 1  
@<TRIPOS>SUBSTRUCTURE
     1 STI         1

