### 
### Created by X-TOOL on Mon Sep 10 21:13:31 2018
### 

@<TRIPOS>MOLECULE
5mqv_ligand
   65    69     1     0     0
SMALL
GAST_HUCK


@<TRIPOS>ATOM
      1 C01        36.0220    3.5890   32.5680 C.3       1 D5Q         0.0568
      2 O02        35.2820    3.8910   33.7210 O.3       1 D5Q        -0.3295
      3 C03        34.6300    5.1310   33.7060 C.ar      1 D5Q         0.0749
      4 C04        33.2490    5.2070   33.7800 C.ar      1 D5Q        -0.0456
      5 C05        32.6170    6.4460   33.7680 C.ar      1 D5Q        -0.0446
      6 C06        33.3560    7.6140   33.6850 C.ar      1 D5Q         0.0821
      7 O07        32.7510    8.8830   33.6560 O.3       1 D5Q        -0.3290
      8 C08        31.4550    9.0610   34.1610 C.3       1 D5Q         0.0568
      9 C09        34.7370    7.5240   33.5980 C.ar      1 D5Q        -0.0161
     10 C10        35.3720    6.2960   33.6240 C.ar      1 D5Q        -0.0412
     11 C11        35.6150    8.7740   33.5180 C.2       1 D5Q        -0.0305
     12 C12        35.6610    9.7330   32.5260 C.2       1 D5Q         0.0351
     13 N13        36.5920   10.6350   32.8890 N.pl3     1 D5Q        -0.2643
     14 C14        36.9470   11.8100   32.1150 C.3       1 D5Q         0.0443
     15 C15        37.1430   10.2740   34.0630 C.2       1 D5Q         0.1348
     16 C16        36.5350    9.1110   34.4660 C.2       1 D5Q        -0.0520
     17 C17        38.2340   10.9770   34.8850 C.2       1 D5Q         0.2485
     18 O18        38.3610   12.1520   34.8350 O.2       1 D5Q        -0.3780
     19 N19        39.0810   10.1380   35.7340 N.am      1 D5Q        -0.2201
     20 C20        40.1430   10.6790   36.5870 C.ar      1 D5Q         0.1308
     21 C21        40.0240   11.9570   37.1250 C.ar      1 D5Q        -0.0119
     22 C22        41.0430   12.4500   37.9400 C.ar      1 D5Q         0.0024
     23 C23        42.1230   11.6170   38.2040 C.ar      1 D5Q        -0.0474
     24 C24        42.1750   10.3450   37.6430 C.ar      1 D5Q        -0.0131
     25 N25        41.1850    9.9250   36.8650 N.ar      1 D5Q        -0.2933
     26 C26        40.9090   13.8570   38.5390 C.2       1 D5Q         0.0895
     27 C27        41.8750   14.7640   38.8930 C.2       1 D5Q         0.0295
     28 N28        41.2680   15.8280   39.3720 N.2       1 D5Q        -0.3062
     29 C29        39.9480   15.6110   39.3330 C.2       1 D5Q         0.1848
     30 N30        39.7410   14.3920   38.8160 N.pl3     1 D5Q        -0.2400
     31 S31        38.6510   16.7620   39.8760 S.3       1 D5Q        -0.0446
     32 C32        37.3570   16.8080   38.6020 C.3       1 D5Q         0.0034
     33 C33        43.3940   14.6620   38.7820 C.ar      1 D5Q        -0.0268
     34 C34        44.1680   14.9780   39.8850 C.ar      1 D5Q        -0.0600
     35 C35        45.5510   14.9080   39.8060 C.ar      1 D5Q        -0.0306
     36 C36        46.1580   14.5290   38.6200 C.ar      1 D5Q         0.1299
     37 F37        47.5200   14.4590   38.5460 F         1 D5Q        -0.1852
     38 C38        45.3850   14.2220   37.5140 C.ar      1 D5Q        -0.0306
     39 C39        43.9990   14.2920   37.5920 C.ar      1 D5Q        -0.0600
     40 H1         36.4907    2.6004   32.6817 H         1 D5Q         0.0573
     41 H2         36.8026    4.3504   32.4234 H         1 D5Q         0.0573
     42 H3         35.3529    3.5793   31.6949 H         1 D5Q         0.0573
     43 H4         32.6599    4.2996   33.8474 H         1 D5Q         0.0483
     44 H5         31.5357    6.4977   33.8242 H         1 D5Q         0.0503
     45 H6         31.1597   10.1148   34.0499 H         1 D5Q         0.0573
     46 H7         31.4352    8.7850   35.2256 H         1 D5Q         0.0573
     47 H8         30.7534    8.4229   33.6036 H         1 D5Q         0.0573
     48 H9         36.4540    6.2459   33.5800 H         1 D5Q         0.0469
     49 H10        35.0574    9.7556   31.6199 H         1 D5Q         0.0912
     50 H11        36.3329   11.8476   31.2031 H         1 D5Q         0.0587
     51 H12        38.0106   11.7597   31.8390 H         1 D5Q         0.0587
     52 H13        36.7665   12.7134   32.7161 H         1 D5Q         0.0587
     53 H14        36.7491    8.5572   35.3789 H         1 D5Q         0.0381
     54 H15        38.9280    9.1498   35.7320 H         1 D5Q         0.2295
     55 H16        39.1499   12.5621   36.9132 H         1 D5Q         0.0552
     56 H17        42.9257   11.9584   38.8476 H         1 D5Q         0.0551
     57 H18        43.0222    9.6983   37.8408 H         1 D5Q         0.0753
     58 H19        38.8235   13.9500   38.6621 H         1 D5Q         0.2384
     59 H20        36.5610   17.5007   38.9127 H         1 D5Q         0.0373
     60 H21        36.9356   15.8004   38.4708 H         1 D5Q         0.0373
     61 H22        37.7907   17.1508   37.6510 H         1 D5Q         0.0373
     62 H23        43.6930   15.2804   40.8113 H         1 D5Q         0.0586
     63 H24        46.1565   15.1498   40.6720 H         1 D5Q         0.0598
     64 H25        45.8609   13.9266   36.5859 H         1 D5Q         0.0598
     65 H26        43.3932   14.0577   36.7241 H         1 D5Q         0.0586
@<TRIPOS>BOND
     1    1    2 1  
     2    2    3 1  
     3    3    4 ar 
     4    3   10 ar 
     5    4    5 ar 
     6    5    6 ar 
     7    6    7 1  
     8    6    9 ar 
     9    7    8 1  
    10    9   10 ar 
    11    9   11 1  
    12   11   12 2  
    13   11   16 1  
    14   12   13 1  
    15   13   14 1  
    16   13   15 1  
    17   15   16 2  
    18   15   17 1  
    19   17   18 2  
    20   17   19 am 
    21   19   20 1  
    22   20   21 ar 
    23   20   25 ar 
    24   21   22 ar 
    25   22   23 ar 
    26   22   26 1  
    27   23   24 ar 
    28   24   25 ar 
    29   26   27 2  
    30   26   30 1  
    31   27   28 1  
    32   27   33 1  
    33   28   29 2  
    34   29   30 1  
    35   29   31 1  
    36   31   32 1  
    37   33   34 ar 
    38   33   39 ar 
    39   34   35 ar 
    40   35   36 ar 
    41   36   37 1  
    42   36   38 ar 
    43   38   39 ar 
    44    1   40 1  
    45    1   41 1  
    46    1   42 1  
    47    4   43 1  
    48    5   44 1  
    49    8   45 1  
    50    8   46 1  
    51    8   47 1  
    52   10   48 1  
    53   12   49 1  
    54   14   50 1  
    55   14   51 1  
    56   14   52 1  
    57   16   53 1  
    58   19   54 1  
    59   21   55 1  
    60   23   56 1  
    61   24   57 1  
    62   30   58 1  
    63   32   59 1  
    64   32   60 1  
    65   32   61 1  
    66   34   62 1  
    67   35   63 1  
    68   38   64 1  
    69   39   65 1  
@<TRIPOS>SUBSTRUCTURE
     1 D5Q         1

