### 
### Created by X-TOOL on Mon Sep 10 21:13:32 2018
### 

@<TRIPOS>MOLECULE
5mra_ligand
   69    73     1     0     0
SMALL
GAST_HUCK


@<TRIPOS>ATOM
      1 C1        -18.2970  -31.7060   17.8250 C.ar      1 DM2        -0.0496
      2 C2        -17.2610  -31.3010   18.6470 C.ar      1 DM2        -0.0604
      3 C3        -15.9270  -31.4100   18.2420 C.ar      1 DM2        -0.0224
      4 C4        -15.5540  -31.9220   17.0140 C.ar      1 DM2         0.1154
      5 O4        -14.2280  -32.0070   16.6930 O.3       1 DM2        -0.3146
      6 C5        -16.6130  -32.3690   16.0890 C.ar      1 DM2         0.0759
      7 C6        -16.2920  -32.9310   14.7470 C.2       1 DM2         0.1471
      8 O6        -15.1150  -33.0490   14.3510 O.2       1 DM2        -0.3797
      9 C7        -17.4010  -33.3670   13.8630 C.ar      1 DM2         0.0568
     10 C8        -17.1030  -33.9330   12.5110 C.ar      1 DM2         0.1006
     11 O8        -15.8130  -34.0560   12.0850 O.3       1 DM2        -0.3380
     12 C9        -18.2380  -34.3670   11.6430 C.ar      1 DM2         0.0212
     13 C10       -18.0730  -34.9650   10.2940 C.3       1 DM2         0.0945
     14 O10       -18.3850  -36.3770   10.3570 O.3       1 DM2        -0.3376
     15 C11       -19.0470  -34.2940    9.3090 C.3       1 DM2         0.0174
     16 C12       -20.4830  -34.0030    9.8300 C.3       1 DM2         0.1420
     17 O12       -21.4150  -34.6170    8.9360 O.3       1 DM2        -0.3840
     18 C13       -20.7780  -32.4980    9.8150 C.2       1 DM2         0.1854
     19 O13       -20.5680  -31.8810    8.7800 O.2       1 DM2        -0.3270
     20 C14       -21.3370  -31.6780   10.9740 C.3       1 DM2         0.1214
     21 O14       -20.2860  -31.0910   11.7540 O.3       1 DM2        -0.3762
     22 C15       -20.7420  -34.6750   11.1900 C.3       1 DM2         0.0125
     23 C16       -19.6360  -34.2410   12.1260 C.ar      1 DM2        -0.0032
     24 C17       -19.9280  -33.6710   13.4610 C.ar      1 DM2         0.0984
     25 O17       -21.2120  -33.5610   13.8760 O.3       1 DM2        -0.3380
     26 C18       -18.8140  -33.2320   14.3400 C.ar      1 DM2         0.0586
     27 C19       -19.1240  -32.6680   15.6860 C.2       1 DM2         0.1504
     28 O19       -20.3020  -32.5610   16.0860 O.2       1 DM2        -0.3730
     29 C20       -18.0200  -32.2330   16.5650 C.ar      1 DM2         0.0393
     30 C21       -13.5690  -30.9210   16.0660 C.3       1 DM2         0.0613
     31 C1'       -17.4130  -37.3500   10.7970 C.3       1 DM2         0.1670
     32 C2'       -17.4170  -37.5790   12.3180 C.3       1 DM2         0.0440
     33 C3'       -18.7330  -38.1830   12.7990 C.3       1 DM2         0.0093
     34 N3'       -18.6760  -38.4050   14.2330 N.4       1 DM2         0.2228
     35 C4'       -19.0140  -39.4830   12.0410 C.3       1 DM2         0.1234
     36 O4'       -18.0900  -40.4980   12.4590 O.3       1 DM2        -0.3836
     37 C5'       -18.9260  -39.2510   10.5220 C.3       1 DM2         0.0900
     38 O5'       -17.6790  -38.6190   10.1620 O.3       1 DM2        -0.3452
     39 C6'       -19.1090  -40.5450    9.7230 C.3       1 DM2        -0.0359
     40 H1        -19.3236  -31.6136   18.1606 H         1 DM2         0.0591
     41 H2        -17.4876  -30.8910   19.6245 H         1 DM2         0.0636
     42 H3        -15.1507  -31.0780   18.9219 H         1 DM2         0.0591
     43 H4        -15.4032  -33.1991   12.0682 H         1 DM2         0.2454
     44 H5        -17.0377  -34.8245    9.9500 H         1 DM2         0.0731
     45 H6        -19.1384  -34.9514    8.4318 H         1 DM2         0.0323
     46 H7        -18.6033  -33.3349    9.0038 H         1 DM2         0.0323
     47 H8        -21.3030  -34.2540    8.0653 H         1 DM2         0.2078
     48 H9        -21.9382  -32.3347   11.6200 H         1 DM2         0.0786
     49 H10       -21.9741  -30.8768   10.5712 H         1 DM2         0.0786
     50 H11       -20.6643  -30.5883   12.4658 H         1 DM2         0.2129
     51 H12       -20.7313  -35.7691   11.0770 H         1 DM2         0.0410
     52 H13       -21.7172  -34.3568   11.5871 H         1 DM2         0.0410
     53 H14       -21.2309  -33.1799   14.7460 H         1 DM2         0.2454
     54 H15       -12.5150  -31.1831   15.8915 H         1 DM2         0.0581
     55 H16       -13.6237  -30.0347   16.7152 H         1 DM2         0.0581
     56 H17       -14.0564  -30.7020   15.1045 H         1 DM2         0.0581
     57 H18       -16.4149  -36.9961   10.4996 H         1 DM2         0.0913
     58 H19       -17.2629  -36.6142   12.8233 H         1 DM2         0.0370
     59 H20       -16.5959  -38.2637   12.5767 H         1 DM2         0.0370
     60 H21       -19.5470  -37.4738   12.5881 H         1 DM2         0.0878
     61 H22       -19.5471  -38.8039   14.5461 H         1 DM2         0.1998
     62 H23       -18.5204  -37.5270   14.7030 H         1 DM2         0.1998
     63 H24       -17.9210  -39.0382   14.4453 H         1 DM2         0.1998
     64 H25       -20.0337  -39.8173   12.2826 H         1 DM2         0.0676
     65 H26       -18.2690  -41.3020   11.9856 H         1 DM2         0.2102
     66 H27       -19.7432  -38.5690   10.2446 H         1 DM2         0.0622
     67 H28       -19.0377  -40.3251    8.6476 H         1 DM2         0.0255
     68 H29       -20.0965  -40.9761    9.9443 H         1 DM2         0.0255
     69 H30       -18.3242  -41.2631   10.0032 H         1 DM2         0.0255
@<TRIPOS>BOND
     1    1    2 ar 
     2    1   29 ar 
     3    2    3 ar 
     4    3    4 ar 
     5    4    5 1  
     6    4    6 ar 
     7    5   30 1  
     8    6    7 1  
     9    6   29 ar 
    10    7    8 2  
    11    7    9 1  
    12    9   10 ar 
    13    9   26 ar 
    14   10   11 1  
    15   10   12 ar 
    16   12   13 1  
    17   12   23 ar 
    18   13   14 1  
    19   13   15 1  
    20   14   31 1  
    21   15   16 1  
    22   16   17 1  
    23   16   18 1  
    24   16   22 1  
    25   18   19 2  
    26   18   20 1  
    27   20   21 1  
    28   22   23 1  
    29   23   24 ar 
    30   24   25 1  
    31   24   26 ar 
    32   26   27 1  
    33   27   28 2  
    34   27   29 1  
    35   31   32 1  
    36   31   38 1  
    37   32   33 1  
    38   33   34 1  
    39   33   35 1  
    40   35   36 1  
    41   35   37 1  
    42   37   38 1  
    43   37   39 1  
    44    1   40 1  
    45    2   41 1  
    46    3   42 1  
    47   11   43 1  
    48   13   44 1  
    49   15   45 1  
    50   15   46 1  
    51   17   47 1  
    52   20   48 1  
    53   20   49 1  
    54   21   50 1  
    55   22   51 1  
    56   22   52 1  
    57   25   53 1  
    58   30   54 1  
    59   30   55 1  
    60   30   56 1  
    61   31   57 1  
    62   32   58 1  
    63   32   59 1  
    64   33   60 1  
    65   34   61 1  
    66   34   62 1  
    67   34   63 1  
    68   35   64 1  
    69   36   65 1  
    70   37   66 1  
    71   39   67 1  
    72   39   68 1  
    73   39   69 1  
@<TRIPOS>SUBSTRUCTURE
     1 DM2         1

