### 
### Created by X-TOOL on Mon Sep 10 21:13:31 2018
### 

@<TRIPOS>MOLECULE
5mrb_ligand
   82    87     1     0     0
SMALL
GAST_HUCK


@<TRIPOS>ATOM
      1 O1         -1.3810   -6.6790  -16.8540 O.3       1 C5N        -0.3279
      2 O2          3.1430  -16.6370  -18.5370 O.2       1 C5N        -0.3761
      3 C1         -1.2620   -5.3460  -16.3630 C.3       1 C5N         0.0568
      4 C2         -1.6190   -7.6870  -15.9660 C.ar      1 C5N         0.1049
      5 C3         -1.7060   -7.5090  -14.5910 C.ar      1 C5N        -0.0241
      6 C4         -1.9390   -8.5880  -13.7450 C.ar      1 C5N         0.0206
      7 N1         -1.9930   -8.3820  -12.3520 N.pl3     1 C5N        -0.3064
      8 C5         -1.0600   -7.4390  -11.7200 C.3       1 C5N         0.0648
      9 C6         -0.6110   -7.8850  -10.3470 C.3       1 C5N        -0.0123
     10 N2         -1.7520   -8.2760   -9.5170 N.4       1 C5N         0.2358
     11 C7         -1.3300   -8.6090   -8.1530 C.3       1 C5N        -0.0430
     12 C8         -2.4270   -9.4090  -10.1530 C.3       1 C5N        -0.0123
     13 C9         -3.0000   -9.0060  -11.4900 C.3       1 C5N         0.0648
     14 C10        -2.0850   -9.8660  -14.2930 C.ar      1 C5N        -0.0642
     15 C11        -2.0120  -10.0600  -15.6520 C.ar      1 C5N        -0.0568
     16 C12        -1.7750   -8.9770  -16.4980 C.ar      1 C5N         0.0832
     17 N3         -1.6860   -9.1450  -17.9030 N.pl3     1 C5N        -0.2525
     18 C13        -1.0040  -10.0820  -18.6160 C.ar      1 C5N         0.2015
     19 N4         -0.9840   -9.9880  -19.9670 N.ar      1 C5N        -0.2458
     20 C14        -0.3030  -10.9060  -20.6270 C.ar      1 C5N         0.0262
     21 C15         0.3660  -11.9950  -19.9370 C.ar      1 C5N         0.0146
     22 C16         1.1570  -13.0600  -20.6640 C.ar      1 C5N        -0.0574
     23 C17         1.5470  -14.3250  -19.9030 C.ar      1 C5N        -0.0609
     24 C18         1.5120  -14.1670  -18.4120 C.ar      1 C5N         0.0318
     25 C19         0.9180  -13.0820  -17.8100 C.ar      1 C5N         0.1219
     26 N5          1.0210  -13.2590  -16.4710 N.pl3     1 C5N        -0.1885
     27 C20         0.5670  -12.4040  -15.3870 C.3       1 C5N         0.0611
     28 N6          1.6810  -14.4270  -16.2160 N.2       1 C5N        -0.1709
     29 C21         1.9690  -14.9660  -17.3900 C.2       1 C5N         0.1413
     30 C22         2.6860  -16.2450  -17.4640 C.2       1 C5N         0.2383
     31 N7          2.8130  -16.9240  -16.2970 N.am      1 C5N        -0.2393
     32 C23         3.5360  -18.1480  -16.1460 C.ar      1 C5N         0.0707
     33 C24         2.8620  -19.3640  -16.3040 C.ar      1 C5N        -0.0275
     34 C25         1.3790  -19.4400  -16.5830 C.3       1 C5N        -0.0276
     35 C26         0.4940  -19.2900  -15.3740 C.3       1 C5N        -0.0576
     36 C27         3.6080  -20.5390  -16.1900 C.ar      1 C5N        -0.0801
     37 C28         4.9640  -20.5110  -15.9480 C.ar      1 C5N        -0.0903
     38 C29         5.6090  -19.3020  -15.8160 C.ar      1 C5N        -0.0801
     39 C30         4.9170  -18.0930  -15.9270 C.ar      1 C5N        -0.0275
     40 C31         5.6610  -16.7880  -15.7790 C.3       1 C5N        -0.0276
     41 C32         5.5850  -16.1840  -14.4030 C.3       1 C5N        -0.0576
     42 C33         0.2850  -12.0090  -18.5500 C.ar      1 C5N         0.0769
     43 N8         -0.4060  -11.0630  -17.8910 N.ar      1 C5N        -0.2614
     44 H1         -1.0725   -4.6614  -17.2029 H         1 C5N         0.0573
     45 H2         -0.4264   -5.2912  -15.6497 H         1 C5N         0.0573
     46 H3         -2.1952   -5.0567  -15.8576 H         1 C5N         0.0573
     47 H4         -1.5908   -6.5159  -14.1719 H         1 C5N         0.0409
     48 H5         -1.5579   -6.4626  -11.6262 H         1 C5N         0.0563
     49 H6         -0.1735   -7.3383  -12.3634 H         1 C5N         0.0563
     50 H7         -0.0784   -7.0566   -9.8571 H         1 C5N         0.0834
     51 H8          0.0667   -8.7449  -10.4530 H         1 C5N         0.0834
     52 H9         -2.3958   -7.5020   -9.4673 H         1 C5N         0.2032
     53 H10        -2.2087   -8.8976   -7.5575 H         1 C5N         0.0778
     54 H11        -0.8478   -7.7332   -7.6942 H         1 C5N         0.0778
     55 H12        -0.6170   -9.4460   -8.1838 H         1 C5N         0.0778
     56 H13        -3.2418   -9.7564   -9.5008 H         1 C5N         0.0834
     57 H14        -1.7031  -10.2239  -10.3012 H         1 C5N         0.0834
     58 H15        -3.3923   -9.9021  -11.9930 H         1 C5N         0.0563
     59 H16        -3.8188   -8.2903  -11.3245 H         1 C5N         0.0563
     60 H17        -2.2576  -10.7131  -13.6391 H         1 C5N         0.0397
     61 H18        -2.1386  -11.0540  -16.0656 H         1 C5N         0.0475
     62 H19        -2.2126   -8.4602  -18.4639 H         1 C5N         0.2119
     63 H20        -0.2417  -10.8459  -21.7076 H         1 C5N         0.0961
     64 H21         1.4406  -12.9280  -21.7019 H         1 C5N         0.0556
     65 H22         1.8234  -15.2508  -20.3945 H         1 C5N         0.0588
     66 H23         0.8222  -12.8678  -14.4228 H         1 C5N         0.0596
     67 H24        -0.5232  -12.2743  -15.4543 H         1 C5N         0.0596
     68 H25         1.0584  -11.4229  -15.4634 H         1 C5N         0.0596
     69 H26         2.3702  -16.5420  -15.4858 H         1 C5N         0.2207
     70 H27         1.1678  -20.4176  -17.0408 H         1 C5N         0.0392
     71 H28         1.1242  -18.6397  -17.2934 H         1 C5N         0.0392
     72 H29        -0.5602  -19.3594  -15.6804 H         1 C5N         0.0248
     73 H30         0.6760  -18.3116  -14.9055 H         1 C5N         0.0248
     74 H31         0.7196  -20.0895  -14.6530 H         1 C5N         0.0248
     75 H32         3.1085  -21.4954  -16.2943 H         1 C5N         0.0460
     76 H33         5.5207  -21.4371  -15.8619 H         1 C5N         0.0455
     77 H34         6.6754  -19.2875  -15.6220 H         1 C5N         0.0460
     78 H35         5.2387  -16.0677  -16.4951 H         1 C5N         0.0392
     79 H36         6.7196  -16.9659  -16.0190 H         1 C5N         0.0392
     80 H37         6.1511  -15.2410  -14.3847 H         1 C5N         0.0248
     81 H38         6.0147  -16.8838  -13.6711 H         1 C5N         0.0248
     82 H39         4.5337  -15.9855  -14.1472 H         1 C5N         0.0248
@<TRIPOS>BOND
     1    1    3 1  
     2    4    1 1  
     3   30    2 2  
     4    4    5 ar 
     5   16    4 ar 
     6    5    6 ar 
     7    6    7 1  
     8   14    6 ar 
     9    7    8 1  
    10    7   13 1  
    11    8    9 1  
    12    9   10 1  
    13   10   11 1  
    14   12   10 1  
    15   13   12 1  
    16   15   14 ar 
    17   16   15 ar 
    18   17   16 1  
    19   18   17 1  
    20   19   18 ar 
    21   18   43 ar 
    22   20   19 ar 
    23   21   20 ar 
    24   22   21 ar 
    25   42   21 ar 
    26   23   22 ar 
    27   24   23 ar 
    28   24   25 ar 
    29   29   24 1  
    30   26   25 1  
    31   25   42 ar 
    32   26   27 1  
    33   28   26 1  
    34   29   28 2  
    35   29   30 1  
    36   30   31 am 
    37   31   32 1  
    38   32   33 ar 
    39   32   39 ar 
    40   33   34 1  
    41   33   36 ar 
    42   34   35 1  
    43   36   37 ar 
    44   37   38 ar 
    45   38   39 ar 
    46   39   40 1  
    47   40   41 1  
    48   42   43 ar 
    49    3   44 1  
    50    3   45 1  
    51    3   46 1  
    52    5   47 1  
    53    8   48 1  
    54    8   49 1  
    55    9   50 1  
    56    9   51 1  
    57   10   52 1  
    58   11   53 1  
    59   11   54 1  
    60   11   55 1  
    61   12   56 1  
    62   12   57 1  
    63   13   58 1  
    64   13   59 1  
    65   14   60 1  
    66   15   61 1  
    67   17   62 1  
    68   20   63 1  
    69   22   64 1  
    70   23   65 1  
    71   27   66 1  
    72   27   67 1  
    73   27   68 1  
    74   31   69 1  
    75   34   70 1  
    76   34   71 1  
    77   35   72 1  
    78   35   73 1  
    79   35   74 1  
    80   36   75 1  
    81   37   76 1  
    82   38   77 1  
    83   40   78 1  
    84   40   79 1  
    85   41   80 1  
    86   41   81 1  
    87   41   82 1  
@<TRIPOS>SUBSTRUCTURE
     1 C5N         1

