### 
### Created by X-TOOL on Mon Sep 10 21:13:30 2018
### 

@<TRIPOS>MOLECULE
5mrd_ligand
   34    37     1     0     0
SMALL
GAST_HUCK


@<TRIPOS>ATOM
      1 C4        -14.8070   39.4740  -13.0940 C.ar      1 S26         0.0263
      2 C14        -9.1340   39.1710   -7.1540 C.2       1 S26         0.0168
      3 C5        -13.6460   40.0250  -13.6270 C.ar      1 S26        -0.0626
      4 C6        -12.4790   40.1150  -12.8770 C.ar      1 S26        -0.0640
      5 C8        -11.8610   39.0710   -9.4430 C.2       1 S26         0.2175
      6 C13       -10.2910   39.0010   -6.2590 C.2       1 S26         0.1481
      7 C23        -7.7040   39.2880   -6.7430 C.3       1 S26        -0.0277
      8 O22       -10.3070   38.9080   -4.7810 O.3       1 S26        -0.3531
      9 C12       -11.4370   38.9360   -7.1880 C.2       1 S26         0.2524
     10 O21       -12.6480   38.7890   -6.8090 O.2       1 S26        -0.3844
     11 C15        -9.4740   39.2120   -8.5930 C.3       1 S26         0.1528
     12 C16        -8.9280   38.0310   -9.3090 C.2       1 S26         0.0560
     13 C20        -7.7900   38.0640  -10.1110 C.2       1 S26        -0.0765
     14 C19        -7.5220   36.7960  -10.6560 C.2       1 S26        -0.0924
     15 C18        -8.4290   35.7730  -10.3400 C.2       1 S26        -0.0190
     16 S17        -9.6480   36.4520   -9.2900 S.3       1 S26        -0.0395
     17 N11       -10.9580   39.0510   -8.4480 N.am      1 S26        -0.1501
     18 S9        -13.5400   38.5830   -9.4120 S.3       1 S26         0.0305
     19 C2        -13.7050   39.0880  -11.0070 C.ar      1 S26         0.0480
     20 N7        -11.4570   39.6360  -10.6140 N.2       1 S26        -0.3089
     21 C1        -12.4510   39.6640  -11.5640 C.ar      1 S26         0.0069
     22 CL        -16.2610   39.3900  -14.1400 Cl        1 S26        -0.0803
     23 C3        -14.8570   39.0030  -11.7830 C.ar      1 S26        -0.0402
     24 H1        -13.6515   40.3913  -14.6472 H         1 S26         0.0550
     25 H2        -11.5854   40.5398  -13.3199 H         1 S26         0.0529
     26 H3         -7.6325   39.2386   -5.6464 H         1 S26         0.0398
     27 H4         -7.2990   40.2486   -7.0940 H         1 S26         0.0398
     28 H5         -7.1266   38.4630   -7.1856 H         1 S26         0.0398
     29 H6        -11.2021   38.8008   -4.4812 H         1 S26         0.2338
     30 H7         -9.1737   40.1483   -9.0860 H         1 S26         0.1005
     31 H8         -7.1880   38.9533  -10.2919 H         1 S26         0.0285
     32 H9         -6.6553   36.6170  -11.2906 H         1 S26         0.0373
     33 H10        -8.3813   34.7418  -10.6869 H         1 S26         0.0602
     34 H11       -15.7699   38.5813  -11.3783 H         1 S26         0.0560
@<TRIPOS>BOND
     1    3    1 ar 
     2    1   22 1  
     3    1   23 ar 
     4    2    6 2  
     5    2    7 1  
     6   11    2 1  
     7    4    3 ar 
     8   21    4 ar 
     9    5   17 1  
    10   18    5 1  
    11    5   20 2  
    12    6    8 1  
    13    9    6 1  
    14    9   10 2  
    15   17    9 am 
    16   11   12 1  
    17   17   11 1  
    18   12   13 2  
    19   12   16 1  
    20   13   14 1  
    21   15   14 2  
    22   16   15 1  
    23   19   18 1  
    24   19   21 ar 
    25   19   23 ar 
    26   20   21 1  
    27    3   24 1  
    28    4   25 1  
    29    7   26 1  
    30    7   27 1  
    31    7   28 1  
    32    8   29 1  
    33   11   30 1  
    34   13   31 1  
    35   14   32 1  
    36   15   33 1  
    37   23   34 1  
@<TRIPOS>SUBSTRUCTURE
     1 S26         1

