### 
### Created by X-TOOL on Mon Sep 10 21:13:33 2018
### 

@<TRIPOS>MOLECULE
5mrh_ligand
   28    28     1     0     0
SMALL
GAST_HUCK


@<TRIPOS>ATOM
      1 C01       -28.7180   39.2740   11.5380 C.3       1 Q9Z        -0.0625
      2 C02       -28.9020   40.4540   12.5710 C.3       1 Q9Z        -0.0419
      3 C03       -29.6510   41.5840   11.9450 C.3       1 Q9Z        -0.0625
      4 C04       -29.6000   39.9280   13.8470 C.3       1 Q9Z        -0.0085
      5 C05       -30.6000   40.9430   14.4550 C.3       1 Q9Z         0.0012
      6 C07       -32.7510   39.3310   14.6870 C.3       1 Q9Z         0.0934
      7 C08       -33.8500   39.3670   13.6850 C.2       1 Q9Z         0.2630
      8 N06       -31.9140   40.3990   14.3050 N.4       1 Q9Z         0.3647
      9 N10       -33.8210   40.6150   13.0580 N.am      1 Q9Z        -0.2141
     10 N11       -32.6380   41.2680   13.4280 N.4       1 Q9Z         0.4082
     11 O09       -34.6220   38.4730   13.4570 O.2       1 Q9Z        -0.3863
     12 H1        -28.2214   39.6533   10.6328 H         1 Q9Z         0.0232
     13 H2        -29.7029   38.8634   11.2711 H         1 Q9Z         0.0232
     14 H3        -28.1015   38.4833   11.9905 H         1 Q9Z         0.0232
     15 H4        -27.9061   40.8246   12.8554 H         1 Q9Z         0.0297
     16 H5        -29.7697   42.3957   12.6778 H         1 Q9Z         0.0232
     17 H6        -30.6425   41.2330   11.6229 H         1 Q9Z         0.0232
     18 H7        -29.0926   41.9558   11.0733 H         1 Q9Z         0.0232
     19 H8        -28.8300   39.7017   14.5993 H         1 Q9Z         0.0320
     20 H9        -30.1463   39.0076   13.5931 H         1 Q9Z         0.0320
     21 H10       -30.5290   41.9036   13.9237 H         1 Q9Z         0.0831
     22 H11       -30.3771   41.0963   15.5212 H         1 Q9Z         0.0831
     23 H12       -32.2106   38.3740   14.6420 H         1 Q9Z         0.1082
     24 H13       -33.1422   39.4838   15.7037 H         1 Q9Z         0.1082
     25 H14       -32.1771   40.8685   15.1573 H         1 Q9Z         0.2418
     26 H15       -34.5249   40.9802   12.4487 H         1 Q9Z         0.2421
     27 H16       -32.0853   41.4663   12.6087 H         1 Q9Z         0.2728
     28 H17       -32.8563   42.1299   13.9028 H         1 Q9Z         0.2728
@<TRIPOS>BOND
     1    2    1 1  
     2    2    3 1  
     3    4    2 1  
     4    5    4 1  
     5    8    5 1  
     6    6    7 1  
     7    6    8 1  
     8    7    9 am 
     9    7   11 2  
    10    8   10 1  
    11    9   10 1  
    12    1   12 1  
    13    1   13 1  
    14    1   14 1  
    15    2   15 1  
    16    3   16 1  
    17    3   17 1  
    18    3   18 1  
    19    4   19 1  
    20    4   20 1  
    21    5   21 1  
    22    5   22 1  
    23    6   23 1  
    24    6   24 1  
    25    8   25 1  
    26    9   26 1  
    27   10   27 1  
    28   10   28 1  
@<TRIPOS>SUBSTRUCTURE
     1 Q9Z         1

