### 
### Created by X-TOOL on Mon Sep 10 21:13:32 2018
### 

@<TRIPOS>MOLECULE
5mri_ligand
   31    31     1     0     0
SMALL
GAST_HUCK


@<TRIPOS>ATOM
      1 C15       -13.5750  -75.5650   33.6390 C.3       1 Q9Y         0.0185
      2 C01        -9.0950  -78.8010   29.9540 C.3       1 Q9Y        -0.0626
      3 C02       -10.0210  -79.9310   30.4820 C.3       1 Q9Y        -0.0440
      4 C03        -9.2000  -81.0480   31.1570 C.3       1 Q9Y        -0.0626
      5 C04       -11.1350  -79.3260   31.4450 C.3       1 Q9Y        -0.0205
      6 C05       -11.6150  -80.2450   32.5390 C.3       1 Q9Y         0.0752
      7 C09       -10.4990  -78.6180   35.5020 C.2       1 Q9Y         0.1934
      8 C11       -11.3730  -78.7150   34.4340 C.2       1 Q9Y         0.2024
      9 C12       -12.5810  -77.7860   34.1050 C.2       1 Q9Y         0.2215
     10 N06       -11.0130  -79.7940   33.7230 N.pl3     1 Q9Y        -0.1654
     11 N07        -9.9430  -80.3410   34.3120 N.2       1 Q9Y        -0.0911
     12 N08        -9.6350  -79.6270   35.4050 N.2       1 Q9Y        -0.1817
     13 N14       -12.4150  -76.3510   33.9410 N.am      1 Q9Y        -0.2907
     14 O10       -10.4900  -77.6560   36.5100 O.3       1 Q9Y        -0.3283
     15 O13       -13.7130  -78.2720   33.9840 O.2       1 Q9Y        -0.3938
     16 H1        -13.2872  -74.5074   33.5462 H         1 Q9Y         0.0482
     17 H2        -14.3129  -75.6746   34.4474 H         1 Q9Y         0.0482
     18 H3        -14.0151  -75.9097   32.6916 H         1 Q9Y         0.0482
     19 H4         -8.3311  -79.2329   29.2908 H         1 Q9Y         0.0232
     20 H5         -8.6041  -78.3025   30.8028 H         1 Q9Y         0.0232
     21 H6         -9.6940  -78.0675   29.3944 H         1 Q9Y         0.0232
     22 H7        -10.5357  -80.3768   29.6181 H         1 Q9Y         0.0296
     23 H8         -9.8790  -81.8333   31.5208 H         1 Q9Y         0.0232
     24 H9         -8.6372  -80.6287   32.0040 H         1 Q9Y         0.0232
     25 H10        -8.4982  -81.4790   30.4278 H         1 Q9Y         0.0232
     26 H11       -12.0032  -79.0509   30.8282 H         1 Q9Y         0.0296
     27 H12       -10.7205  -78.4236   31.9180 H         1 Q9Y         0.0296
     28 H13       -11.3108  -81.2807   32.3275 H         1 Q9Y         0.0643
     29 H14       -12.7104  -80.1949   32.6255 H         1 Q9Y         0.0643
     30 H15       -11.5158  -75.9239   34.0363 H         1 Q9Y         0.1832
     31 H16       -10.6025  -78.0805   37.3523 H         1 Q9Y         0.2450
@<TRIPOS>BOND
     1   13    1 1  
     2    3    2 1  
     3    3    4 1  
     4    5    3 1  
     5    6    5 1  
     6   10    6 1  
     7    8    7 2  
     8    7   12 1  
     9    7   14 1  
    10    9    8 1  
    11    8   10 1  
    12    9   13 am 
    13    9   15 2  
    14   10   11 1  
    15   11   12 2  
    16    1   16 1  
    17    1   17 1  
    18    1   18 1  
    19    2   19 1  
    20    2   20 1  
    21    2   21 1  
    22    3   22 1  
    23    4   23 1  
    24    4   24 1  
    25    4   25 1  
    26    5   26 1  
    27    5   27 1  
    28    6   28 1  
    29    6   29 1  
    30   13   30 1  
    31   14   31 1  
@<TRIPOS>SUBSTRUCTURE
     1 Q9Y         1

