### 
### Created by X-TOOL on Mon Sep 10 21:13:33 2018
### 

@<TRIPOS>MOLECULE
5mrm_ligand
   22    23     1     0     0
SMALL
GAST_HUCK


@<TRIPOS>ATOM
      1 C4         13.8330   30.1720  -17.8170 C.ar      1 Q9T        -0.0448
      2 C5         15.0770   29.6470  -17.4210 C.ar      1 Q9T         0.0633
      3 C6         15.6670   28.7660  -18.2670 C.2       1 Q9T         0.1828
      4 C7         16.7470   27.9830  -18.1260 C.2       1 Q9T        -0.0045
      5 C8         16.8930   27.3390  -19.2920 C.2       1 Q9T         0.1419
      6 C15        15.6090   30.1380  -16.2040 C.ar      1 Q9T         0.1166
      7 C17        14.9320   31.0720  -15.4120 C.ar      1 Q9T         0.0456
      8 F12        19.0700   26.5840  -18.9680 F         1 Q9T        -0.2157
      9 C9         17.9720   26.3220  -19.6520 C.3       1 Q9T         0.3907
     10 F11        18.2190   26.4250  -20.9930 F         1 Q9T        -0.2157
     11 F10        17.5550   25.0890  -19.3820 F         1 Q9T        -0.2157
     12 N13        15.9600   27.6950  -20.1620 N.2       1 Q9T        -0.0685
     13 O14        15.2010   28.5830  -19.5520 O.3       1 Q9T        -0.1186
     14 C2         13.1550   31.1080  -17.0390 C.ar      1 Q9T         0.0055
     15 BR3        11.5080   31.7750  -17.5620 Br        1 Q9T        -0.0587
     16 C1         13.7020   31.5510  -15.8430 C.ar      1 Q9T        -0.0508
     17 BR8        15.6240   31.7470  -13.7650 Br        1 Q9T        -0.0572
     18 O16        16.8030   29.6980  -15.7400 O.3       1 Q9T        -0.3252
     19 H1         13.3916   29.8402  -18.7498 H         1 Q9T         0.0648
     20 H2         17.3774   27.8896  -17.2429 H         1 Q9T         0.0467
     21 H3         13.1655   32.2757  -15.2413 H         1 Q9T         0.0646
     22 H4         17.3956   30.4344  -15.6454 H         1 Q9T         0.2529
@<TRIPOS>BOND
     1    1    2 ar 
     2    1   14 ar 
     3    2    3 1  
     4    2    6 ar 
     5    3    4 2  
     6    3   13 1  
     7    4    5 1  
     8    5    9 1  
     9    5   12 2  
    10    6    7 ar 
    11    6   18 1  
    12    7   16 ar 
    13    7   17 1  
    14    9    8 1  
    15    9   10 1  
    16    9   11 1  
    17   12   13 1  
    18   14   15 1  
    19   14   16 ar 
    20    1   19 1  
    21    4   20 1  
    22   16   21 1  
    23   18   22 1  
@<TRIPOS>SUBSTRUCTURE
     1 Q9T         1

