### 
### Created by X-TOOL on Mon Sep 10 21:13:33 2018
### 

@<TRIPOS>MOLECULE
5mro_ligand
   27    29     1     0     0
SMALL
GAST_HUCK


@<TRIPOS>ATOM
      1 N3          6.0120   21.1690  -18.7320 N.2       1 Q9P        -0.2255
      2 C4          5.2520   20.2600  -19.3400 C.2       1 Q9P         0.2413
      3 C6          4.1720   22.7150  -18.6530 C.3       1 Q9P         0.1530
      4 C7          3.3850   21.7180  -19.2820 C.2       1 Q9P         0.2971
      5 C10         4.4370   18.5440  -20.3110 C.2       1 Q9P         0.0519
      6 C13         3.6860   25.0160  -19.1800 C.ar      1 Q9P        -0.0372
      7 C15         4.1290   27.3710  -19.6330 C.ar      1 Q9P        -0.0686
      8 C17         3.3360   25.9640  -21.4010 C.ar      1 Q9P        -0.0686
      9 O11         2.1980   21.9100  -19.5640 O.2       1 Q9P        -0.3537
     10 N8          3.9760   20.5480  -19.6010 N.am      1 Q9P        -0.0690
     11 N9          3.4840   19.4580  -20.2120 N.2       1 Q9P        -0.1683
     12 N5          5.5320   19.0420  -19.7760 N.2       1 Q9P        -0.2904
     13 C2          5.5120   22.3630  -18.3770 C.2       1 Q9P         0.1520
     14 CL1         6.6210   23.3950  -17.6160 Cl        1 Q9P         0.0005
     15 C12         3.6380   23.9460  -18.2390 C.3       1 Q9P         0.0209
     16 C18         3.2900   24.8830  -20.5190 C.ar      1 Q9P        -0.0599
     17 C16         3.7560   27.2150  -20.9660 C.ar      1 Q9P        -0.0687
     18 C14         4.0900   26.2890  -18.7560 C.ar      1 Q9P        -0.0599
     19 H1          4.4502   23.1512  -19.6237 H         1 Q9P         0.0871
     20 H2          4.3334   17.5555  -20.7561 H         1 Q9P         0.0805
     21 H3          4.4522   28.3419  -19.2751 H         1 Q9P         0.0599
     22 H4          3.0413   25.8262  -22.4350 H         1 Q9P         0.0599
     23 H5          4.1919   24.2650  -17.3438 H         1 Q9P         0.0491
     24 H6          2.5826   23.7799  -17.9774 H         1 Q9P         0.0491
     25 H7          2.9410   23.9209  -20.8763 H         1 Q9P         0.0557
     26 H8          3.7927   28.0541  -21.6513 H         1 Q9P         0.0559
     27 H9          4.3789   26.4354  -17.7215 H         1 Q9P         0.0557
@<TRIPOS>BOND
     1    1    2 1  
     2   13    1 2  
     3   10    2 1  
     4    2   12 2  
     5    3    4 1  
     6    3   13 1  
     7   15    3 1  
     8    4    9 2  
     9    4   10 am 
    10    5   11 2  
    11   12    5 1  
    12    6   15 1  
    13    6   16 ar 
    14   18    6 ar 
    15    7   17 ar 
    16    7   18 ar 
    17   16    8 ar 
    18    8   17 ar 
    19   10   11 1  
    20   13   14 1  
    21    3   19 1  
    22    5   20 1  
    23    7   21 1  
    24    8   22 1  
    25   15   23 1  
    26   15   24 1  
    27   16   25 1  
    28   17   26 1  
    29   18   27 1  
@<TRIPOS>SUBSTRUCTURE
     1 Q9P         1

