### 
### Created by X-TOOL on Mon Sep 10 21:13:33 2018
### 

@<TRIPOS>MOLECULE
5mrp_ligand
   29    31     1     0     0
SMALL
GAST_HUCK


@<TRIPOS>ATOM
      1 CL17        6.4600   23.6410  -17.3950 Cl        1 6BC        -0.0001
      2 C16         5.4900   22.6170  -18.1720 C.2       1 6BC         0.1513
      3 N18         5.9460   21.3960  -18.4620 N.2       1 6BC        -0.2340
      4 C4          5.2240   20.4900  -19.1050 C.2       1 6BC         0.2100
      5 C8          4.1970   22.9600  -18.5870 C.3       1 6BC         0.1536
      6 C6          3.4710   21.9570  -19.2330 C.2       1 6BC         0.2989
      7 O7          2.2500   22.2480  -19.6200 O.2       1 6BC        -0.3521
      8 N5          4.0050   20.7810  -19.4870 N.am      1 6BC        -0.0797
      9 N19         3.4960   19.7720  -20.0850 N.2       1 6BC        -0.1813
     10 C20         4.3780   18.8090  -20.1050 C.2       1 6BC         0.0251
     11 C1          5.4520   19.2580  -19.4960 C.2       1 6BC         0.1206
     12 C2          6.6600   18.4850  -19.3160 C.1       1 6BC         0.0570
     13 N3          7.4360   17.9910  -19.2050 N.1       1 6BC        -0.3682
     14 C9          3.6240   24.2070  -18.2730 C.3       1 6BC         0.0210
     15 C10         3.7180   25.2390  -19.1800 C.ar      1 6BC        -0.0372
     16 C15         3.2820   25.1310  -20.4610 C.ar      1 6BC        -0.0599
     17 C14         3.3910   26.2030  -21.3080 C.ar      1 6BC        -0.0686
     18 C13         3.9030   27.3970  -20.9100 C.ar      1 6BC        -0.0687
     19 C12         4.3290   27.5210  -19.6160 C.ar      1 6BC        -0.0686
     20 C11         4.2140   26.4450  -18.7850 C.ar      1 6BC        -0.0599
     21 H1          4.5698   23.3559  -19.5432 H         1 6BC         0.0872
     22 H2          4.2478   17.8207  -20.5435 H         1 6BC         0.0683
     23 H3          4.0982   24.5531  -17.3428 H         1 6BC         0.0491
     24 H4          2.5526   24.0324  -18.0954 H         1 6BC         0.0491
     25 H5          2.8496   24.2012  -20.8124 H         1 6BC         0.0557
     26 H6          3.0564   26.0943  -22.3333 H         1 6BC         0.0599
     27 H7          3.9721   28.2300  -21.6002 H         1 6BC         0.0559
     28 H8          4.7490   28.4542  -19.2585 H         1 6BC         0.0599
     29 H9          4.5344   26.5555  -17.7553 H         1 6BC         0.0557
@<TRIPOS>BOND
     1    1    2 1  
     2    2    3 2  
     3    2    5 1  
     4    3    4 1  
     5    4    8 1  
     6    4   11 2  
     7    5    6 1  
     8    5   14 1  
     9    6    7 2  
    10    6    8 am 
    11    8    9 1  
    12    9   10 2  
    13   10   11 1  
    14   11   12 1  
    15   12   13 3  
    16   14   15 1  
    17   15   16 ar 
    18   15   20 ar 
    19   16   17 ar 
    20   17   18 ar 
    21   18   19 ar 
    22   19   20 ar 
    23    5   21 1  
    24   10   22 1  
    25   14   23 1  
    26   14   24 1  
    27   16   25 1  
    28   17   26 1  
    29   18   27 1  
    30   19   28 1  
    31   20   29 1  
@<TRIPOS>SUBSTRUCTURE
     1 6BC         1

