### 
### Created by X-TOOL on Wed Jan  1 15:39:35 2020
### 

@<TRIPOS>MOLECULE
5msb_ligand
   27    27     1     0     0
SMALL
GAST_HUCK


@<TRIPOS>ATOM
      1 O20        29.5060    5.9510   10.6330 O.2       1 V13        -0.1705
      2 S15        28.1760    6.7820   10.9000 S.o2      1 V13        -0.0011
      3 O19        27.9670    7.2570   12.3190 O.2       1 V13        -0.1705
      4 C16        28.2710    8.1360    9.7940 C.3       1 V13         0.0927
      5 C17        29.6750    8.6630    9.5610 C.3       1 V13         0.0638
      6 O18        29.9150    9.6980   10.4510 O.3       1 V13        -0.3934
      7 C1         26.7650    5.6550   10.7180 C.ar      1 V13         0.1517
      8 C6         25.7620    5.3210   11.6550 C.ar      1 V13         0.1858
      9 F11        25.6750    5.9250   12.8520 F         1 V13        -0.1866
     10 C5         24.7590    4.3800   11.3990 C.ar      1 V13         0.1875
     11 F12        23.8890    4.1240   12.3750 F         1 V13        -0.1866
     12 C4         24.7590    3.7420   10.1850 C.ar      1 V13         0.1712
     13 S7         23.6840    2.3210    9.8980 S.o2      1 V13         0.0656
     14 O9         24.6690    1.2410    9.8860 O.2       1 V13        -0.1518
     15 N10        22.6240    2.1160   11.0210 N.am      1 V13        -0.2620
     16 O8         23.0390    2.5760    8.6210 O.2       1 V13        -0.1518
     17 C3         25.7480    4.0320    9.2660 C.ar      1 V13         0.1875
     18 F13        25.7430    3.4290    8.0890 F         1 V13        -0.1866
     19 C2         26.6940    5.0220    9.4920 C.ar      1 V13         0.1858
     20 F14        27.5570    5.2510    8.4680 F         1 V13        -0.1866
     21 H1         27.6601    8.9552   10.2010 H         1 V13         0.0525
     22 H2         27.8588    7.8175    8.8252 H         1 V13         0.0525
     23 H3         29.7646    9.0339    8.5293 H         1 V13         0.0573
     24 H4         30.4050    7.8568    9.7255 H         1 V13         0.0573
     25 H5         29.2816   10.3913   10.3070 H         1 V13         0.2095
     26 H6         21.9753    1.3571   10.9637 H         1 V13         0.1634
     27 H7         22.5923    2.7433   11.7991 H         1 V13         0.1634
@<TRIPOS>BOND
     1    1    2 2  
     2    2    3 2  
     3    2    4 1  
     4    2    7 1  
     5    4    5 1  
     6    5    6 1  
     7    7    8 ar 
     8    7   19 ar 
     9    8    9 1  
    10    8   10 ar 
    11   10   11 1  
    12   10   12 ar 
    13   12   13 1  
    14   12   17 ar 
    15   13   14 2  
    16   13   15 am 
    17   13   16 2  
    18   17   18 1  
    19   17   19 ar 
    20   19   20 1  
    21    4   21 1  
    22    4   22 1  
    23    5   23 1  
    24    5   24 1  
    25    6   25 1  
    26   15   26 1  
    27   15   27 1  
@<TRIPOS>SUBSTRUCTURE
     1 V13         1

