### 
### Created by X-TOOL on Mon Sep 10 21:13:30 2018
### 

@<TRIPOS>MOLECULE
5mt0_ligand
   39    42     1     0     0
SMALL
GAST_HUCK


@<TRIPOS>ATOM
      1 C2         10.4060   13.0800    0.7720 C.ar      1 QJS         0.1155
      2 C3         10.2350   12.3510    1.9560 C.ar      1 QJS        -0.0372
      3 C13         8.9430   10.8610    4.9750 C.2       1 QJS         0.2023
      4 C15         9.1570   10.8370    6.4310 C.3       1 QJS         0.0679
      5 C17         8.0890   11.1420    7.3790 C.3       1 QJS         0.0153
      6 C19         9.0390   12.2730    7.0640 C.3       1 QJS        -0.0158
      7 C22         8.1300   10.2390    8.6460 C.ar      1 QJS        -0.0373
      8 C23         6.9810    9.4830    8.8080 C.ar      1 QJS        -0.0599
      9 C25         6.8570    8.6480    9.9320 C.ar      1 QJS        -0.0685
     10 C27         7.9760    8.5090   10.8020 C.ar      1 QJS        -0.0687
     11 C29         9.1100    9.2930   10.6100 C.ar      1 QJS        -0.0685
     12 F1         10.9380   14.3340    0.8420 F         1 QJS        -0.1945
     13 C5          9.6480   11.0870    1.8230 C.ar      1 QJS         0.0093
     14 C6          9.3060   10.5680    0.5800 C.ar      1 QJS         0.0578
     15 N7          8.7930    9.2920    0.7170 N.pl3     1 QJS        -0.2906
     16 C9          8.7390    8.9650    2.0100 C.2       1 QJS         0.0985
     17 C10         9.3070    9.9520    2.7510 C.2       1 QJS         0.0791
     18 N11         9.4770    9.9670    4.1300 N.am      1 QJS        -0.2485
     19 O14         8.1790   11.7390    4.4410 O.2       1 QJS        -0.3876
     20 C31         9.1710   10.1510    9.5090 C.ar      1 QJS        -0.0599
     21 C33         8.2630    7.6990    2.5010 C.2       1 QJS         0.0648
     22 O34         8.5290    7.2330    3.5640 O.co2     1 QJS        -0.5690
     23 O35         7.5070    7.0290    1.6570 O.co2     1 QJS        -0.5690
     24 C37         9.5060   11.2720   -0.6180 C.ar      1 QJS        -0.0438
     25 C39        10.0360   12.5520   -0.4870 C.ar      1 QJS        -0.0411
     26 H1         10.5396   12.7430    2.9196 H         1 QJS         0.0538
     27 H2          9.9450   10.1203    6.7056 H         1 QJS         0.0568
     28 H3          7.0463   11.2533    7.0468 H         1 QJS         0.0490
     29 H4          8.7091   13.1275    6.4550 H         1 QJS         0.0320
     30 H5          9.7682   12.6161    7.8127 H         1 QJS         0.0320
     31 H6          6.1844    9.5347    8.0746 H         1 QJS         0.0557
     32 H7          5.9306    8.1218   10.1321 H         1 QJS         0.0599
     33 H8          7.9445    7.7920   11.6144 H         1 QJS         0.0559
     34 H9          9.9377    9.2384   11.3079 H         1 QJS         0.0599
     35 H10         8.4971    8.6852   -0.0609 H         1 QJS         0.2141
     36 H11        10.0476    9.2481    4.5271 H         1 QJS         0.2172
     37 H12        10.0584   10.7512    9.3438 H         1 QJS         0.0557
     38 H13         9.2628   10.8453   -1.5844 H         1 QJS         0.0535
     39 H14        10.1689   13.1610   -1.3739 H         1 QJS         0.0542
@<TRIPOS>BOND
     1    2    1 ar 
     2    1   12 1  
     3    1   25 ar 
     4   13    2 ar 
     5    3    4 1  
     6   18    3 am 
     7    3   19 2  
     8    4    5 1  
     9    4    6 1  
    10    6    5 1  
    11    5    7 1  
    12    7    8 ar 
    13    7   20 ar 
    14    8    9 ar 
    15    9   10 ar 
    16   11   10 ar 
    17   20   11 ar 
    18   13   14 ar 
    19   17   13 1  
    20   15   14 1  
    21   14   24 ar 
    22   16   15 1  
    23   17   16 2  
    24   16   21 1  
    25   17   18 1  
    26   21   22 ar 
    27   21   23 ar 
    28   24   25 ar 
    29    2   26 1  
    30    4   27 1  
    31    5   28 1  
    32    6   29 1  
    33    6   30 1  
    34    8   31 1  
    35    9   32 1  
    36   10   33 1  
    37   11   34 1  
    38   15   35 1  
    39   18   36 1  
    40   20   37 1  
    41   24   38 1  
    42   25   39 1  
@<TRIPOS>SUBSTRUCTURE
     1 QJS         1

