### 
### Created by X-TOOL on Mon Sep 10 21:13:32 2018
### 

@<TRIPOS>MOLECULE
5mt4_ligand
   33    34     1     0     0
SMALL
GAST_HUCK


@<TRIPOS>ATOM
      1 C3          9.2030   11.1740    7.6500 C.3       1 M7O         0.0654
      2 C11         7.8040    8.1040   10.5280 C.ar      1 M7O        -0.0687
      3 C13         7.0020    8.5070    9.4420 C.ar      1 M7O        -0.0685
      4 C15         7.4190    9.4860    8.5160 C.ar      1 M7O        -0.0584
      5 C17         9.3700   10.9640    5.1690 C.2       1 M7O         0.2906
      6 C21         9.7480   10.4200    2.7440 C.ar      1 M7O         0.0817
      7 C22         9.1980    9.4460    1.9060 C.ar      1 M7O         0.0301
      8 C23         9.1250    9.6700    0.4940 C.ar      1 M7O        -0.0613
      9 C25         9.5850   10.8820   -0.0810 C.ar      1 M7O        -0.0736
     10 C27        10.1540   11.8510    0.7610 C.ar      1 M7O        -0.0729
     11 C29        10.2250   11.6370    2.1520 C.ar      1 M7O        -0.0375
     12 N1          9.6350   10.5000    6.4240 N.am      1 M7O        -0.2563
     13 C6          8.6830   10.1110    8.6620 C.ar      1 M7O        -0.0212
     14 C7          9.4730    9.7520    9.7720 C.ar      1 M7O        -0.0584
     15 C9          9.0290    8.7440   10.7010 C.ar      1 M7O        -0.0685
     16 O18         8.8000   12.0920    5.0010 O.2       1 M7O        -0.3897
     17 N19         9.8340   10.1550    4.1530 N.am      1 M7O        -0.2162
     18 C31         8.6500    8.1570    2.4540 C.2       1 M7O         0.0546
     19 O32         8.7590    7.7740    3.6180 O.co2     1 M7O        -0.5657
     20 O33         7.9730    7.4170    1.5800 O.co2     1 M7O        -0.5657
     21 H1          8.3963   11.8839    7.4150 H         1 M7O         0.0681
     22 H2         10.0523   11.7168    8.0904 H         1 M7O         0.0681
     23 H3          7.4789    7.3228   11.2056 H         1 M7O         0.0559
     24 H4          6.0285    8.0478    9.3133 H         1 M7O         0.0599
     25 H5          6.7716    9.7610    7.6911 H         1 M7O         0.0557
     26 H6          8.7110    8.8999   -0.1468 H         1 M7O         0.0611
     27 H7          9.4992   11.0566   -1.1474 H         1 M7O         0.0495
     28 H8         10.5416   12.7706    0.3378 H         1 M7O         0.0598
     29 H9         10.6482   12.4067    2.7872 H         1 M7O         0.0509
     30 H10        10.1545    9.6501    6.5119 H         1 M7O         0.1880
     31 H11        10.4277   10.2407    9.9292 H         1 M7O         0.0557
     32 H12         9.6561    8.4805   11.5450 H         1 M7O         0.0599
     33 H13        10.2740    9.2989    4.4242 H         1 M7O         0.2274
@<TRIPOS>BOND
     1   12    1 1  
     2    1   13 1  
     3    3    2 ar 
     4    2   15 ar 
     5    4    3 ar 
     6   13    4 ar 
     7    5   12 am 
     8    5   16 2  
     9   17    5 am 
    10    6    7 ar 
    11    6   11 ar 
    12    6   17 1  
    13    7    8 ar 
    14    7   18 1  
    15    8    9 ar 
    16    9   10 ar 
    17   10   11 ar 
    18   13   14 ar 
    19   14   15 ar 
    20   18   19 ar 
    21   18   20 ar 
    22    1   21 1  
    23    1   22 1  
    24    2   23 1  
    25    3   24 1  
    26    4   25 1  
    27    8   26 1  
    28    9   27 1  
    29   10   28 1  
    30   11   29 1  
    31   12   30 1  
    32   14   31 1  
    33   15   32 1  
    34   17   33 1  
@<TRIPOS>SUBSTRUCTURE
     1 M7O         1

