### 
### Created by X-TOOL on Mon Sep 10 21:13:32 2018
### 

@<TRIPOS>MOLECULE
5mte_ligand
   62    62     1     0     0
SMALL
GAST_HUCK


@<TRIPOS>ATOM
      1 C5         -1.2890  -35.5420    9.0370 C.3       1 BB2         0.0585
      2 C3         -0.8030  -36.0420   10.3850 C.2       1 BB2         0.2013
      3 O4          0.0340  -36.9440   10.4950 O.2       1 BB2        -0.3968
      4 N1         -1.3620  -35.4460   11.4270 N.am      1 BB2        -0.1641
      5 O2         -0.9720  -35.8740   12.6530 O.3       1 BB2        -0.2717
      6 C6         -2.3520  -36.5120    8.5130 C.3       1 BB2         0.0654
      7 C12        -2.5640  -36.3800    7.0090 C.2       1 BB2         0.1836
      8 O13        -2.6030  -35.2850    6.4400 O.2       1 BB2        -0.3965
      9 C7         -3.7080  -36.2350    9.2030 C.3       1 BB2        -0.0311
     10 C8         -4.7180  -37.3460    8.8910 C.3       1 BB2        -0.0506
     11 C9         -6.0370  -37.1500    9.6390 C.3       1 BB2        -0.0532
     12 C10        -7.0510  -38.2760    9.3690 C.3       1 BB2        -0.0559
     13 C11        -7.1410  -38.6040    7.8810 C.3       1 BB2        -0.0653
     14 N14        -2.7180  -37.5640    6.4200 N.am      1 BB2        -0.2650
     15 C15        -3.0330  -37.7150    4.9960 C.3       1 BB2         0.1332
     16 C16        -1.8620  -38.2590    4.1450 C.3       1 BB2        -0.0063
     17 C18        -0.6090  -37.3840    4.2350 C.3       1 BB2        -0.0584
     18 C17        -1.4890  -39.6920    4.4680 C.3       1 BB2        -0.0584
     19 C19        -4.2850  -38.6280    4.9720 C.2       1 BB2         0.2047
     20 O20        -4.3600  -39.6370    5.6860 O.2       1 BB2        -0.3943
     21 N21        -5.3370  -38.3290    4.2130 N.am      1 BB2        -0.2661
     22 C22        -6.5550  -39.1560    4.1640 C.3       1 BB2         0.0681
     23 C23        -5.4310  -37.1470    3.3280 C.3       1 BB2         0.0344
     24 C24        -6.7450  -37.3440    2.5730 C.3       1 BB2        -0.0303
     25 C25        -7.5830  -38.2420    3.4860 C.3       1 BB2        -0.0257
     26 C26        -6.3030  -40.4220    3.3220 C.3       1 BB2         0.0673
     27 O27        -7.3660  -41.3530    3.5010 O.3       1 BB2        -0.3927
     28 H1         -0.4462  -35.4988    8.3315 H         1 BB2         0.0529
     29 H2         -1.7254  -34.5385    9.1488 H         1 BB2         0.0529
     30 H3         -2.0375  -34.7172   11.3153 H         1 BB2         0.2216
     31 H4         -1.4335  -35.3807   13.3210 H         1 BB2         0.2490
     32 H5         -2.0294  -37.5389    8.7397 H         1 BB2         0.0563
     33 H6         -4.1060  -35.2750    8.8426 H         1 BB2         0.0294
     34 H7         -3.5545  -36.1831   10.2910 H         1 BB2         0.0294
     35 H8         -4.2838  -38.3130    9.1849 H         1 BB2         0.0267
     36 H9         -4.9203  -37.3483    7.8098 H         1 BB2         0.0267
     37 H10        -6.4811  -36.1945    9.3232 H         1 BB2         0.0265
     38 H11        -5.8272  -37.1179   10.7183 H         1 BB2         0.0265
     39 H12        -8.0418  -37.9575    9.7252 H         1 BB2         0.0263
     40 H13        -6.7374  -39.1778    9.9152 H         1 BB2         0.0263
     41 H14        -7.8730  -39.4105    7.7270 H         1 BB2         0.0230
     42 H15        -6.1553  -38.9291    7.5169 H         1 BB2         0.0230
     43 H16        -7.4597  -37.7089    7.3268 H         1 BB2         0.0230
     44 H17        -2.6139  -38.3893    6.9750 H         1 BB2         0.1883
     45 H18        -3.3008  -36.7302    4.5855 H         1 BB2         0.0802
     46 H19        -2.2016  -38.2397    3.0989 H         1 BB2         0.0343
     47 H20         0.1870  -37.8183    3.6122 H         1 BB2         0.0234
     48 H21        -0.2707  -37.3345    5.2805 H         1 BB2         0.0234
     49 H22        -0.8429  -36.3706    3.8769 H         1 BB2         0.0234
     50 H23        -2.3849  -40.3271    4.4053 H         1 BB2         0.0234
     51 H24        -1.0743  -39.7425    5.4856 H         1 BB2         0.0234
     52 H25        -0.7372  -40.0465    3.7476 H         1 BB2         0.0234
     53 H26        -6.8844  -39.4406    5.1742 H         1 BB2         0.0581
     54 H27        -4.5816  -37.1144    2.6298 H         1 BB2         0.0522
     55 H28        -5.4562  -36.2192    3.9184 H         1 BB2         0.0522
     56 H29        -6.5668  -37.8334    1.6041 H         1 BB2         0.0285
     57 H30        -7.2475  -36.3793    2.4095 H         1 BB2         0.0285
     58 H31        -8.1239  -37.6423    4.2328 H         1 BB2         0.0289
     59 H32        -8.3021  -38.8321    2.8989 H         1 BB2         0.0289
     60 H33        -5.3570  -40.8859    3.6380 H         1 BB2         0.0580
     61 H34        -6.2384  -40.1446    2.2595 H         1 BB2         0.0580
     62 H35        -7.4222  -41.5953    4.4179 H         1 BB2         0.2095
@<TRIPOS>BOND
     1    1    2 1  
     2    1    6 1  
     3    2    3 2  
     4    2    4 am 
     5    4    5 1  
     6    6    7 1  
     7    6    9 1  
     8    7    8 2  
     9    7   14 am 
    10    9   10 1  
    11   10   11 1  
    12   11   12 1  
    13   12   13 1  
    14   14   15 1  
    15   15   16 1  
    16   15   19 1  
    17   16   17 1  
    18   16   18 1  
    19   19   20 2  
    20   19   21 am 
    21   21   22 1  
    22   21   23 1  
    23   22   25 1  
    24   22   26 1  
    25   23   24 1  
    26   24   25 1  
    27   26   27 1  
    28    1   28 1  
    29    1   29 1  
    30    4   30 1  
    31    5   31 1  
    32    6   32 1  
    33    9   33 1  
    34    9   34 1  
    35   10   35 1  
    36   10   36 1  
    37   11   37 1  
    38   11   38 1  
    39   12   39 1  
    40   12   40 1  
    41   13   41 1  
    42   13   42 1  
    43   13   43 1  
    44   14   44 1  
    45   15   45 1  
    46   16   46 1  
    47   17   47 1  
    48   17   48 1  
    49   17   49 1  
    50   18   50 1  
    51   18   51 1  
    52   18   52 1  
    53   22   53 1  
    54   23   54 1  
    55   23   55 1  
    56   24   56 1  
    57   24   57 1  
    58   25   58 1  
    59   25   59 1  
    60   26   60 1  
    61   26   61 1  
    62   27   62 1  
@<TRIPOS>SUBSTRUCTURE
     1 BB2         1

