### 
### Created by X-TOOL on Mon Sep 10 21:13:31 2018
### 

@<TRIPOS>MOLECULE
5mts_ligand
   50    53     1     0     0
SMALL
GAST_HUCK


@<TRIPOS>ATOM
      1 N1        -39.1650    1.2540   12.4340 N.pl3     1 XKA        -0.2516
      2 C4        -37.2040   -0.6800   10.1100 C.3       1 XKA         0.1119
      3 C5        -36.9080   -0.3140   11.5960 C.3       1 XKA         0.1128
      4 C6        -35.5180   -0.7610   12.1200 C.3       1 XKA         0.0730
      5 C10       -40.1400   -0.8160   24.8240 C.ar      1 XKA         0.0439
      6 C13       -38.8000    1.3380   13.7320 C.2       1 XKA         0.1903
      7 C15       -37.4350    1.7750   15.4100 C.2       1 XKA        -0.0160
      8 C20       -38.9200    0.4650   18.5420 C.2       1 XKA         0.0997
      9 C1        -38.2210    1.7290   11.4730 C.3       1 XKA         0.1755
     10 C2        -38.6210    1.4800    9.9990 C.3       1 XKA         0.1318
     11 O2        -37.7140    2.1680    9.1330 O.3       1 XKA        -0.3843
     12 C3        -38.5670   -0.0380    9.6780 C.3       1 XKA         0.1139
     13 O3        -38.7850   -0.1980    8.2790 O.3       1 XKA        -0.3864
     14 O4        -37.0990   -2.1050    9.8950 O.3       1 XKA        -0.3865
     15 O5        -36.9400    1.1180   11.6960 O.3       1 XKA        -0.3427
     16 O6        -34.4350   -0.1680   11.3930 O.3       1 XKA        -0.3924
     17 S14       -39.8450    0.9070   15.0330 S.3       1 XKA         0.0281
     18 C16       -38.5430    1.3260   16.1100 C.2       1 XKA         0.0860
     19 N17       -37.5950    1.7720   14.1150 N.2       1 XKA        -0.3051
     20 C18       -38.5180    1.3220   17.5140 C.2       1 XKA         0.1508
     21 O19       -37.9590    2.3370   17.9970 O.2       1 XKA        -0.3960
     22 N02       -39.5310   -1.2970   19.8220 N.2       1 XKA        -0.2821
     23 S02       -38.9660    1.2110   20.1210 S.3       1 XKA         0.0048
     24 N03       -39.9470    0.5790   22.9060 N.ar      1 XKA        -0.2590
     25 N04       -39.8660   -1.9120   24.0610 N.ar      1 XKA        -0.2676
     26 C06       -39.2410   -0.8960   18.5660 C.2       1 XKA         0.0303
     27 C07       -39.4340   -0.3300   20.7550 C.2       1 XKA         0.1418
     28 C08       -39.6770   -0.5130   22.1230 C.ar      1 XKA         0.1228
     29 C09       -40.1780    0.4650   24.2320 C.ar      1 XKA         0.0437
     30 C11       -39.6310   -1.7970   22.7290 C.ar      1 XKA         0.0567
     31 C12       -39.3090   -1.8500   17.4500 C.3       1 XKA        -0.0209
     32 H1        -40.0770    0.8673   12.1519 H         1 XKA         0.1951
     33 H2        -36.4234   -0.2137    9.4910 H         1 XKA         0.0647
     34 H3        -37.6872   -0.7608   12.2309 H         1 XKA         0.0647
     35 H4        -35.4438   -1.8549   12.0313 H         1 XKA         0.0584
     36 H5        -35.4313   -0.4721   13.1778 H         1 XKA         0.0584
     37 H6        -40.3287   -0.9282   25.8855 H         1 XKA         0.0939
     38 H7        -36.5160    2.1002   15.8954 H         1 XKA         0.0647
     39 H8        -38.1237    2.8153   11.6162 H         1 XKA         0.0909
     40 H9        -39.6425    1.8526    9.8324 H         1 XKA         0.0669
     41 H10       -37.9621    2.0133    8.2290 H         1 XKA         0.2101
     42 H11       -39.3746   -0.5451   10.2264 H         1 XKA         0.0648
     43 H12       -39.6357    0.1570    8.0496 H         1 XKA         0.2100
     44 H13       -36.2454   -2.4056   10.1838 H         1 XKA         0.2100
     45 H14       -34.4952   -0.4170   10.4783 H         1 XKA         0.2095
     46 H15       -40.3891    1.3429   24.8318 H         1 XKA         0.0934
     47 H16       -39.4105   -2.6758   22.1339 H         1 XKA         0.0968
     48 H17       -39.5934   -2.8415   17.8321 H         1 XKA         0.0402
     49 H18       -38.3255   -1.9136   16.9615 H         1 XKA         0.0402
     50 H19       -40.0590   -1.5090   16.7212 H         1 XKA         0.0402
@<TRIPOS>BOND
     1    6    1 1  
     2    1    9 1  
     3    3    2 1  
     4   12    2 1  
     5    2   14 1  
     6    3    4 1  
     7   15    3 1  
     8    4   16 1  
     9    5   25 ar 
    10   29    5 ar 
    11   17    6 1  
    12    6   19 2  
    13   18    7 2  
    14    7   19 1  
    15    8   20 1  
    16   23    8 1  
    17    8   26 2  
    18    9   10 1  
    19    9   15 1  
    20   10   11 1  
    21   10   12 1  
    22   12   13 1  
    23   18   17 1  
    24   20   18 1  
    25   20   21 2  
    26   22   26 1  
    27   27   22 2  
    28   27   23 1  
    29   28   24 ar 
    30   24   29 ar 
    31   25   30 ar 
    32   26   31 1  
    33   27   28 1  
    34   28   30 ar 
    35    1   32 1  
    36    2   33 1  
    37    3   34 1  
    38    4   35 1  
    39    4   36 1  
    40    5   37 1  
    41    7   38 1  
    42    9   39 1  
    43   10   40 1  
    44   11   41 1  
    45   12   42 1  
    46   13   43 1  
    47   14   44 1  
    48   16   45 1  
    49   29   46 1  
    50   30   47 1  
    51   31   48 1  
    52   31   49 1  
    53   31   50 1  
@<TRIPOS>SUBSTRUCTURE
     1 XKA         1

