### 
### Created by X-TOOL on Mon Sep 10 21:13:32 2018
### 

@<TRIPOS>MOLECULE
5mtx_ligand
   76    81     1     0     0
SMALL
GAST_HUCK


@<TRIPOS>ATOM
      1 CAH        20.3180   12.0190  -27.2630 C.3       1 FJI        -0.0078
      2 CBA        19.5430   12.8650  -28.1830 C.3       1 FJI         0.0878
      3 OBN        19.3750   12.2940  -29.5430 O.3       1 FJI        -0.3693
      4 CBI        20.0380   11.0900  -29.9790 C.3       1 FJI         0.0878
      5 CBB        19.7790   10.0810  -28.8680 C.3       1 FJI        -0.0078
      6 NAC        20.4170   10.5700  -27.5990 N.4       1 FJI         0.2399
      7 CBG        21.8500   10.2330  -27.3980 C.3       1 FJI        -0.0112
      8 CBH        22.2210    8.7710  -27.6490 C.3       1 FJI         0.0702
      9 NAA        21.2900    7.8900  -26.8790 N.am      1 FJI        -0.2819
     10 CAX        21.0600    6.6460  -27.2440 C.2       1 FJI         0.2013
     11 OBP        21.6690    6.1810  -28.2100 O.2       1 FJI        -0.3877
     12 CBE        20.1420    5.8550  -26.4390 C.ar      1 FJI         0.0485
     13 CAE        20.2450    4.4400  -26.4610 C.ar      1 FJI        -0.0301
     14 CBC        19.3880    3.6320  -25.6890 C.ar      1 FJI         0.0397
     15 CAP        19.5770    2.2300  -25.7320 C.2       1 FJI         0.1424
     16 OBQ        19.8830    1.7490  -26.8250 O.2       1 FJI        -0.3843
     17 CAG        19.1810    6.4530  -25.6220 C.ar      1 FJI        -0.0441
     18 CAW        18.3200    5.6300  -24.8530 C.ar      1 FJI        -0.0460
     19 CAO        18.4180    4.2350  -24.9080 C.ar      1 FJI         0.0107
     20 CBD        17.5540    3.4910  -24.0660 C.3       1 FJI         0.1113
     21 OBO        18.4270    2.9860  -22.9650 O.3       1 FJI        -0.3011
     22 CAF        19.2140    1.8970  -23.2680 C.ar      1 FJI         0.1041
     23 CAL        19.4900    1.1740  -22.1300 C.ar      1 FJI        -0.0056
     24 CAK        19.6960    1.4990  -24.5260 C.ar      1 FJI         0.0493
     25 CAJ        20.3780    0.2590  -24.5350 C.ar      1 FJI        -0.0613
     26 CAQ        20.6630   -0.4870  -23.3920 C.ar      1 FJI        -0.0444
     27 CAV        20.2400   -0.0230  -22.1550 C.ar      1 FJI         0.0535
     28 NAB        20.4360   -0.6610  -20.9390 N.pl3     1 FJI        -0.2795
     29 CAN        21.1440   -1.8230  -20.6860 C.ar      1 FJI         0.0414
     30 CBF        20.5610   -2.7630  -19.7840 C.ar      1 FJI        -0.0213
     31 CAS        22.4210   -2.1270  -21.2260 C.ar      1 FJI        -0.0562
     32 CAU        23.0800   -3.3050  -20.8640 C.ar      1 FJI        -0.0510
     33 CBL        22.5050   -4.1590  -19.9700 C.ar      1 FJI         0.1387
     34 FBR        23.1270   -5.2450  -19.6530 F         1 FJI        -0.2033
     35 CAI        21.2150   -3.8970  -19.4160 C.ar      1 FJI         0.0896
     36 NAD        20.7520   -4.7640  -18.4970 N.am      1 FJI        -0.2350
     37 CAM        19.4500   -5.2030  -18.4940 C.2       1 FJI         0.2313
     38 OBM        18.6100   -4.8730  -19.3210 O.2       1 FJI        -0.3735
     39 CBK        19.0380   -6.0630  -17.4670 C.ar      1 FJI         0.0558
     40 CAR        19.3030   -5.7840  -16.1430 C.ar      1 FJI        -0.0415
     41 CAY        18.8760   -6.6020  -15.0940 C.ar      1 FJI        -0.0562
     42 CAZ        18.1510   -7.7530  -15.3830 C.ar      1 FJI        -0.0576
     43 CAT        17.8860   -8.0750  -16.7380 C.ar      1 FJI        -0.0562
     44 CBJ        18.3040   -7.2170  -17.7910 C.ar      1 FJI        -0.0415
     45 H1         19.8544   12.0983  -26.2686 H         1 FJI         0.0837
     46 H2         21.3410   12.4214  -27.2238 H         1 FJI         0.0837
     47 H3         20.0572   13.8329  -28.2769 H         1 FJI         0.0613
     48 H4         18.5443   13.0209  -27.7491 H         1 FJI         0.0613
     49 H5         21.1173   11.2640  -30.1008 H         1 FJI         0.0613
     50 H6         19.6138   10.7365  -30.9304 H         1 FJI         0.0613
     51 H7         20.2111    9.1084  -29.1460 H         1 FJI         0.0837
     52 H8         18.6951    9.9708  -28.7162 H         1 FJI         0.0837
     53 H9         19.9093   10.0843  -26.8762 H         1 FJI         0.2036
     54 H10        22.1133   10.4762  -26.3581 H         1 FJI         0.0834
     55 H11        22.4445   10.8563  -28.0822 H         1 FJI         0.0834
     56 H12        23.2549    8.5916  -27.3191 H         1 FJI         0.0572
     57 H13        22.1349    8.5484  -28.7228 H         1 FJI         0.0572
     58 H14        20.8315    8.2540  -26.0682 H         1 FJI         0.1845
     59 H15        20.9982    3.9717  -27.0843 H         1 FJI         0.0705
     60 H16        19.0942    7.5325  -25.5761 H         1 FJI         0.0687
     61 H17        17.5747    6.0881  -24.2129 H         1 FJI         0.0582
     62 H18        17.1040    2.6526  -24.6179 H         1 FJI         0.0807
     63 H19        16.7578    4.1346  -23.6636 H         1 FJI         0.0807
     64 H20        19.1179    1.5366  -21.1786 H         1 FJI         0.0460
     65 H21        20.6994   -0.1362  -25.4919 H         1 FJI         0.0613
     66 H22        21.2095   -1.4200  -23.4692 H         1 FJI         0.0458
     67 H23        19.9993   -0.2132  -20.1206 H         1 FJI         0.2085
     68 H24        19.5731   -2.5682  -19.3826 H         1 FJI         0.0398
     69 H25        22.8880   -1.4411  -21.9235 H         1 FJI         0.0399
     70 H26        24.0473   -3.5396  -21.2935 H         1 FJI         0.0535
     71 H27        21.3767   -5.1003  -17.7923 H         1 FJI         0.2240
     72 H28        19.8680   -4.8899  -15.9053 H         1 FJI         0.0669
     73 H29        19.1070   -6.3426  -14.0672 H         1 FJI         0.0629
     74 H30        17.7941   -8.3938  -14.5849 H         1 FJI         0.0652
     75 H31        17.3560   -8.9905  -16.9747 H         1 FJI         0.0629
     76 H32        18.0619   -7.4477  -18.8221 H         1 FJI         0.0669
@<TRIPOS>BOND
     1    1    2 1  
     2    1    6 1  
     3    2    3 1  
     4    3    4 1  
     5    4    5 1  
     6    5    6 1  
     7    6    7 1  
     8    7    8 1  
     9    8    9 1  
    10    9   10 am 
    11   10   11 2  
    12   10   12 1  
    13   12   13 ar 
    14   12   17 ar 
    15   13   14 ar 
    16   14   15 1  
    17   14   19 ar 
    18   15   16 2  
    19   15   24 1  
    20   17   18 ar 
    21   18   19 ar 
    22   19   20 1  
    23   20   21 1  
    24   21   22 1  
    25   22   23 ar 
    26   22   24 ar 
    27   23   27 ar 
    28   24   25 ar 
    29   25   26 ar 
    30   26   27 ar 
    31   27   28 1  
    32   28   29 1  
    33   29   30 ar 
    34   29   31 ar 
    35   30   35 ar 
    36   31   32 ar 
    37   32   33 ar 
    38   33   34 1  
    39   33   35 ar 
    40   35   36 1  
    41   36   37 am 
    42   37   38 2  
    43   37   39 1  
    44   39   40 ar 
    45   39   44 ar 
    46   40   41 ar 
    47   41   42 ar 
    48   42   43 ar 
    49   43   44 ar 
    50    1   45 1  
    51    1   46 1  
    52    2   47 1  
    53    2   48 1  
    54    4   49 1  
    55    4   50 1  
    56    5   51 1  
    57    5   52 1  
    58    6   53 1  
    59    7   54 1  
    60    7   55 1  
    61    8   56 1  
    62    8   57 1  
    63    9   58 1  
    64   13   59 1  
    65   17   60 1  
    66   18   61 1  
    67   20   62 1  
    68   20   63 1  
    69   23   64 1  
    70   25   65 1  
    71   26   66 1  
    72   28   67 1  
    73   30   68 1  
    74   31   69 1  
    75   32   70 1  
    76   36   71 1  
    77   40   72 1  
    78   41   73 1  
    79   42   74 1  
    80   43   75 1  
    81   44   76 1  
@<TRIPOS>SUBSTRUCTURE
     1 FJI         1

