### 
### Created by X-TOOL on Mon Sep 10 21:13:34 2018
### 

@<TRIPOS>MOLECULE
5mty_ligand
   62    66     1     0     0
SMALL
GAST_HUCK


@<TRIPOS>ATOM
      1 CBB        19.4160   -6.5770  -16.7160 C.2       1 HB9        -0.0546
      2 CBC        18.8140   -7.6670  -16.1930 C.2       1 HB9        -0.0665
      3 CBD        17.8500   -8.1690  -16.9480 C.2       1 HB9         0.0010
      4 SBH        17.7890   -7.2210  -18.2100 S.3       1 HB9        -0.0255
      5 CAS        18.9310   -6.2230  -17.8900 C.2       1 HB9         0.1054
      6 CAR        19.3300   -5.1930  -18.6440 C.2       1 HB9         0.2326
      7 OBA        18.4930   -4.5880  -19.2880 O.2       1 HB9        -0.3808
      8 NAQ        20.6600   -4.8810  -18.6490 N.am      1 HB9        -0.2387
      9 CAK        21.1360   -3.8570  -19.4020 C.ar      1 HB9         0.0855
     10 CAJ        20.4880   -2.6680  -19.7200 C.ar      1 HB9        -0.0222
     11 CAL        22.4230   -4.0350  -19.8880 C.ar      1 HB9         0.1373
     12 FAP        23.0030   -5.0790  -19.6060 F         1 HB9        -0.2042
     13 CAM        23.0550   -3.0720  -20.6750 C.ar      1 HB9        -0.0173
     14 CAN        22.3930   -1.8940  -20.9810 C.ar      1 HB9         0.1357
     15 FAO        22.9920   -0.9970  -21.7450 F         1 HB9        -0.2043
     16 CAI        21.0780   -1.7040  -20.5130 C.ar      1 HB9         0.0761
     17 NAH        20.4010   -0.5620  -20.7430 N.pl3     1 HB9        -0.2783
     18 CAW        20.2480    0.0630  -21.9390 C.ar      1 HB9         0.0549
     19 CAX        19.5410    1.2770  -21.9070 C.ar      1 HB9        -0.0328
     20 CAV        20.7380   -0.3890  -23.1870 C.ar      1 HB9        -0.0406
     21 CAA        20.5130    0.3610  -24.3300 C.ar      1 HB9        -0.0600
     22 CBG        19.7960    1.5540  -24.2980 C.ar      1 HB9         0.0217
     23 CBF        19.6620    2.2330  -25.5290 C.2       1 HB9         0.1428
     24 OBE        19.6660    1.6470  -26.6000 O.2       1 HB9        -0.3820
     25 CBI        19.2950    2.0200  -23.0720 C.ar      1 HB9        -0.0323
     26 CBJ        18.5190    3.2100  -22.8190 C.3       1 HB9        -0.0070
     27 CBK        17.5940    3.6330  -24.0070 C.3       1 HB9        -0.0030
     28 CBL        18.4690    4.2770  -24.8660 C.ar      1 HB9        -0.0176
     29 CAT        18.3720    5.6750  -24.9250 C.ar      1 HB9        -0.0484
     30 CAU        19.2540    6.3790  -25.7260 C.ar      1 HB9        -0.0441
     31 CBM        19.4630    3.6080  -25.5610 C.ar      1 HB9         0.0380
     32 CAZ        20.3640    4.3120  -26.3280 C.ar      1 HB9        -0.0301
     33 CAY        20.2520    5.6950  -26.4250 C.ar      1 HB9         0.0485
     34 CAB        21.1710    6.3880  -27.2030 C.2       1 HB9         0.2012
     35 OAD        21.6210    5.9270  -28.2460 O.2       1 HB9        -0.3877
     36 NAC        21.6450    7.5280  -26.6720 N.am      1 HB9        -0.2848
     37 CAE        22.6770    8.2810  -27.3690 C.3       1 HB9         0.0534
     38 CAF        22.4830    9.7550  -27.0740 C.3       1 HB9         0.0642
     39 OAG        21.3790   10.2090  -27.8780 O.3       1 HB9        -0.3930
     40 H1         20.2231   -6.0427  -16.2169 H         1 HB9         0.0515
     41 H2         19.0974   -8.0958  -15.2329 H         1 HB9         0.0437
     42 H3         17.2340   -9.0436  -16.7440 H         1 HB9         0.0801
     43 H4         21.2929   -5.4156  -18.0890 H         1 HB9         0.2221
     44 H5         19.4903   -2.4931  -19.3338 H         1 HB9         0.0390
     45 H6         24.0591   -3.2445  -21.0453 H         1 HB9         0.0523
     46 H7         19.9538   -0.1176  -19.9285 H         1 HB9         0.2077
     47 H8         19.1758    1.6497  -20.9569 H         1 HB9         0.0476
     48 H9         21.2886   -1.3207  -23.2488 H         1 HB9         0.0489
     49 H10        20.9066    0.0087  -25.2766 H         1 HB9         0.0621
     50 H11        19.2132    4.0373  -22.6101 H         1 HB9         0.0463
     51 H12        17.8874    3.0296  -21.9367 H         1 HB9         0.0463
     52 H13        16.7999    4.3141  -23.6672 H         1 HB9         0.0474
     53 H14        17.1416    2.7537  -24.4889 H         1 HB9         0.0474
     54 H15        17.6157    6.1974  -24.3504 H         1 HB9         0.0582
     55 H16        19.1710    7.4565  -25.8108 H         1 HB9         0.0687
     56 H17        21.1564    3.7913  -26.8534 H         1 HB9         0.0705
     57 H18        21.2886    7.8587  -25.7981 H         1 HB9         0.1843
     58 H19        22.5958    8.1061  -28.4519 H         1 HB9         0.0542
     59 H20        23.6695    7.9607  -27.0192 H         1 HB9         0.0542
     60 H21        23.3937   10.3144  -27.3343 H         1 HB9         0.0577
     61 H22        22.2565    9.8991  -26.0073 H         1 HB9         0.0577
     62 H23        21.2300   11.1332  -27.7164 H         1 HB9         0.2095
@<TRIPOS>BOND
     1    1    2 1  
     2    1    5 2  
     3    2    3 2  
     4    3    4 1  
     5    4    5 1  
     6    5    6 1  
     7    6    7 2  
     8    6    8 am 
     9    8    9 1  
    10    9   10 ar 
    11    9   11 ar 
    12   10   16 ar 
    13   11   12 1  
    14   11   13 ar 
    15   13   14 ar 
    16   14   15 1  
    17   14   16 ar 
    18   16   17 1  
    19   17   18 1  
    20   18   19 ar 
    21   18   20 ar 
    22   19   25 ar 
    23   20   21 ar 
    24   21   22 ar 
    25   22   23 1  
    26   22   25 ar 
    27   23   24 2  
    28   23   31 1  
    29   25   26 1  
    30   26   27 1  
    31   27   28 1  
    32   28   29 ar 
    33   28   31 ar 
    34   29   30 ar 
    35   30   33 ar 
    36   31   32 ar 
    37   32   33 ar 
    38   33   34 1  
    39   34   35 2  
    40   34   36 am 
    41   36   37 1  
    42   37   38 1  
    43   38   39 1  
    44    1   40 1  
    45    2   41 1  
    46    3   42 1  
    47    8   43 1  
    48   10   44 1  
    49   13   45 1  
    50   17   46 1  
    51   19   47 1  
    52   20   48 1  
    53   21   49 1  
    54   26   50 1  
    55   26   51 1  
    56   27   52 1  
    57   27   53 1  
    58   29   54 1  
    59   30   55 1  
    60   32   56 1  
    61   36   57 1  
    62   37   58 1  
    63   37   59 1  
    64   38   60 1  
    65   38   61 1  
    66   39   62 1  
@<TRIPOS>SUBSTRUCTURE
     1 HB9         1

