### 
### Created by X-TOOL on Wed Jan  1 15:39:38 2020
### 

@<TRIPOS>MOLECULE
5muc_ligand
   23    23     1     0     0
SMALL
GAST_HUCK


@<TRIPOS>ATOM
      1 O3        -19.2950   -8.2950  -11.2880 O.3       1 AH2        -0.3865
      2 C4        -20.8850   -6.4970  -11.5280 C.3       1 AH2         0.1117
      3 C5        -21.2840   -5.3280  -12.4220 C.3       1 AH2         0.1100
      4 O4        -22.0000   -7.3650  -11.3580 O.3       1 AH2        -0.3865
      5 C6        -22.4260   -4.5110  -11.8680 C.3       1 AH2         0.0729
      6 O5        -20.1440   -4.4720  -12.5160 O.3       1 AH2        -0.3690
      7 O6        -22.1360   -4.0270  -10.5650 O.3       1 AH2        -0.3924
      8 C3        -19.7230   -7.2520  -12.1570 C.3       1 AH2         0.1115
      9 C2        -18.5590   -6.3170  -12.4480 C.3       1 AH2         0.1068
     10 O2        -17.9530   -5.8990  -11.2240 O.3       1 AH2        -0.3869
     11 C1        -19.0590   -5.1030  -13.2070 C.3       1 AH2         0.0767
     12 H1        -18.5700   -8.7611  -11.6876 H         1 AH2         0.2100
     13 H2        -20.5741   -6.1123  -10.5455 H         1 AH2         0.0647
     14 H3        -21.5621   -5.7088  -13.4158 H         1 AH2         0.0646
     15 H4        -22.7142   -6.8859  -10.9544 H         1 AH2         0.2100
     16 H5        -23.3269   -5.1405  -11.8230 H         1 AH2         0.0584
     17 H6        -22.6095   -3.6553  -12.5344 H         1 AH2         0.0584
     18 H7        -22.8724   -3.5185  -10.2461 H         1 AH2         0.2095
     19 H8        -20.0638   -7.6953  -13.1043 H         1 AH2         0.0647
     20 H9        -17.8133   -6.8462  -13.0594 H         1 AH2         0.0643
     21 H10       -17.6339   -6.6603  -10.7537 H         1 AH2         0.2100
     22 H11       -18.2347   -4.3826  -13.3150 H         1 AH2         0.0586
     23 H12       -19.4029   -5.4189  -14.2030 H         1 AH2         0.0586
@<TRIPOS>BOND
     1    8    1 1  
     2    2    3 1  
     3    2    4 1  
     4    2    8 1  
     5    3    5 1  
     6    3    6 1  
     7    5    7 1  
     8    6   11 1  
     9    8    9 1  
    10    9   10 1  
    11    9   11 1  
    12    1   12 1  
    13    2   13 1  
    14    3   14 1  
    15    4   15 1  
    16    5   16 1  
    17    5   17 1  
    18    7   18 1  
    19    8   19 1  
    20    9   20 1  
    21   10   21 1  
    22   11   22 1  
    23   11   23 1  
@<TRIPOS>SUBSTRUCTURE
     1 AH2         1

