### 
### Created by X-TOOL on Mon Sep 10 21:13:34 2018
### 

@<TRIPOS>MOLECULE
5mw2_ligand
   63    66     1     0     0
SMALL
GAST_HUCK


@<TRIPOS>ATOM
      1 C4          7.6070   13.4180   13.7020 C.2       1 U52         0.2071
      2 C5          8.6550   14.4780   13.9480 C.3       1 U52         0.1604
      3 C8         12.1690   17.1950    9.7150 C.3       1 U52         0.0463
      4 C10        10.6870   15.9800   11.2250 C.2       1 U52         0.2535
      5 C13        13.5380   19.5080   13.0090 C.ar      1 U52        -0.0505
      6 C15        12.1260   17.7600   12.1420 C.ar      1 U52         0.0713
      7 C17        12.0760   18.3060   14.5000 C.ar      1 U52        -0.0473
      8 C22        14.7760   20.0100   15.9410 C.ar      1 U52         0.1443
      9 C24        17.0000   19.4220   15.8680 C.ar      1 U52         0.1765
     10 C26        16.2550   20.4630   17.7490 C.ar      1 U52         0.0136
     11 C28        17.8360   18.3050   13.8240 C.3       1 U52         0.0362
     12 C1          6.4050   11.4960   14.6100 C.3       1 U52         0.0196
     13 N2          7.3690   12.5770   14.7020 N.am      1 U52        -0.2878
     14 O3          7.0150   13.3660   12.6260 O.2       1 U52        -0.3941
     15 O6          9.2210   14.7950   12.6570 O.3       1 U52        -0.2878
     16 O7         10.2850   15.3250   10.2680 O.2       1 U52        -0.3922
     17 N9         11.6410   16.9750   11.0630 N.am      1 U52        -0.2223
     18 C11        10.1590   15.7850   12.5960 C.2       1 U52         0.1693
     19 C12        10.6080   16.5170   13.6190 C.2       1 U52        -0.0268
     20 C14        13.1080   18.7310   11.9460 C.ar      1 U52        -0.0462
     21 C16        11.6060   17.5350   13.4310 C.ar      1 U52        -0.0163
     22 C18        13.0320   19.2950   14.2890 C.ar      1 U52         0.0481
     23 N19        13.5290   20.0280   15.3850 N.pl3     1 U52        -0.2633
     24 N20        18.0280   18.8540   15.1700 N.pl3     1 U52        -0.2778
     25 CL1        13.6980   21.2570   18.1350 Cl        1 U52        -0.0758
     26 N23        15.7860   19.4270   15.2720 N.ar      1 U52        -0.2384
     27 N25        17.2860   19.9130   17.0920 N.ar      1 U52        -0.2725
     28 C27        14.9790   20.5260   17.2210 C.ar      1 U52         0.0968
     29 C29        18.5460   16.9760   13.5470 C.3       1 U52        -0.0228
     30 C30        20.0170   17.0840   13.9630 C.3       1 U52        -0.0441
     31 C31        20.1380   17.4500   15.4450 C.3       1 U52        -0.0228
     32 C32        19.3870   18.7580   15.7100 C.3       1 U52         0.0362
     33 C33        18.4140   16.5870   12.0780 C.3       1 U52        -0.0605
     34 C34        21.5970   17.5580   15.8730 C.3       1 U52        -0.0605
     35 H1          9.4348   14.0936   14.6219 H         1 U52         0.0864
     36 H2          8.1948   15.3729   14.3923 H         1 U52         0.0864
     37 H3         11.6818   16.5025    9.0129 H         1 U52         0.0564
     38 H4         13.2544   17.0162    9.7126 H         1 U52         0.0564
     39 H5         11.9674   18.2315    9.4069 H         1 U52         0.0564
     40 H6         14.2733   20.2871   12.8436 H         1 U52         0.0496
     41 H7         11.6929   18.1317   15.4990 H         1 U52         0.0456
     42 H8         16.4293   20.8758   18.7361 H         1 U52         0.0851
     43 H9         18.2073   19.0451   13.0998 H         1 U52         0.0529
     44 H10        16.7576   18.1515   13.6711 H         1 U52         0.0529
     45 H11         6.3855   10.9403   15.5591 H         1 U52         0.0484
     46 H12         6.6921   10.8171   13.7935 H         1 U52         0.0484
     47 H13         5.4067   11.9112   14.4077 H         1 U52         0.0484
     48 H14         7.8763   12.6937   15.5558 H         1 U52         0.1848
     49 H15        10.2097   16.3391   14.6168 H         1 U52         0.0476
     50 H16        13.5352   18.8777   10.9606 H         1 U52         0.0487
     51 H17        12.8560   20.6684   15.8300 H         1 U52         0.2130
     52 H18        18.0695   16.1920   14.1539 H         1 U52         0.0318
     53 H19        20.5065   17.8618   13.3585 H         1 U52         0.0272
     54 H20        20.5129   16.1177   13.7887 H         1 U52         0.0272
     55 H21        19.6671   16.6525   16.0386 H         1 U52         0.0318
     56 H22        19.3235   18.8916   16.8000 H         1 U52         0.0529
     57 H23        19.9782   19.5767   15.2740 H         1 U52         0.0529
     58 H24        17.3491   16.5179   11.8113 H         1 U52         0.0233
     59 H25        18.8975   15.6131   11.9117 H         1 U52         0.0233
     60 H26        18.9001   17.3495   11.4517 H         1 U52         0.0233
     61 H27        22.1097   16.6060   15.6711 H         1 U52         0.0233
     62 H28        21.6480   17.7809   16.9490 H         1 U52         0.0233
     63 H29        22.0862   18.3650   15.3078 H         1 U52         0.0233
@<TRIPOS>BOND
     1    2    1 1  
     2    1   13 am 
     3    1   14 2  
     4   15    2 1  
     5   17    3 1  
     6    4   16 2  
     7   17    4 am 
     8   18    4 1  
     9    5   20 ar 
    10   22    5 ar 
    11    6   17 1  
    12   20    6 ar 
    13   21    6 ar 
    14    7   21 ar 
    15   22    7 ar 
    16   23    8 1  
    17    8   26 ar 
    18    8   28 ar 
    19    9   24 1  
    20   26    9 ar 
    21    9   27 ar 
    22   10   27 ar 
    23   28   10 ar 
    24   24   11 1  
    25   11   29 1  
    26   13   12 1  
    27   18   15 1  
    28   19   18 2  
    29   21   19 1  
    30   22   23 1  
    31   24   32 1  
    32   28   25 1  
    33   29   30 1  
    34   29   33 1  
    35   30   31 1  
    36   31   32 1  
    37   31   34 1  
    38    2   35 1  
    39    2   36 1  
    40    3   37 1  
    41    3   38 1  
    42    3   39 1  
    43    5   40 1  
    44    7   41 1  
    45   10   42 1  
    46   11   43 1  
    47   11   44 1  
    48   12   45 1  
    49   12   46 1  
    50   12   47 1  
    51   13   48 1  
    52   19   49 1  
    53   20   50 1  
    54   23   51 1  
    55   29   52 1  
    56   30   53 1  
    57   30   54 1  
    58   31   55 1  
    59   32   56 1  
    60   32   57 1  
    61   33   58 1  
    62   33   59 1  
    63   33   60 1  
    64   34   61 1  
    65   34   62 1  
    66   34   63 1  
@<TRIPOS>SUBSTRUCTURE
     1 U52         1

