### 
### Created by X-TOOL on Tue Oct 16 15:17:44 2018
### 

@<TRIPOS>MOLECULE
5mw3_ligand
   32    34     1     0     0
SMALL
GAST_HUCK


@<TRIPOS>ATOM
      1 C2         37.0260    3.4140   18.4200 C.ar      1 MOL         0.0500
      2 C4         35.3170    1.8200   18.9780 C.ar      1 MOL         0.1214
      3 C5         34.4300    2.9170   19.1600 C.ar      1 MOL         0.0435
      4 C6         34.8930    4.2180   18.9790 C.ar      1 MOL         0.1355
      5 C8         32.7820    4.4680   19.5560 C.2       1 MOL         0.0249
      6 N10        34.9980    0.4980   19.1430 N.pl3     1 MOL        -0.2824
      7 C11        33.6350   -0.0510   19.0760 C.3       1 MOL         0.0334
      8 C12        33.2630   -0.4230   20.5480 C.3       1 MOL        -0.0269
      9 C13        34.2730   -1.4820   21.0980 C.3       1 MOL        -0.0059
     10 C14        35.7680   -1.0380   20.9330 C.3       1 MOL        -0.0031
     11 N1         36.6020    2.1390   18.6420 N.ar      1 MOL        -0.2730
     12 N3         36.1810    4.4540   18.6160 N.ar      1 MOL        -0.2772
     13 N7         33.8950    5.0830   19.2410 N.pl3     1 MOL        -0.2665
     14 C9         32.9820    3.1420   19.5390 C.2       1 MOL        -0.0545
     15 C15        36.0440   -0.4690   19.5090 C.3       1 MOL         0.0756
     16 N16        36.7030   -2.1610   21.1930 N.4       1 MOL         0.2222
     17 H1         38.0410    3.5966   18.0860 H         1 MOL         0.0975
     18 H2         31.8393    4.9581   19.7949 H         1 MOL         0.0922
     19 H3         33.6115   -0.9451   18.4357 H         1 MOL         0.0528
     20 H4         32.9363    0.7013   18.6811 H         1 MOL         0.0528
     21 H5         32.2458   -0.8410   20.5731 H         1 MOL         0.0287
     22 H6         33.3038    0.4803   21.1744 H         1 MOL         0.0287
     23 H7         34.1244   -2.4258   20.5530 H         1 MOL         0.0321
     24 H8         34.0692   -1.6400   22.1673 H         1 MOL         0.0321
     25 H9         35.9670   -0.2441   21.6680 H         1 MOL         0.0871
     26 H10        33.9948    6.1073   19.1988 H         1 MOL         0.2318
     27 H11        32.2425    2.3727   19.7567 H         1 MOL         0.0311
     28 H12        37.0230    0.0325   19.5005 H         1 MOL         0.0585
     29 H13        36.0482   -1.2940   18.7815 H         1 MOL         0.0585
     30 H14        36.5310   -2.5352   22.1130 H         1 MOL         0.1997
     31 H15        37.6525   -1.8272   21.1381 H         1 MOL         0.1997
     32 H16        36.5604   -2.8833   20.5045 H         1 MOL         0.1997
@<TRIPOS>BOND
     1   11    1 ar 
     2    1   12 ar 
     3    2    3 ar 
     4    2    6 1  
     5    2   11 ar 
     6    3    4 ar 
     7    3   14 1  
     8    4   12 ar 
     9    4   13 1  
    10   13    5 1  
    11    5   14 2  
    12    6    7 1  
    13    6   15 1  
    14    7    8 1  
    15    8    9 1  
    16    9   10 1  
    17   10   15 1  
    18   10   16 1  
    19    1   17 1  
    20    5   18 1  
    21    7   19 1  
    22    7   20 1  
    23    8   21 1  
    24    8   22 1  
    25    9   23 1  
    26    9   24 1  
    27   10   25 1  
    28   13   26 1  
    29   14   27 1  
    30   15   28 1  
    31   15   29 1  
    32   16   30 1  
    33   16   31 1  
    34   16   32 1  
@<TRIPOS>SUBSTRUCTURE
     1 MOL         1

