### 
### Created by X-TOOL on Mon Sep 10 21:13:32 2018
### 

@<TRIPOS>MOLECULE
5mw4_ligand
   82    87     1     0     0
SMALL
GAST_HUCK


@<TRIPOS>ATOM
      1 C1         34.9180  -10.8550   10.1050 C.ar      1 5JU         0.0280
      2 C3         34.2240  -12.1950   11.9440 C.ar      1 5JU        -0.0019
      3 C41        39.0290   -6.2070   13.9580 C.3       1 5JU         0.1208
      4 C43        37.1810   -3.5740   20.6440 C.3       1 5JU        -0.0428
      5 C45        36.0480  -10.6160    9.0750 C.3       1 5JU        -0.0159
      6 C11        35.3210   -7.2570   10.2460 C.ar      1 5JU        -0.0469
      7 C12        33.4400   -8.8700    9.3330 C.2       1 5JU         0.0009
      8 C13        32.4990   -8.7940    8.3830 C.2       1 5JU         0.1093
      9 C16        35.8720   -5.9560   10.1500 C.ar      1 5JU         0.0566
     10 C18        37.4250   -6.1490   12.0990 C.2       1 5JU         0.2873
     11 C20        34.0560    2.9080   19.1400 C.ar      1 5JU         0.0435
     12 C21        34.5190    4.1950   18.8510 C.ar      1 5JU         0.1355
     13 C23        36.5720    3.3410   18.1680 C.ar      1 5JU         0.0500
     14 C25        34.9100    1.7930   18.9620 C.ar      1 5JU         0.1214
     15 C26        32.6620    3.1770   19.6650 C.2       1 5JU        -0.0545
     16 C27        32.4820    4.5080   19.6190 C.2       1 5JU         0.0249
     17 C30        33.2280    0.0740   19.6530 C.3       1 5JU         0.0334
     18 N2         35.0980  -11.8890   10.9650 N.ar      1 5JU        -0.3023
     19 C4         33.0340  -11.4610   12.0690 C.ar      1 5JU        -0.0457
     20 C5         32.8020  -10.3820   11.2040 C.ar      1 5JU        -0.0475
     21 C6         33.7330  -10.0820   10.2000 C.ar      1 5JU        -0.0011
     22 C7         34.2270   -7.5780    9.4430 C.ar      1 5JU        -0.0283
     23 C8         33.7440   -6.6790    8.5070 C.ar      1 5JU         0.0262
     24 C9         34.2860   -5.3870    8.3680 C.ar      1 5JU        -0.0597
     25 C10        35.3550   -5.0300    9.2110 C.ar      1 5JU        -0.0475
     26 S14        32.3890   -7.2750    7.5700 S.3       1 5JU        -0.0304
     27 CL         31.2740  -10.0010    8.0490 Cl        1 5JU        -0.0446
     28 N17        36.9840   -5.5540   10.9590 N.am      1 5JU        -0.2240
     29 O19        36.9230   -7.1780   12.5230 O.2       1 5JU        -0.3911
     30 N22        35.7730    4.4050   18.3830 N.ar      1 5JU        -0.2772
     31 N24        36.1500    2.0870   18.4770 N.ar      1 5JU        -0.2730
     32 N28        33.5600    5.0920   19.1610 N.pl3     1 5JU        -0.2665
     33 N29        34.5590    0.4710   19.1430 N.pl3     1 5JU        -0.2824
     34 C31        33.3670   -0.8690   20.8780 C.3       1 5JU        -0.0269
     35 C32        34.2150   -2.0980   20.4620 C.3       1 5JU        -0.0058
     36 C33        35.6320   -1.6780   19.9210 C.3       1 5JU         0.0002
     37 C34        35.4940   -0.6190   18.7760 C.3       1 5JU         0.0757
     38 N35        36.5080   -2.8370   19.5360 N.4       1 5JU         0.2368
     39 C36        35.9470   -3.7310   18.4780 C.3       1 5JU        -0.0300
     40 C37        36.9320   -4.1050   17.3560 C.3       1 5JU         0.0077
     41 C38        36.2470   -5.0600   16.3360 C.3       1 5JU         0.0357
     42 N39        37.1020   -5.2780   15.1750 N.am      1 5JU        -0.2851
     43 C40        38.2190   -6.0550   15.2180 C.2       1 5JU         0.1983
     44 O42        38.6260   -6.6240   16.2260 O.2       1 5JU        -0.3949
     45 N44        38.4530   -5.5670   12.7680 N.am      1 5JU        -0.2496
     46 H1         34.4390  -13.0046   12.6321 H         1 5JU         0.0763
     47 H2         39.1364   -7.2816   13.7490 H         1 5JU         0.0761
     48 H3         40.0214   -5.7669   14.1353 H         1 5JU         0.0761
     49 H4         37.7864   -4.3917   20.2258 H         1 5JU         0.0778
     50 H5         36.4214   -3.9901   21.3222 H         1 5JU         0.0778
     51 H6         37.8316   -2.8840   21.2013 H         1 5JU         0.0778
     52 H7         35.7884   -9.7571    8.4387 H         1 5JU         0.0420
     53 H8         36.1694  -11.5125    8.4492 H         1 5JU         0.0420
     54 H9         36.9893  -10.4085    9.6049 H         1 5JU         0.0420
     55 H10        35.7404   -7.9872   10.9286 H         1 5JU         0.0433
     56 H11        37.5594    3.4870   17.7451 H         1 5JU         0.0975
     57 H12        31.9441    2.4356   20.0126 H         1 5JU         0.0311
     58 H13        31.5718    5.0252   19.9191 H         1 5JU         0.0922
     59 H14        32.6774   -0.4480   18.8565 H         1 5JU         0.0528
     60 H15        32.6729    0.9752   19.9526 H         1 5JU         0.0528
     61 H16        32.3033  -11.7251   12.8250 H         1 5JU         0.0639
     62 H17        31.9057   -9.7819   11.3114 H         1 5JU         0.0681
     63 H18        33.8931   -4.6905    7.6362 H         1 5JU         0.0542
     64 H19        35.7864   -4.0380    9.1411 H         1 5JU         0.0478
     65 H20        37.4907   -4.7484   10.6518 H         1 5JU         0.2230
     66 H21        33.6635    6.1108   19.0508 H         1 5JU         0.2318
     67 H22        32.3706   -1.2001   21.2058 H         1 5JU         0.0287
     68 H23        33.8656   -0.3363   21.7012 H         1 5JU         0.0287
     69 H24        33.6815   -2.6472   19.6723 H         1 5JU         0.0321
     70 H25        34.3479   -2.7510   21.3372 H         1 5JU         0.0321
     71 H26        36.1449   -1.1752   20.7541 H         1 5JU         0.0872
     72 H27        36.4839   -0.1850   18.5715 H         1 5JU         0.0585
     73 H28        35.1192   -1.1199   17.8713 H         1 5JU         0.0585
     74 H29        37.2778   -2.3835   19.0693 H         1 5JU         0.2034
     75 H30        35.0862   -3.2210   18.0209 H         1 5JU         0.0815
     76 H31        35.6092   -4.6604   18.9598 H         1 5JU         0.0815
     77 H32        37.8071   -4.6078   17.7934 H         1 5JU         0.0336
     78 H33        37.2557   -3.1908   16.8370 H         1 5JU         0.0336
     79 H34        35.2975   -4.6136   16.0057 H         1 5JU         0.0522
     80 H35        36.0482   -6.0257   16.8237 H         1 5JU         0.0522
     81 H36        36.8575   -4.8382   14.3108 H         1 5JU         0.1851
     82 H37        38.8215   -4.6943   12.4476 H         1 5JU         0.1881
@<TRIPOS>BOND
     1    1    5 1  
     2    1   18 ar 
     3   21    1 ar 
     4   18    2 ar 
     5   19    2 ar 
     6   43    3 1  
     7    3   45 1  
     8   38    4 1  
     9    9    6 ar 
    10    6   22 ar 
    11    7    8 2  
    12    7   21 1  
    13   22    7 1  
    14   26    8 1  
    15    8   27 1  
    16    9   25 ar 
    17   28    9 1  
    18   10   28 am 
    19   10   29 2  
    20   45   10 am 
    21   11   12 ar 
    22   14   11 ar 
    23   11   15 1  
    24   12   30 ar 
    25   12   32 1  
    26   13   30 ar 
    27   31   13 ar 
    28   14   31 ar 
    29   33   14 1  
    30   15   16 2  
    31   16   32 1  
    32   33   17 1  
    33   34   17 1  
    34   20   19 ar 
    35   21   20 ar 
    36   22   23 ar 
    37   24   23 ar 
    38   23   26 1  
    39   25   24 ar 
    40   37   33 1  
    41   35   34 1  
    42   36   35 1  
    43   36   37 1  
    44   38   36 1  
    45   39   38 1  
    46   40   39 1  
    47   41   40 1  
    48   42   41 1  
    49   42   43 am 
    50   43   44 2  
    51    2   46 1  
    52    3   47 1  
    53    3   48 1  
    54    4   49 1  
    55    4   50 1  
    56    4   51 1  
    57    5   52 1  
    58    5   53 1  
    59    5   54 1  
    60    6   55 1  
    61   13   56 1  
    62   15   57 1  
    63   16   58 1  
    64   17   59 1  
    65   17   60 1  
    66   19   61 1  
    67   20   62 1  
    68   24   63 1  
    69   25   64 1  
    70   28   65 1  
    71   32   66 1  
    72   34   67 1  
    73   34   68 1  
    74   35   69 1  
    75   35   70 1  
    76   36   71 1  
    77   37   72 1  
    78   37   73 1  
    79   38   74 1  
    80   39   75 1  
    81   39   76 1  
    82   40   77 1  
    83   40   78 1  
    84   41   79 1  
    85   41   80 1  
    86   42   81 1  
    87   45   82 1  
@<TRIPOS>SUBSTRUCTURE
     1 5JU         1

