### 
### Created by X-TOOL on Mon Sep 10 21:13:32 2018
### 

@<TRIPOS>MOLECULE
5mw6_ligand
   35    37     1     0     0
SMALL
GAST_HUCK


@<TRIPOS>ATOM
      1 N1         18.8390   20.4310    9.6120 N.pl3     1 RC0        -0.1374
      2 N3         19.1510   19.2200   11.5770 N.ar      1 RC0        -0.2194
      3 C5         19.6320   18.1930   12.2630 C.ar      1 RC0         0.1551
      4 C6         17.7880   21.2160   10.0120 C.2       1 RC0         0.0841
      5 C7         17.5450   22.0920    9.0180 C.2       1 RC0        -0.0425
      6 C10        18.4670   21.8350    7.9980 C.2       1 RC0        -0.0041
      7 C13        18.8090   19.1380   14.3350 C.ar      1 RC0         0.0647
      8 C15        17.6480   21.1660   15.8610 C.ar      1 RC0         0.0281
      9 C17        17.0150   21.1640   11.3120 C.3       1 RC0         0.0006
     10 C20        17.1300   19.8760   15.9100 C.ar      1 RC0        -0.0574
     11 C21        18.7630   21.4330   15.0750 C.ar      1 RC0        -0.0574
     12 C22        18.5400   22.5360    6.6870 C.3       1 RC0        -0.0296
     13 C2         19.4110   19.3630   10.2880 C.ar      1 RC0         0.2463
     14 N4         19.2430   20.8550    8.3490 N.2       1 RC0        -0.2222
     15 N8         20.0970   18.4350    9.6100 N.ar      1 RC0        -0.2542
     16 C9         20.3630   17.2070   11.5780 C.ar      1 RC0         0.1039
     17 N11        19.3780   18.0700   13.6180 N.pl3     1 RC0        -0.2539
     18 C12        20.5860   17.3560   10.2180 C.ar      1 RC0         0.0219
     19 CL4        21.0110   15.8150   12.3870 Cl        1 RC0        -0.0705
     20 CL6        16.9510   22.4270   16.8380 Cl        1 RC0        -0.0813
     21 C18        19.3560   20.4250   14.3270 C.ar      1 RC0        -0.0375
     22 C19        17.7060   18.8690   15.1470 C.ar      1 RC0        -0.0375
     23 H1         16.7725   22.8595    9.0100 H         1 RC0         0.0237
     24 H2         16.2335   21.9381   11.3051 H         1 RC0         0.0442
     25 H3         17.7004   21.3425   12.1536 H         1 RC0         0.0442
     26 H4         16.5491   20.1737   11.4222 H         1 RC0         0.0442
     27 H5         16.2777   19.6571   16.5431 H         1 RC0         0.0594
     28 H6         19.1727   22.4362   15.0459 H         1 RC0         0.0594
     29 H7         19.3662   22.1179    6.0932 H         1 RC0         0.0381
     30 H8         18.7150   23.6090    6.8542 H         1 RC0         0.0381
     31 H9         17.5928   22.3990    6.1447 H         1 RC0         0.0381
     32 H10        19.6070   17.1913   14.1042 H         1 RC0         0.2167
     33 H11        21.1452   16.6118    9.6626 H         1 RC0         0.0868
     34 H12        20.2413   20.6351   13.7379 H         1 RC0         0.0538
     35 H13        17.2959   17.8662   15.1822 H         1 RC0         0.0538
@<TRIPOS>BOND
     1    1    4 1  
     2   13    1 1  
     3    1   14 1  
     4    3    2 ar 
     5    2   13 ar 
     6    3   16 ar 
     7   17    3 1  
     8    4    5 2  
     9    4    9 1  
    10    6    5 1  
    11    6   12 1  
    12   14    6 2  
    13    7   17 1  
    14    7   21 ar 
    15   22    7 ar 
    16   10    8 ar 
    17    8   11 ar 
    18    8   20 1  
    19   10   22 ar 
    20   11   21 ar 
    21   13   15 ar 
    22   15   18 ar 
    23   16   18 ar 
    24   16   19 1  
    25    5   23 1  
    26    9   24 1  
    27    9   25 1  
    28    9   26 1  
    29   10   27 1  
    30   11   28 1  
    31   12   29 1  
    32   12   30 1  
    33   12   31 1  
    34   17   32 1  
    35   18   33 1  
    36   21   34 1  
    37   22   35 1  
@<TRIPOS>SUBSTRUCTURE
     1 RC0         1

