### 
### Created by X-TOOL on Mon Aug  2 16:12:09 2021
### 

@<TRIPOS>MOLECULE
5mwa_ligand
   40    43     1     0     0
SMALL
GAST_HUCK


@<TRIPOS>ATOM
      1 C01       -10.2290   -7.5620   20.6850 C.ar      1 MOL        -0.0433
      2 C02       -11.0590   -6.7800   21.4820 C.ar      1 MOL        -0.0552
      3 C03       -12.3260   -6.4590   21.0340 C.ar      1 MOL        -0.0456
      4 C04       -12.7710   -6.9380   19.8110 C.ar      1 MOL         0.0134
      5 C05       -11.9630   -7.7100   18.9970 C.ar      1 MOL        -0.0314
      6 C06       -10.6870   -7.9940   19.4470 C.ar      1 MOL         0.0449
      7 C07       -14.1790   -6.5450   19.3800 C.2       1 MOL         0.0635
      8 O01       -14.9280   -7.4070   18.8480 O.co2     1 MOL        -0.5606
      9 O02       -14.5270   -5.3420   19.5720 O.co2     1 MOL        -0.5606
     10 C08        -7.9450   -9.7770   18.0540 C.2       1 MOL         0.1568
     11 O03        -8.4570   -8.9120   18.9230 O.3       1 MOL        -0.2194
     12 C09        -9.7620   -8.8410   18.6430 C.2       1 MOL         0.2040
     13 N01       -10.0660   -9.5930   17.5910 N.2       1 MOL        -0.2894
     14 C10        -8.9320  -10.1840   17.1860 C.2       1 MOL         0.0577
     15 C11        -9.0930  -13.3700   14.3820 C.ar      1 MOL         0.0508
     16 C12        -9.7790  -12.2380   14.0650 C.ar      1 MOL        -0.0507
     17 C13        -9.7540  -11.1600   14.9430 C.ar      1 MOL        -0.0581
     18 C14        -8.9670  -11.2330   16.0880 C.ar      1 MOL        -0.0183
     19 C15        -8.3030  -12.4080   16.3910 C.ar      1 MOL        -0.0443
     20 C16        -8.3660  -13.4770   15.5320 C.ar      1 MOL         0.0511
     21 CL01       -7.4820  -14.9620   15.9220 Cl        1 MOL        -0.0710
     22 C17        -3.8400  -10.6210   18.5280 C.ar      1 MOL        -0.0630
     23 C18        -4.6240  -10.2520   19.6240 C.ar      1 MOL        -0.0624
     24 C19        -5.9710   -9.9680   19.4350 C.ar      1 MOL        -0.0522
     25 C20        -6.4810  -10.0910   18.1470 C.ar      1 MOL         0.0186
     26 C21        -5.7160  -10.4470   17.0520 C.ar      1 MOL        -0.0522
     27 C22        -4.3670  -10.7220   17.2420 C.ar      1 MOL        -0.0624
     28 CL02       -9.1840  -14.7380   13.2550 Cl        1 MOL        -0.0728
     29 H1         -9.2360   -7.8311   21.0264 H         1 MOL         0.0668
     30 H2        -10.7144   -6.4254   22.4467 H         1 MOL         0.0630
     31 H3        -12.9722   -5.8328   21.6385 H         1 MOL         0.0667
     32 H4        -12.3169   -8.0790   18.0412 H         1 MOL         0.0684
     33 H5        -10.3385  -12.1775   13.1385 H         1 MOL         0.0614
     34 H6        -10.3413  -10.2724   14.7376 H         1 MOL         0.0593
     35 H7         -7.7315  -12.4849   17.3089 H         1 MOL         0.0598
     36 H8         -2.7888  -10.8355   18.6829 H         1 MOL         0.0607
     37 H9         -4.1853  -10.1878   20.6132 H         1 MOL         0.0614
     38 H10        -6.6016   -9.6616   20.2617 H         1 MOL         0.0615
     39 H11        -6.1594  -10.5104   16.0649 H         1 MOL         0.0615
     40 H12        -3.7379  -11.0091   16.4072 H         1 MOL         0.0614
@<TRIPOS>BOND
     1    1    2 ar 
     2    6    1 ar 
     3    2    3 ar 
     4    4    3 ar 
     5    5    4 ar 
     6    4    7 1  
     7    6    5 ar 
     8   12    6 1  
     9    7    8 ar 
    10    7    9 ar 
    11   10   11 1  
    12   10   14 2  
    13   25   10 1  
    14   11   12 1  
    15   13   12 2  
    16   14   13 1  
    17   14   18 1  
    18   16   15 ar 
    19   20   15 ar 
    20   15   28 1  
    21   17   16 ar 
    22   18   17 ar 
    23   18   19 ar 
    24   19   20 ar 
    25   20   21 1  
    26   23   22 ar 
    27   22   27 ar 
    28   24   23 ar 
    29   24   25 ar 
    30   25   26 ar 
    31   26   27 ar 
    32    1   29 1  
    33    2   30 1  
    34    3   31 1  
    35    5   32 1  
    36   16   33 1  
    37   17   34 1  
    38   19   35 1  
    39   22   36 1  
    40   23   37 1  
    41   24   38 1  
    42   26   39 1  
    43   27   40 1  
@<TRIPOS>SUBSTRUCTURE
     1 MOL         1

