### 
### Created by X-TOOL on Mon Sep 10 21:13:31 2018
### 

@<TRIPOS>MOLECULE
5mwd_ligand
   40    43     1     0     0
SMALL
GAST_HUCK


@<TRIPOS>ATOM
      1 C4         14.3880   19.8630   17.6720 C.ar      1 TJ3         0.1029
      2 C5         14.2330   19.1710   16.4520 C.ar      1 TJ3         0.1519
      3 C7         16.5090   18.6840   16.4720 C.ar      1 TJ3         0.2455
      4 C10        19.1940   17.4040   14.5080 C.2       1 TJ3        -0.0425
      5 N12        11.7010   16.4030   11.1450 N.am      1 TJ3        -0.2413
      6 C13        12.7370   18.4710   14.6230 C.ar      1 TJ3         0.0442
      7 C15        13.1840   18.1360   12.2660 C.ar      1 TJ3        -0.0545
      8 C17        11.4290   16.8970   13.3650 C.ar      1 TJ3        -0.0095
      9 C20        10.4210   15.8380   12.9820 C.3       1 TJ3         0.0694
     10 C24        17.9650   17.9710   14.5790 C.2       1 TJ3         0.0841
     11 N2         16.6680   19.3430   17.6140 N.ar      1 TJ3        -0.2550
     12 C18        12.1700   17.1710   12.2140 C.ar      1 TJ3         0.0618
     13 N8         17.6440   18.0980   15.9050 N.pl3     1 TJ3        -0.1375
     14 C16        11.7050   17.5330   14.5600 C.ar      1 TJ3        -0.0460
     15 N22        18.7110   17.5770   16.6390 N.2       1 TJ3        -0.2222
     16 C25        17.1380   18.4010   13.3870 C.3       1 TJ3         0.0006
     17 C9         19.6350   17.1620   15.8170 C.2       1 TJ3        -0.0041
     18 C19        10.7130   15.5730   11.5210 C.2       1 TJ3         0.2060
     19 C14        13.4530   18.7850   13.4600 C.ar      1 TJ3        -0.0566
     20 N6         15.3100   18.5890   15.9000 N.ar      1 TJ3        -0.2206
     21 CL1        13.0850   20.7040   18.4580 Cl        1 TJ3        -0.0709
     22 O21        10.1160   14.8000   10.8050 O.2       1 TJ3        -0.3902
     23 N11        12.9890   19.1320   15.8370 N.pl3     1 TJ3        -0.2634
     24 C3         15.6520   19.9360   18.2250 C.ar      1 TJ3         0.0212
     25 C23        20.9490   16.5510   16.2300 C.3       1 TJ3        -0.0296
     26 H1         19.7425   17.1764   13.5951 H         1 TJ3         0.0237
     27 H2         12.0575   16.4636   10.2127 H         1 TJ3         0.2220
     28 H3         13.7555   18.3738   11.3761 H         1 TJ3         0.0462
     29 H4          9.3938   16.2082   13.1154 H         1 TJ3         0.0645
     30 H5         10.5631   14.9267   13.5815 H         1 TJ3         0.0645
     31 H6         11.1225   17.3046   15.4452 H         1 TJ3         0.0444
     32 H7         17.6777   18.1584   12.4597 H         1 TJ3         0.0442
     33 H8         16.9613   19.4856   13.4354 H         1 TJ3         0.0442
     34 H9         16.1739   17.8715   13.3994 H         1 TJ3         0.0442
     35 H10        14.2260   19.5442   13.4950 H         1 TJ3         0.0452
     36 H11        12.2050   19.6159   16.2975 H         1 TJ3         0.2128
     37 H12        15.8118   20.4745   19.1521 H         1 TJ3         0.0866
     38 H13        20.9980   16.4941   17.3274 H         1 TJ3         0.0381
     39 H14        21.7760   17.1736   15.8579 H         1 TJ3         0.0381
     40 H15        21.0322   15.5393   15.8063 H         1 TJ3         0.0381
@<TRIPOS>BOND
     1    2    1 ar 
     2    1   21 1  
     3    1   24 ar 
     4   20    2 ar 
     5    2   23 1  
     6    3   11 ar 
     7   13    3 1  
     8    3   20 ar 
     9   10    4 2  
    10    4   17 1  
    11   12    5 1  
    12    5   18 am 
    13    6   14 ar 
    14    6   19 ar 
    15   23    6 1  
    16    7   12 ar 
    17   19    7 ar 
    18    8    9 1  
    19    8   12 ar 
    20   14    8 ar 
    21    9   18 1  
    22   10   13 1  
    23   10   16 1  
    24   11   24 ar 
    25   13   15 1  
    26   15   17 2  
    27   17   25 1  
    28   18   22 2  
    29    4   26 1  
    30    5   27 1  
    31    7   28 1  
    32    9   29 1  
    33    9   30 1  
    34   14   31 1  
    35   16   32 1  
    36   16   33 1  
    37   16   34 1  
    38   19   35 1  
    39   23   36 1  
    40   24   37 1  
    41   25   38 1  
    42   25   39 1  
    43   25   40 1  
@<TRIPOS>SUBSTRUCTURE
     1 TJ3         1

