### 
### Created by X-TOOL on Wed Jan  1 15:39:37 2020
### 

@<TRIPOS>MOLECULE
5mwg_ligand
   64    68     1     0     0
SMALL
GAST_HUCK


@<TRIPOS>ATOM
      1 CAA         1.3310    1.6540   28.2330 C.3       1 WGX         0.0409
      2 CAB        -2.3450   -1.7540   25.5310 C.3       1 WGX         0.0403
      3 CAG        -2.3400   -3.0950   33.3190 C.ar      1 WGX        -0.0650
      4 CAH        -2.5540   -1.7530   33.0340 C.ar      1 WGX        -0.0485
      5 CAI        -0.1720   -1.4030   33.0980 C.ar      1 WGX        -0.0399
      6 CAJ        -1.1590    0.8430   29.4560 C.ar      1 WGX        -0.0447
      7 CAK        -2.8720   -0.8110   28.0750 C.ar      1 WGX        -0.0470
      8 CAL        -7.0140   -1.9610   30.4400 C.3       1 WGX        -0.0496
      9 CAM         0.4370   -5.3010   34.3290 C.3       1 WGX        -0.0426
     10 CAN         1.4850   -4.6980   33.4170 C.3       1 WGX        -0.0426
     11 CAO        -5.7740   -2.5770   31.0360 C.3       1 WGX        -0.0341
     12 CAP        -6.8290   -0.4460   30.4410 C.3       1 WGX        -0.0341
     13 CAQ        -0.9230   -4.9730   33.7650 C.3       1 WGX        -0.0215
     14 CAR         1.3670   -3.1950   33.5530 C.3       1 WGX        -0.0214
     15 CAS        -4.5730   -2.2840   30.1280 C.3       1 WGX         0.0211
     16 CAT        -5.6440   -0.0390   29.5610 C.3       1 WGX         0.0211
     17 CAV        -1.0570   -3.6050   33.5040 C.ar      1 WGX        -0.0409
     18 CAW         0.0460   -2.7530   33.3820 C.ar      1 WGX        -0.0392
     19 CAX        -2.3670    0.4390   30.0570 C.ar      1 WGX         0.0556
     20 CAY        -1.4610   -0.9090   32.9300 C.ar      1 WGX         0.0994
     21 CAZ        -3.2400   -0.3930   29.3470 C.ar      1 WGX         0.0331
     22 CBA         0.6280    0.3280   26.3300 C.2       1 WGX         0.3095
     23 CBB        -0.2610   -0.5030   25.6580 C.2       1 WGX         0.3089
     24 CBC        -0.8040    0.4090   28.1660 C.ar      1 WGX         0.0682
     25 CBD        -1.6780   -0.4220   27.4810 C.ar      1 WGX         0.0684
     26 NAU        -2.7530    0.8470   31.2850 N.am      1 WGX        -0.2036
     27 NBE        -4.4370   -0.8570   29.7750 N.pl3     1 WGX        -0.3249
     28 NBF         0.3510    0.7710   27.5610 N.am      1 WGX        -0.2255
     29 NBG        -1.3960   -0.8680   26.2420 N.am      1 WGX        -0.2268
     30 OAC         1.6810    0.6720   25.7860 O.2       1 WGX        -0.3540
     31 OAD        -0.0100   -0.9150   24.5240 O.2       1 WGX        -0.3545
     32 OAE        -2.3350    1.4550   33.7760 O.2       1 WGX        -0.1466
     33 OAF        -0.3570    1.3940   32.2660 O.2       1 WGX        -0.1466
     34 SBH        -1.7040    0.7560   32.5740 S.o2      1 WGX         0.0801
     35 H1          2.1915    1.8197   27.5681 H         1 WGX         0.0544
     36 H2          1.6734    1.1798   29.1646 H         1 WGX         0.0544
     37 H3          0.8563    2.6187   28.4656 H         1 WGX         0.0544
     38 H4         -1.9383   -2.0076   24.5409 H         1 WGX         0.0543
     39 H5         -3.3087   -1.2375   25.4102 H         1 WGX         0.0543
     40 H6         -2.4932   -2.6753   26.1134 H         1 WGX         0.0543
     41 H7         -3.1912   -3.7614   33.3994 H         1 WGX         0.0538
     42 H8         -3.5595   -1.3724   32.8953 H         1 WGX         0.0561
     43 H9          0.6744   -0.7318   33.0074 H         1 WGX         0.0557
     44 H10        -0.4898    1.5012   29.9982 H         1 WGX         0.0296
     45 H11        -3.5404   -1.4643   27.5258 H         1 WGX         0.0323
     46 H12        -7.8931   -2.2310   31.0435 H         1 WGX         0.0266
     47 H13        -7.1522   -2.3204   29.4096 H         1 WGX         0.0266
     48 H14         0.5335   -4.8764   35.3391 H         1 WGX         0.0287
     49 H15         0.5674   -6.3922   34.3759 H         1 WGX         0.0287
     50 H16         1.3004   -5.0000   32.3755 H         1 WGX         0.0287
     51 H17         2.4887   -5.0286   33.7222 H         1 WGX         0.0287
     52 H18        -5.9106   -3.6649   31.1242 H         1 WGX         0.0284
     53 H19        -5.5938   -2.1481   32.0327 H         1 WGX         0.0284
     54 H20        -6.6458   -0.1063   31.4711 H         1 WGX         0.0284
     55 H21        -7.7434    0.0286   30.0555 H         1 WGX         0.0284
     56 H22        -1.6925   -5.2748   34.4908 H         1 WGX         0.0411
     57 H23        -1.0644   -5.5306   32.8274 H         1 WGX         0.0411
     58 H24         2.0020   -2.7187   32.7915 H         1 WGX         0.0411
     59 H25         1.7128   -2.9010   34.5550 H         1 WGX         0.0411
     60 H26        -4.6886   -2.8629   29.1998 H         1 WGX         0.0503
     61 H27        -3.6574   -2.6030   30.6476 H         1 WGX         0.0503
     62 H28        -5.3950    1.0103   29.7778 H         1 WGX         0.0503
     63 H29        -5.9453   -0.1342   28.5074 H         1 WGX         0.0503
     64 H30        -3.6762    1.2066   31.4210 H         1 WGX         0.2063
@<TRIPOS>BOND
     1   28    1 1  
     2   29    2 1  
     3    4    3 ar 
     4    3   17 ar 
     5   20    4 ar 
     6    5   18 ar 
     7   20    5 ar 
     8   19    6 ar 
     9    6   24 ar 
    10   21    7 ar 
    11    7   25 ar 
    12   11    8 1  
    13   12    8 1  
    14   10    9 1  
    15   13    9 1  
    16   14   10 1  
    17   15   11 1  
    18   16   12 1  
    19   17   13 1  
    20   18   14 1  
    21   27   15 1  
    22   27   16 1  
    23   18   17 ar 
    24   19   21 ar 
    25   26   19 1  
    26   34   20 1  
    27   21   27 1  
    28   22   23 1  
    29   28   22 am 
    30   22   30 2  
    31   29   23 am 
    32   23   31 2  
    33   24   25 ar 
    34   24   28 1  
    35   25   29 1  
    36   26   34 am 
    37   34   32 2  
    38   34   33 2  
    39    1   35 1  
    40    1   36 1  
    41    1   37 1  
    42    2   38 1  
    43    2   39 1  
    44    2   40 1  
    45    3   41 1  
    46    4   42 1  
    47    5   43 1  
    48    6   44 1  
    49    7   45 1  
    50    8   46 1  
    51    8   47 1  
    52    9   48 1  
    53    9   49 1  
    54   10   50 1  
    55   10   51 1  
    56   11   52 1  
    57   11   53 1  
    58   12   54 1  
    59   12   55 1  
    60   13   56 1  
    61   13   57 1  
    62   14   58 1  
    63   14   59 1  
    64   15   60 1  
    65   15   61 1  
    66   16   62 1  
    67   16   63 1  
    68   26   64 1  
@<TRIPOS>SUBSTRUCTURE
     1 WGX         1

