### 
### Created by X-TOOL on Wed Jan  1 15:39:36 2020
### 

@<TRIPOS>MOLECULE
5mwh_ligand
   64    67     1     0     0
SMALL
GAST_HUCK


@<TRIPOS>ATOM
      1 CAA        24.3730    4.8620   10.8130 C.3       1 UWX        -0.0609
      2 CAB        25.2240    5.2720   13.1170 C.3       1 UWX        -0.0609
      3 CAC        20.7740   -2.6410   11.8000 C.3       1 UWX         0.0409
      4 CAD        18.2190    0.7490    8.0150 C.3       1 UWX         0.0403
      5 CAI        26.1200    2.0440    9.7640 C.ar      1 UWX        -0.0585
      6 CAJ        25.5950    1.1160   11.9240 C.ar      1 UWX        -0.0585
      7 CAK        25.8970    0.8100    9.1690 C.ar      1 UWX        -0.0415
      8 CAL        25.3590   -0.1190   11.3250 C.ar      1 UWX        -0.0415
      9 CAM        22.1330   -1.7350    9.4960 C.ar      1 UWX        -0.0447
     10 CAN        20.8610   -0.0800    7.6650 C.ar      1 UWX        -0.0470
     11 CAO        23.2970   -0.0040    3.8850 C.3       1 UWX         0.0664
     12 CAP        24.4380    1.4930    5.1860 C.3       1 UWX         0.0664
     13 CAQ        22.3740   -0.4760    5.0130 C.3       1 UWX         0.0446
     14 CAR        23.6080    1.2350    6.4490 C.3       1 UWX         0.0446
     15 CAS        26.2220    3.4490   11.7370 C.3       1 UWX        -0.0168
     16 CAV        25.9720    2.2060   11.1400 C.ar      1 UWX        -0.0427
     17 CAW        22.8160   -1.2810    8.3680 C.ar      1 UWX         0.0556
     18 CAX        25.5140   -0.2720    9.9550 C.ar      1 UWX         0.1060
     19 CAY        22.1760   -0.4620    7.4430 C.ar      1 UWX         0.0332
     20 CAZ        18.8390   -1.3750   10.9910 C.2       1 UWX         0.3095
     21 CBA        18.2180   -0.5440   10.0650 C.2       1 UWX         0.3089
     22 CBB        20.8060   -1.3440    9.7160 C.ar      1 UWX         0.0682
     23 CBC        20.1740   -0.5160    8.7940 C.ar      1 UWX         0.0684
     24 CBD        24.9300    4.1940   12.0730 C.3       1 UWX        -0.0370
     25 NAT        24.0750   -1.6100    8.0560 N.am      1 UWX        -0.2035
     26 NBE        22.7830    0.0190    6.3360 N.pl3     1 UWX        -0.3206
     27 NBF        20.1190   -1.7570   10.8040 N.am      1 UWX        -0.2255
     28 NBG        18.8960   -0.1300    8.9900 N.am      1 UWX        -0.2268
     29 OAE        18.2170   -1.7580   11.9850 O.2       1 UWX        -0.3540
     30 OAF        17.0450   -0.1760   10.2040 O.2       1 UWX        -0.3545
     31 OAG        26.5210   -2.2560    8.5390 O.2       1 UWX        -0.1465
     32 OAH        24.8400   -2.8080   10.2960 O.2       1 UWX        -0.1465
     33 OAU        23.6000    1.3920    4.0420 O.3       1 UWX        -0.3760
     34 SBH        25.2370   -1.7890    9.2260 S.o2      1 UWX         0.0816
     35 H1         23.4440    5.3961   11.0613 H         1 UWX         0.0234
     36 H2         24.1629    4.0946   10.0534 H         1 UWX         0.0234
     37 H3         25.1118    5.5753   10.4190 H         1 UWX         0.0234
     38 H4         25.6250    4.8015   14.0269 H         1 UWX         0.0234
     39 H5         24.2956    5.8093   13.3607 H         1 UWX         0.0234
     40 H6         25.9629    5.9805   12.7145 H         1 UWX         0.0234
     41 H7         20.0650   -2.8701   12.6092 H         1 UWX         0.0544
     42 H8         21.6555   -2.1327   12.2179 H         1 UWX         0.0544
     43 H9         21.0869   -3.5754   11.3112 H         1 UWX         0.0544
     44 H10        17.1909    0.9473    8.3522 H         1 UWX         0.0543
     45 H11        18.1938    0.2556    7.0322 H         1 UWX         0.0543
     46 H12        18.7680    1.6988    7.9345 H         1 UWX         0.0543
     47 H13        26.4121    2.8899    9.1523 H         1 UWX         0.0557
     48 H14        25.4860    1.2297   12.9965 H         1 UWX         0.0557
     49 H15        26.0205    0.6902    8.0987 H         1 UWX         0.0619
     50 H16        25.0531   -0.9637   11.9315 H         1 UWX         0.0619
     51 H17        22.6291   -2.3905   10.2026 H         1 UWX         0.0296
     52 H18        20.3628    0.5656    6.9508 H         1 UWX         0.0323
     53 H19        22.7976   -0.1606    2.9175 H         1 UWX         0.0579
     54 H20        24.2313   -0.5838    3.9136 H         1 UWX         0.0579
     55 H21        25.2439    0.7474    5.1176 H         1 UWX         0.0579
     56 H22        24.8746    2.5015    5.2333 H         1 UWX         0.0579
     57 H23        22.3796   -1.5758    5.0333 H         1 UWX         0.0525
     58 H24        21.3549   -0.1182    4.8048 H         1 UWX         0.0525
     59 H25        22.9463    2.0970    6.6200 H         1 UWX         0.0525
     60 H26        24.2906    1.1214    7.3041 H         1 UWX         0.0525
     61 H27        26.8157    4.0629   11.0437 H         1 UWX         0.0428
     62 H28        26.7911    3.2893   12.6647 H         1 UWX         0.0428
     63 H29        24.1902    3.4843   12.4717 H         1 UWX         0.0317
     64 H30        24.3205   -1.7510    7.0969 H         1 UWX         0.2063
@<TRIPOS>BOND
     1   24    1 1  
     2   24    2 1  
     3   27    3 1  
     4   28    4 1  
     5    7    5 ar 
     6    5   16 ar 
     7    8    6 ar 
     8    6   16 ar 
     9   18    7 ar 
    10   18    8 ar 
    11   17    9 ar 
    12    9   22 ar 
    13   19   10 ar 
    14   10   23 ar 
    15   13   11 1  
    16   11   33 1  
    17   14   12 1  
    18   12   33 1  
    19   26   13 1  
    20   26   14 1  
    21   16   15 1  
    22   15   24 1  
    23   17   19 ar 
    24   25   17 1  
    25   34   18 1  
    26   19   26 1  
    27   20   21 1  
    28   27   20 am 
    29   20   29 2  
    30   28   21 am 
    31   21   30 2  
    32   22   23 ar 
    33   22   27 1  
    34   23   28 1  
    35   25   34 am 
    36   34   31 2  
    37   34   32 2  
    38    1   35 1  
    39    1   36 1  
    40    1   37 1  
    41    2   38 1  
    42    2   39 1  
    43    2   40 1  
    44    3   41 1  
    45    3   42 1  
    46    3   43 1  
    47    4   44 1  
    48    4   45 1  
    49    4   46 1  
    50    5   47 1  
    51    6   48 1  
    52    7   49 1  
    53    8   50 1  
    54    9   51 1  
    55   10   52 1  
    56   11   53 1  
    57   11   54 1  
    58   12   55 1  
    59   12   56 1  
    60   13   57 1  
    61   13   58 1  
    62   14   59 1  
    63   14   60 1  
    64   15   61 1  
    65   15   62 1  
    66   24   63 1  
    67   25   64 1  
@<TRIPOS>SUBSTRUCTURE
     1 UWX         1

