### 
### Created by X-TOOL on Mon Sep 10 21:13:32 2018
### 

@<TRIPOS>MOLECULE
5mwj_ligand
  119   125     1     0     0
SMALL
GAST_HUCK


@<TRIPOS>ATOM
      1 N1         54.1150  -14.2210   59.1280 N.am      1 EBU        -0.2598
      2 N2         55.1880  -14.4580   55.8830 N.am      1 EBU        -0.2636
      3 N3         59.0230  -17.1460   58.5920 N.pl3     1 EBU        -0.2723
      4 N4         59.6930  -19.4910   58.5120 N.pl3     1 EBU        -0.2849
      5 O5         54.6050  -16.3730   58.6130 O.2       1 EBU        -0.3905
      6 C1         54.5320  -15.4560   59.4360 C.2       1 EBU         0.2289
      7 C          54.8970  -15.6930   60.9210 C.3       1 EBU         0.0744
      8 C39        56.2170  -15.0320   61.2740 C.3       1 EBU         0.0416
      9 C40        56.5890  -15.1500   62.7300 C.ar      1 EBU        -0.0353
     10 C45        57.4540  -16.1490   63.1640 C.ar      1 EBU        -0.0600
     11 C44        57.8880  -16.1890   64.4830 C.ar      1 EBU        -0.0686
     12 C43        57.4670  -15.2270   65.3830 C.ar      1 EBU        -0.0687
     13 C42        56.5860  -14.2430   64.9700 C.ar      1 EBU        -0.0686
     14 C41        56.1410  -14.2130   63.6550 C.ar      1 EBU        -0.0600
     15 N          55.0040  -17.1430   61.1840 N.4       1 EBU         0.2394
     16 C2         53.7470  -13.8590   57.7650 C.3       1 EBU         0.1353
     17 C26        52.7920  -12.6540   57.7560 C.3       1 EBU         0.0042
     18 C27        52.5460  -12.0950   56.3870 C.2       1 EBU        -0.0416
     19 C34        53.2320  -11.0020   55.7520 C.ar      1 EBU        -0.0212
     20 C35        54.2080  -10.0940   56.1670 C.ar      1 EBU        -0.0747
     21 C36        54.7340   -9.1760   55.2610 C.ar      1 EBU        -0.0792
     22 C37        54.2890   -9.1490   53.9530 C.ar      1 EBU        -0.0768
     23 C38        53.3080  -10.0340   53.5210 C.ar      1 EBU        -0.0441
     24 C33        52.7850  -10.9570   54.4290 C.ar      1 EBU         0.0627
     25 N9         51.8440  -11.9630   54.2680 N.pl3     1 EBU        -0.2748
     26 C28        51.7140  -12.6300   55.4530 C.2       1 EBU         0.0195
     27 C29        51.0480  -12.2550   53.0730 C.3       1 EBU         0.0484
     28 C30        51.8620  -12.8540   51.9390 C.3       1 EBU        -0.0270
     29 C31        53.0460  -13.7200   52.3460 C.3       1 EBU        -0.0492
     30 C32        54.0220  -13.9470   51.1880 C.3       1 EBU        -0.0196
     31 C13        55.5320  -13.4290   51.5150 C.3       1 EBU         0.1357
     32 C12        55.4120  -11.9020   51.3410 C.3       1 EBU        -0.0178
     33 C11        56.6310  -11.3790   52.0730 C.3       1 EBU        -0.0312
     34 C10        56.7510  -12.2730   53.2910 C.3       1 EBU         0.0332
     35 N6         56.1400  -13.5430   52.8550 N.am      1 EBU        -0.2600
     36 C9         56.0710  -14.6410   53.6630 C.2       1 EBU         0.2035
     37 O3         55.6460  -15.7080   53.2680 O.2       1 EBU        -0.3945
     38 C4         56.4410  -14.5240   55.1400 C.3       1 EBU         0.1310
     39 C5         57.2500  -15.7790   55.5010 C.3       1 EBU        -0.0092
     40 C6         57.7400  -15.8520   56.9490 C.3       1 EBU        -0.0156
     41 C7         58.4740  -17.1520   57.2420 C.3       1 EBU         0.0627
     42 C8         59.6160  -18.2760   59.2550 C.cat     1 EBU         0.2882
     43 N5         60.0470  -18.1120   60.4750 N.pl3     1 EBU        -0.2849
     44 C3         55.0080  -13.6400   56.9240 C.2       1 EBU         0.2052
     45 O4         55.8260  -12.7860   57.2510 O.2       1 EBU        -0.3942
     46 C14        56.3980  -14.2150   50.4140 C.2       1 EBU         0.2263
     47 O2         56.0610  -14.1930   49.2340 O.2       1 EBU        -0.3419
     48 N7         57.5350  -14.7900   50.8140 N.am      1 EBU        -0.2676
     49 C15        58.5940  -15.0910   49.8620 C.3       1 EBU         0.0988
     50 C16        58.5540  -16.5210   49.3380 C.2       1 EBU         0.0615
     51 O1         58.2350  -17.4770   50.0200 O.co2     1 EBU        -0.5665
     52 O          58.9180  -16.6010   48.0810 O.co2     1 EBU        -0.5665
     53 C17        59.9520  -14.7090   50.4470 C.3       1 EBU        -0.0011
     54 C18        60.3750  -15.4520   51.6800 C.2       1 EBU        -0.0424
     55 C21        60.4470  -14.9270   53.0160 C.ar      1 EBU        -0.0214
     56 C22        60.0470  -13.7350   53.6170 C.ar      1 EBU        -0.0747
     57 C23        60.3000  -13.5220   54.9670 C.ar      1 EBU        -0.0792
     58 C24        60.9480  -14.4870   55.7310 C.ar      1 EBU        -0.0768
     59 C25        61.3590  -15.6870   55.1580 C.ar      1 EBU        -0.0443
     60 C20        61.0970  -15.8960   53.8060 C.ar      1 EBU         0.0603
     61 N8         61.3820  -16.9670   52.9930 N.pl3     1 EBU        -0.2891
     62 C19        60.9390  -16.6930   51.7250 C.2       1 EBU         0.0166
     63 H1         54.0548  -13.5315   59.8498 H         1 EBU         0.1886
     64 H2         54.4322  -15.0494   55.6018 H         1 EBU         0.1883
     65 H3         58.9830  -16.2592   59.1144 H         1 EBU         0.2642
     66 H4         60.1087  -20.3308   58.9397 H         1 EBU         0.2615
     67 H5         59.3329  -19.5287   57.5477 H         1 EBU         0.2615
     68 H6         54.1037  -15.2673   61.5530 H         1 EBU         0.1122
     69 H7         56.1486  -13.9640   61.0195 H         1 EBU         0.0507
     70 H8         57.0108  -15.5017   60.6746 H         1 EBU         0.0507
     71 H9         57.7933  -16.9049   62.4651 H         1 EBU         0.0557
     72 H10        58.5585  -16.9764   64.8077 H         1 EBU         0.0599
     73 H11        57.8251  -15.2437   66.4060 H         1 EBU         0.0559
     74 H12        56.2426  -13.4941   65.6745 H         1 EBU         0.0599
     75 H13        55.4359  -13.4500   63.3456 H         1 EBU         0.0557
     76 H14        54.1316  -17.5917   60.9525 H         1 EBU         0.2017
     77 H15        55.2108  -17.2933   62.1590 H         1 EBU         0.2017
     78 H16        55.7426  -17.5332   60.6198 H         1 EBU         0.2017
     79 H17        53.2029  -14.7081   57.3258 H         1 EBU         0.0815
     80 H18        53.2262  -11.8611   58.3827 H         1 EBU         0.0397
     81 H19        51.8281  -12.9707   58.1809 H         1 EBU         0.0397
     82 H20        54.5562  -10.1034   57.1935 H         1 EBU         0.0540
     83 H21        55.4977   -8.4779   55.5842 H         1 EBU         0.0510
     84 H22        54.7087   -8.4312   53.2576 H         1 EBU         0.0530
     85 H23        52.9549  -10.0081   52.4964 H         1 EBU         0.0541
     86 H24        51.0414  -13.4690   55.6252 H         1 EBU         0.0797
     87 H25        50.5934  -11.3180   52.7190 H         1 EBU         0.0595
     88 H26        50.2552  -12.9666   53.3471 H         1 EBU         0.0595
     89 H27        52.2473  -12.0245   51.3279 H         1 EBU         0.0291
     90 H28        51.1860  -13.4738   51.3316 H         1 EBU         0.0291
     91 H29        52.6702  -14.6953   52.6888 H         1 EBU         0.0265
     92 H30        53.5817  -13.2237   53.1686 H         1 EBU         0.0265
     93 H31        53.6499  -13.4065   50.3052 H         1 EBU         0.0277
     94 H32        54.0611  -15.0242   50.9689 H         1 EBU         0.0277
     95 H33        54.4849  -11.5238   51.7964 H         1 EBU         0.0278
     96 H34        55.4390  -11.6219   50.2776 H         1 EBU         0.0278
     97 H35        56.4853  -10.3306   52.3724 H         1 EBU         0.0284
     98 H36        57.5282  -11.4587   51.4417 H         1 EBU         0.0284
     99 H37        56.2039  -11.8476   54.1452 H         1 EBU         0.0520
    100 H38        57.8055  -12.4198   53.5674 H         1 EBU         0.0520
    101 H39        57.0406  -13.6211   55.3277 H         1 EBU         0.0800
    102 H40        58.1306  -15.8157   54.8428 H         1 EBU         0.0313
    103 H41        56.6150  -16.6574   55.3133 H         1 EBU         0.0313
    104 H42        56.8724  -15.7758   57.6209 H         1 EBU         0.0301
    105 H43        58.4229  -15.0099   57.1349 H         1 EBU         0.0301
    106 H44        57.7715  -17.9926   57.1426 H         1 EBU         0.0689
    107 H45        59.2949  -17.2728   56.5198 H         1 EBU         0.0689
    108 H46        59.9502  -17.1964   60.9367 H         1 EBU         0.2615
    109 H47        60.4841  -18.8981   60.9768 H         1 EBU         0.2615
    110 H48        57.6604  -15.0166   51.7799 H         1 EBU         0.1882
    111 H49        58.4290  -14.4410   48.9901 H         1 EBU         0.0743
    112 H50        59.9213  -13.6377   50.6948 H         1 EBU         0.0390
    113 H51        60.7126  -14.8845   49.6720 H         1 EBU         0.0390
    114 H52        59.5397  -12.9757   53.0330 H         1 EBU         0.0540
    115 H53        59.9886  -12.5927   55.4300 H         1 EBU         0.0510
    116 H54        61.1347  -14.3027   56.7828 H         1 EBU         0.0530
    117 H55        61.8696  -16.4392   55.7484 H         1 EBU         0.0541
    118 H56        61.8521  -17.8345   53.2885 H         1 EBU         0.2216
    119 H57        61.0250  -17.3691   50.8756 H         1 EBU         0.0795
@<TRIPOS>BOND
     1    1    6 am 
     2   16    1 1  
     3   38    2 1  
     4    2   44 am 
     5   41    3 1  
     6    3   42 ar 
     7   42    4 ar 
     8    6    5 2  
     9    6    7 1  
    10    7    8 1  
    11    7   15 1  
    12    8    9 1  
    13    9   10 ar 
    14    9   14 ar 
    15   10   11 ar 
    16   11   12 ar 
    17   13   12 ar 
    18   14   13 ar 
    19   16   17 1  
    20   44   16 1  
    21   17   18 1  
    22   18   19 1  
    23   18   26 2  
    24   19   20 ar 
    25   19   24 ar 
    26   20   21 ar 
    27   21   22 ar 
    28   23   22 ar 
    29   24   23 ar 
    30   25   24 1  
    31   26   25 1  
    32   27   25 1  
    33   28   27 1  
    34   29   28 1  
    35   30   29 1  
    36   31   30 1  
    37   31   32 1  
    38   35   31 1  
    39   31   46 1  
    40   33   32 1  
    41   34   33 1  
    42   35   34 1  
    43   36   35 am 
    44   36   37 2  
    45   38   36 1  
    46   39   38 1  
    47   40   39 1  
    48   40   41 1  
    49   42   43 ar 
    50   44   45 2  
    51   46   47 2  
    52   46   48 am 
    53   48   49 1  
    54   49   50 1  
    55   49   53 1  
    56   50   51 ar 
    57   50   52 ar 
    58   53   54 1  
    59   54   55 1  
    60   54   62 2  
    61   55   56 ar 
    62   55   60 ar 
    63   56   57 ar 
    64   57   58 ar 
    65   58   59 ar 
    66   59   60 ar 
    67   60   61 1  
    68   61   62 1  
    69    1   63 1  
    70    2   64 1  
    71    3   65 1  
    72    4   66 1  
    73    4   67 1  
    74    7   68 1  
    75    8   69 1  
    76    8   70 1  
    77   10   71 1  
    78   11   72 1  
    79   12   73 1  
    80   13   74 1  
    81   14   75 1  
    82   15   76 1  
    83   15   77 1  
    84   15   78 1  
    85   16   79 1  
    86   17   80 1  
    87   17   81 1  
    88   20   82 1  
    89   21   83 1  
    90   22   84 1  
    91   23   85 1  
    92   26   86 1  
    93   27   87 1  
    94   27   88 1  
    95   28   89 1  
    96   28   90 1  
    97   29   91 1  
    98   29   92 1  
    99   30   93 1  
   100   30   94 1  
   101   32   95 1  
   102   32   96 1  
   103   33   97 1  
   104   33   98 1  
   105   34   99 1  
   106   34  100 1  
   107   38  101 1  
   108   39  102 1  
   109   39  103 1  
   110   40  104 1  
   111   40  105 1  
   112   41  106 1  
   113   41  107 1  
   114   43  108 1  
   115   43  109 1  
   116   48  110 1  
   117   49  111 1  
   118   53  112 1  
   119   53  113 1  
   120   56  114 1  
   121   57  115 1  
   122   58  116 1  
   123   59  117 1  
   124   61  118 1  
   125   62  119 1  
@<TRIPOS>SUBSTRUCTURE
     1 EBU         1

