### 
### Created by X-TOOL on Mon Sep 10 21:13:33 2018
### 

@<TRIPOS>MOLECULE
5mwo_ligand
   22    23     1     0     0
SMALL
GAST_HUCK


@<TRIPOS>ATOM
      1 C10         4.4490   26.0820    4.0630 C.3       1 J6W         0.0934
      2 C01         9.5030   27.8440    4.9690 C.ar      1 J6W        -0.0595
      3 C02         8.2740   27.3590    4.5090 C.ar      1 J6W         0.0270
      4 C03         8.0930   26.9950    3.1840 C.ar      1 J6W        -0.0449
      5 C04         9.1590   27.1120    2.3080 C.ar      1 J6W        -0.0724
      6 C05        10.3630   27.5980    2.7560 C.ar      1 J6W        -0.0605
      7 C06        10.5700   27.9770    4.0890 C.ar      1 J6W        -0.0722
      8 C07        11.4540   27.6870    1.7250 C.3       1 J6W        -0.0359
      9 C08         6.7200   26.4870    2.8120 C.2       1 J6W        -0.0646
     10 C09         5.9070   26.5150    3.9820 C.2       1 J6W         0.0421
     11 O11         3.6390   27.2150    4.2510 O.3       1 J6W        -0.3785
     12 S12         6.8200   27.0810    5.2530 S.3       1 J6W        -0.0312
     13 H1          4.3170   25.3913    4.9088 H         1 J6W         0.0771
     14 H2          4.1631   25.5766    3.1288 H         1 J6W         0.0771
     15 H3          9.6228   28.1159    6.0115 H         1 J6W         0.0546
     16 H4          9.0435   26.8205    1.2703 H         1 J6W         0.0462
     17 H5         11.5279   28.3601    4.4217 H         1 J6W         0.0485
     18 H6         11.0703   27.3399    0.7543 H         1 J6W         0.0377
     19 H7         12.3007   27.0554    2.0317 H         1 J6W         0.0377
     20 H8         11.7890   28.7308    1.6348 H         1 J6W         0.0377
     21 H9          6.4063   26.1571    1.8227 H         1 J6W         0.0272
     22 H10         3.7547   27.8105    3.5199 H         1 J6W         0.2134
@<TRIPOS>BOND
     1   10    1 1  
     2    1   11 1  
     3    3    2 ar 
     4    2    7 ar 
     5    4    3 ar 
     6    3   12 1  
     7    4    5 ar 
     8    9    4 1  
     9    5    6 ar 
    10    6    7 ar 
    11    6    8 1  
    12    9   10 2  
    13   10   12 1  
    14    1   13 1  
    15    1   14 1  
    16    2   15 1  
    17    5   16 1  
    18    7   17 1  
    19    8   18 1  
    20    8   19 1  
    21    8   20 1  
    22    9   21 1  
    23   11   22 1  
@<TRIPOS>SUBSTRUCTURE
     1 J6W         1

