### 
### Created by X-TOOL on Wed Jan  1 15:39:37 2020
### 

@<TRIPOS>MOLECULE
5mwp_ligand
   47    50     1     0     0
SMALL
GAST_HUCK


@<TRIPOS>ATOM
      1 C1          7.6680   19.6960   13.4720 C.3       1 ECV         0.0196
      2 C3          7.7920   17.3020   13.1310 C.2       1 ECV         0.1785
      3 O4          7.7620   17.3680   11.9100 O.2       1 ECV        -0.3970
      4 C7          6.8580   14.5920   15.6860 C.3       1 ECV         0.0970
      5 C9          9.1180   14.1310   16.1940 C.ar      1 ECV         0.1117
      6 C10        10.1220   13.1910   16.3610 C.ar      1 ECV        -0.0125
      7 C11        11.3290   13.6200   16.8690 C.ar      1 ECV         0.1074
      8 C13        11.5460   14.9450   17.1940 C.ar      1 ECV        -0.0531
      9 C14        10.5420   15.8780   17.0320 C.ar      1 ECV        -0.0504
     10 C15         9.3110   15.4660   16.5420 C.ar      1 ECV         0.0956
     11 C19         8.1960   17.5260   18.6070 C.ar      1 ECV         0.0303
     12 C20         8.2310   16.4430   19.4730 C.ar      1 ECV        -0.0654
     13 C21         8.5750   16.6370   20.8070 C.ar      1 ECV        -0.0392
     14 C22         8.8740   17.9170   21.2520 C.ar      1 ECV         0.1214
     15 C24        10.0700   19.2540   22.7630 C.3       1 ECV         0.1624
     16 N2          7.9000   18.3720   13.9500 N.am      1 ECV        -0.2899
     17 C5          7.7900   15.9830   13.8490 C.3       1 ECV         0.0674
     18 C6          7.3000   15.9800   15.2900 C.3       1 ECV         0.1067
     19 O8          7.9250   13.6410   15.6390 O.3       1 ECV        -0.3220
     20 F12        12.3030   12.7170   17.0280 F         1 ECV        -0.1990
     21 N16         8.2570   16.3940   16.3180 N.am      1 ECV        -0.2178
     22 C17         7.8470   17.4400   17.1630 C.2       1 ECV         0.2199
     23 O18         7.1730   18.3730   16.7490 O.2       1 ECV        -0.3800
     24 O23         9.1780   18.1420   22.5880 O.3       1 ECV        -0.2997
     25 C25         9.5520   20.5090   22.1250 C.2       1 ECV         0.2315
     26 O26         9.6090   21.6080   22.6690 O.2       1 ECV        -0.3833
     27 N27         9.0730   20.2820   20.8590 N.am      1 ECV        -0.2335
     28 C28         8.8080   18.9910   20.3900 C.ar      1 ECV         0.1026
     29 C29         8.4920   18.7980   19.0630 C.ar      1 ECV        -0.0291
     30 H1          7.8076   20.4126   14.2948 H         1 ECV         0.0484
     31 H2          6.6395   19.7728   13.0895 H         1 ECV         0.0484
     32 H3          8.3780   19.9236   12.6633 H         1 ECV         0.0484
     33 H4          6.0643   14.2653   14.9981 H         1 ECV         0.0638
     34 H5          6.4625   14.6274   16.7118 H         1 ECV         0.0638
     35 H6          9.9631   12.1509   16.1003 H         1 ECV         0.0484
     36 H7         12.5112   15.2539   17.5788 H         1 ECV         0.0473
     37 H8         10.7128   16.9184   17.2841 H         1 ECV         0.0459
     38 H9          7.9913   15.4495   19.1118 H         1 ECV         0.0516
     39 H10         8.6091   15.7972   21.4916 H         1 ECV         0.0510
     40 H11        11.0407   19.0027   22.3108 H         1 ECV         0.0861
     41 H12        10.2028   19.4342   23.8400 H         1 ECV         0.0861
     42 H13         8.1472   18.2329   14.9089 H         1 ECV         0.1847
     43 H14         8.8226   15.6040   13.8492 H         1 ECV         0.0531
     44 H15         7.1473   15.2961   13.2789 H         1 ECV         0.0531
     45 H16         6.4384   16.6622   15.3374 H         1 ECV         0.0668
     46 H17         8.9088   21.0616   20.2547 H         1 ECV         0.2223
     47 H18         8.4754   19.6391   18.3793 H         1 ECV         0.0514
@<TRIPOS>BOND
     1   16    1 1  
     2    2    3 2  
     3    2   16 am 
     4   17    2 1  
     5   18    4 1  
     6    4   19 1  
     7    5    6 ar 
     8   10    5 ar 
     9    5   19 1  
    10    6    7 ar 
    11    8    7 ar 
    12    7   20 1  
    13    9    8 ar 
    14   10    9 ar 
    15   21   10 1  
    16   11   12 ar 
    17   22   11 1  
    18   11   29 ar 
    19   12   13 ar 
    20   13   14 ar 
    21   14   24 1  
    22   14   28 ar 
    23   24   15 1  
    24   15   25 1  
    25   18   17 1  
    26   21   18 1  
    27   21   22 am 
    28   22   23 2  
    29   25   26 2  
    30   25   27 am 
    31   27   28 1  
    32   28   29 ar 
    33    1   30 1  
    34    1   31 1  
    35    1   32 1  
    36    4   33 1  
    37    4   34 1  
    38    6   35 1  
    39    8   36 1  
    40    9   37 1  
    41   12   38 1  
    42   13   39 1  
    43   15   40 1  
    44   15   41 1  
    45   16   42 1  
    46   17   43 1  
    47   17   44 1  
    48   18   45 1  
    49   27   46 1  
    50   29   47 1  
@<TRIPOS>SUBSTRUCTURE
     1 ECV         1

