### 
### Created by X-TOOL on Wed Jan  1 15:39:38 2020
### 

@<TRIPOS>MOLECULE
5mwy_ligand
   60    65     1     0     0
SMALL
GAST_HUCK


@<TRIPOS>ATOM
      1 C1          8.1500   17.6680   16.7500 C.3       1 YNU         0.0793
      2 C3          8.5880   19.0570   17.1960 C.3       1 YNU         0.0791
      3 C7          7.4860   16.0690   14.9230 C.2       1 YNU        -0.0363
      4 C8          8.6490   16.9210   19.1290 C.3       1 YNU        -0.0253
      5 C9          8.4430   15.1710   17.1200 C.3       1 YNU         0.0758
      6 C10         9.0360   18.3520   21.0400 C.3       1 YNU         0.1061
      7 C11         8.9920   19.3700   18.6490 C.3       1 YNU        -0.0162
      8 C12         7.5640   14.8550   15.8660 C.3       1 YNU         0.0044
      9 C14         7.7500   15.8870   13.6180 C.2       1 YNU         0.0479
     10 C15         9.9330   15.0910   16.7840 C.2       1 YNU         0.2392
     11 C16         8.9330   20.2830   22.3250 C.2       1 YNU         0.2344
     12 C19         9.0650   16.8900   21.4950 C.3       1 YNU        -0.0183
     13 C20         7.7220   17.0110   12.6510 C.2       1 YNU         0.1764
     14 C21        10.4760   18.9030   21.1290 C.3       1 YNU        -0.0005
     15 C27         6.8590   18.7250   19.7650 C.3       1 YNU        -0.0562
     16 O28        10.8910   14.9000   17.7130 O.3       1 YNU        -0.2798
     17 C30        11.9960   13.9800   17.4230 C.3       1 YNU         0.0658
     18 O2          9.4960   18.1630   16.5420 O.3       1 YNU        -0.3758
     19 C4          8.0250   16.5210   17.7760 C.3       1 YNU         0.0079
     20 C5          7.3020   17.4760   15.4690 C.3       1 YNU        -0.0091
     21 C6          8.3680   18.3980   19.6400 C.3       1 YNU         0.0072
     22 O13         8.3240   19.1260   22.0210 O.3       1 YNU        -0.2695
     23 C17         8.4300   16.0510   20.3760 C.3       1 YNU        -0.0462
     24 C18         7.7900   18.5620   14.4920 C.3       1 YNU        -0.0587
     25 O22        10.2940   15.1980   15.6480 O.2       1 YNU        -0.3699
     26 O23         8.4390   21.2000   22.9150 O.2       1 YNU        -0.3704
     27 O24         8.0290   16.9180   11.4920 O.2       1 YNU        -0.3440
     28 C25        10.3440   20.2700   21.8460 C.3       1 YNU         0.0517
     29 C26         7.2650   18.3490   13.0950 C.3       1 YNU         0.0244
     30 C29         5.8040   17.6700   15.7770 C.3       1 YNU        -0.0866
     31 H1          8.1679   19.9476   16.7057 H         1 YNU         0.0614
     32 H2          9.7288   16.8700   18.9257 H         1 YNU         0.0312
     33 H3          8.2438   14.3842   17.8624 H         1 YNU         0.0583
     34 H4          8.6619   20.3896   18.8969 H         1 YNU         0.0297
     35 H5         10.0870   19.3083   18.7336 H         1 YNU         0.0297
     36 H6          8.0051   14.0062   15.3230 H         1 YNU         0.0479
     37 H7          6.5486   14.5911   16.1965 H         1 YNU         0.0479
     38 H8          7.9911   14.8869   13.2608 H         1 YNU         0.1318
     39 H9          8.4897   16.7737   22.4253 H         1 YNU         0.0297
     40 H10        10.1034   16.5686   21.6634 H         1 YNU         0.0297
     41 H11        10.9016   19.0345   20.1232 H         1 YNU         0.0322
     42 H12        11.1143   18.2221   21.7112 H         1 YNU         0.0322
     43 H13         6.3913   18.0308   20.4787 H         1 YNU         0.0236
     44 H14         6.3781   18.6188   18.7814 H         1 YNU         0.0236
     45 H15         6.7360   19.7575   20.1237 H         1 YNU         0.0236
     46 H16        12.6798   13.9454   18.2840 H         1 YNU         0.0577
     47 H17        12.5421   14.3311   16.5350 H         1 YNU         0.0577
     48 H18        11.5949   12.9736   17.2326 H         1 YNU         0.0577
     49 H19         6.9514   16.4095   17.9878 H         1 YNU         0.0352
     50 H20         8.9354   15.0793   20.2745 H         1 YNU         0.0269
     51 H21         7.3581   15.8891   20.5624 H         1 YNU         0.0269
     52 H22         8.8895   18.5448   14.4636 H         1 YNU         0.0173
     53 H23         7.4478   19.5430   14.8532 H         1 YNU         0.0173
     54 H24        11.0455   20.3393   22.6904 H         1 YNU         0.0519
     55 H25        10.5286   21.0990   21.1469 H         1 YNU         0.0519
     56 H26         6.1658   18.3901   13.0958 H         1 YNU         0.0483
     57 H27         7.6605   19.1242   12.4222 H         1 YNU         0.0483
     58 H28         5.4690   16.8886   16.4750 H         1 YNU         0.0113
     59 H29         5.2258   17.6004   14.8439 H         1 YNU         0.0113
     60 H30         5.6483   18.6593   16.2320 H         1 YNU         0.0113
@<TRIPOS>BOND
     1    1    2 1  
     2    1   18 1  
     3   19    1 1  
     4    1   20 1  
     5    2    7 1  
     6   18    2 1  
     7    8    3 1  
     8    3    9 2  
     9   20    3 1  
    10    4   19 1  
    11   21    4 1  
    12    4   23 1  
    13    5    8 1  
    14    5   10 1  
    15   19    5 1  
    16    6   12 1  
    17    6   14 1  
    18    6   21 1  
    19    6   22 1  
    20    7   21 1  
    21    9   13 1  
    22   10   16 1  
    23   10   25 2  
    24   22   11 1  
    25   11   26 2  
    26   11   28 1  
    27   12   23 1  
    28   13   27 2  
    29   13   29 1  
    30   14   28 1  
    31   21   15 1  
    32   16   17 1  
    33   20   24 1  
    34   20   30 1  
    35   24   29 1  
    36    2   31 1  
    37    4   32 1  
    38    5   33 1  
    39    7   34 1  
    40    7   35 1  
    41    8   36 1  
    42    8   37 1  
    43    9   38 1  
    44   12   39 1  
    45   12   40 1  
    46   14   41 1  
    47   14   42 1  
    48   15   43 1  
    49   15   44 1  
    50   15   45 1  
    51   17   46 1  
    52   17   47 1  
    53   17   48 1  
    54   19   49 1  
    55   23   50 1  
    56   23   51 1  
    57   24   52 1  
    58   24   53 1  
    59   28   54 1  
    60   28   55 1  
    61   29   56 1  
    62   29   57 1  
    63   30   58 1  
    64   30   59 1  
    65   30   60 1  
@<TRIPOS>SUBSTRUCTURE
     1 YNU         1

