### 
### Created by X-TOOL on Wed Jan  1 15:39:35 2020
### 

@<TRIPOS>MOLECULE
5mwz_ligand
   71    74     1     0     0
SMALL
GAST_HUCK


@<TRIPOS>ATOM
      1 N          -7.8330    7.6440    9.6110 N.4       1 KGU         0.2597
      2 CA         -6.4770    8.2090    9.5000 C.3       1 KGU         0.0630
      3 C          -6.3790    9.0570    8.2230 C.2       1 KGU         0.2424
      4 O          -5.3030    9.1670    7.6390 O.2       1 KGU        -0.3823
      5 CAA        -4.7250    9.7750    3.3330 C.3       1 KGU        -0.0400
      6 CAB       -11.0240   12.2730    2.5690 C.3       1 KGU        -0.0400
      7 CAC       -11.1680    5.1300   10.2180 C.3       1 KGU        -0.0427
      8 CAG        -6.8150   10.7010    5.7940 C.ar      1 KGU        -0.0403
      9 CAH        -9.3810   11.6860    5.5460 C.ar      1 KGU        -0.0448
     10 CAI       -12.1990   10.5150    9.4500 C.3       1 KGU        -0.0496
     11 CAJ       -10.7790   10.5120    9.9720 C.3       1 KGU        -0.0341
     12 CAK       -12.2400    9.6570    8.2050 C.3       1 KGU        -0.0341
     13 CAL        -4.8300   11.2170    3.8430 C.3       1 KGU         0.0492
     14 CAM       -10.1380   13.2580    3.3270 C.3       1 KGU         0.0490
     15 CAN        -9.8710   11.2010    8.9640 C.3       1 KGU         0.0215
     16 CAO       -11.3970   10.2970    7.1100 C.3       1 KGU         0.0215
     17 CAP        -9.4420    5.9830    8.7800 C.3       1 KGU         0.0092
     18 CAQ        -9.5460    6.6800   11.0830 C.3       1 KGU         0.0092
     19 CAR        -8.0140    6.5070    8.6950 C.3       1 KGU         0.0113
     20 CAS        -8.1170    7.2000   10.9850 C.3       1 KGU         0.0113
     21 CAW        -7.7590   10.4160    6.7940 C.ar      1 KGU         0.0598
     22 CAX        -9.0650   10.9030    6.6550 C.ar      1 KGU         0.0372
     23 CAY        -6.5590   12.4940    2.6410 C.2       1 KGU         0.3099
     24 CAZ        -7.8650   12.9880    2.5140 C.2       1 KGU         0.3097
     25 CBA        -7.1440   11.4760    4.6740 C.ar      1 KGU         0.0709
     26 CBB        -8.4400   11.9740    4.5550 C.ar      1 KGU         0.0709
     27 NAU        -7.5420    9.6540    7.8900 N.am      1 KGU        -0.2447
     28 NBC        -9.7620    5.5600   10.1530 N.4       1 KGU         0.2405
     29 NBE       -10.0430   10.7000    7.5720 N.pl3     1 KGU        -0.3237
     30 NBF        -6.2180   11.7500    3.7180 N.am      1 KGU        -0.2223
     31 NBG        -8.7700   12.7270    3.4830 N.am      1 KGU        -0.2228
     32 OAE        -5.7110   12.7350    1.7700 O.2       1 KGU        -0.3540
     33 OAF        -8.1890   13.6420    1.5200 O.2       1 KGU        -0.3542
     34 H1         -8.4936    8.3640    9.3635 H         1 KGU         0.2057
     35 H2         -5.7418    7.3920    9.4550 H         1 KGU         0.1066
     36 H3         -6.2700    8.8407   10.3764 H         1 KGU         0.1066
     37 H4         -3.6891    9.4218    3.4428 H         1 KGU         0.0254
     38 H5         -5.0140    9.7392    2.2723 H         1 KGU         0.0254
     39 H6         -5.3965    9.1293    3.9180 H         1 KGU         0.0254
     40 H7        -12.0355   12.6931    2.4672 H         1 KGU         0.0254
     41 H8        -11.0751   11.3242    3.1232 H         1 KGU         0.0254
     42 H9        -10.6000   12.0919    1.5703 H         1 KGU         0.0254
     43 H10       -11.3279    4.2929    9.5225 H         1 KGU         0.0778
     44 H11       -11.8215    5.9693    9.9380 H         1 KGU         0.0778
     45 H12       -11.4055    4.8062   11.2421 H         1 KGU         0.0778
     46 H13        -5.8078   10.3121    5.8909 H         1 KGU         0.0318
     47 H14       -10.3853   12.0825    5.4500 H         1 KGU         0.0328
     48 H15       -12.5048   11.5429    9.2054 H         1 KGU         0.0266
     49 H16       -12.8775   10.1018   10.2108 H         1 KGU         0.0266
     50 H17       -10.4439    9.4747   10.1194 H         1 KGU         0.0284
     51 H18       -10.7388   11.0501   10.9306 H         1 KGU         0.0284
     52 H19       -13.2800    9.5653    7.8587 H         1 KGU         0.0284
     53 H20       -11.8411    8.6583    8.4363 H         1 KGU         0.0284
     54 H21        -4.1506   11.8525    3.2561 H         1 KGU         0.0578
     55 H22        -4.5330   11.2426    4.9018 H         1 KGU         0.0578
     56 H23       -10.5698   13.4377    4.3226 H         1 KGU         0.0577
     57 H24       -10.0947   14.2054    2.7697 H         1 KGU         0.0577
     58 H25        -8.8263   11.0368    9.2668 H         1 KGU         0.0503
     59 H26       -10.0913   12.2786    8.9761 H         1 KGU         0.0503
     60 H27       -11.9215   11.1916    6.7431 H         1 KGU         0.0503
     61 H28       -11.2850    9.5746    6.2881 H         1 KGU         0.0503
     62 H29        -9.5517    5.1231    8.1028 H         1 KGU         0.0868
     63 H30       -10.1373    6.7796    8.4767 H         1 KGU         0.0868
     64 H31       -10.2433    7.4938   10.8348 H         1 KGU         0.0868
     65 H32        -9.7345    6.3362   12.1107 H         1 KGU         0.0868
     66 H33        -7.3154    5.7035    8.9712 H         1 KGU         0.0868
     67 H34        -7.8080    6.8341    7.6652 H         1 KGU         0.0868
     68 H35        -7.9903    8.0475   11.6747 H         1 KGU         0.0868
     69 H36        -7.4179    6.3963   11.2594 H         1 KGU         0.0868
     70 H37        -8.3147    9.5208    8.5106 H         1 KGU         0.2174
     71 H38        -9.1646    4.7909   10.4130 H         1 KGU         0.2035
@<TRIPOS>BOND
     1    2    1 1  
     2    1   19 1  
     3    1   20 1  
     4    3    2 1  
     5    3    4 2  
     6   27    3 am 
     7   13    5 1  
     8   14    6 1  
     9   28    7 1  
    10    8   21 ar 
    11   25    8 ar 
    12    9   22 ar 
    13   26    9 ar 
    14   11   10 1  
    15   12   10 1  
    16   15   11 1  
    17   16   12 1  
    18   30   13 1  
    19   31   14 1  
    20   29   15 1  
    21   29   16 1  
    22   19   17 1  
    23   17   28 1  
    24   20   18 1  
    25   18   28 1  
    26   21   22 ar 
    27   21   27 1  
    28   22   29 1  
    29   23   24 1  
    30   30   23 am 
    31   23   32 2  
    32   24   31 am 
    33   24   33 2  
    34   25   26 ar 
    35   25   30 1  
    36   26   31 1  
    37    1   34 1  
    38    2   35 1  
    39    2   36 1  
    40    5   37 1  
    41    5   38 1  
    42    5   39 1  
    43    6   40 1  
    44    6   41 1  
    45    6   42 1  
    46    7   43 1  
    47    7   44 1  
    48    7   45 1  
    49    8   46 1  
    50    9   47 1  
    51   10   48 1  
    52   10   49 1  
    53   11   50 1  
    54   11   51 1  
    55   12   52 1  
    56   12   53 1  
    57   13   54 1  
    58   13   55 1  
    59   14   56 1  
    60   14   57 1  
    61   15   58 1  
    62   15   59 1  
    63   16   60 1  
    64   16   61 1  
    65   17   62 1  
    66   17   63 1  
    67   18   64 1  
    68   18   65 1  
    69   19   66 1  
    70   19   67 1  
    71   20   68 1  
    72   20   69 1  
    73   27   70 1  
    74   28   71 1  
@<TRIPOS>SUBSTRUCTURE
     1 KGU         1

