### 
### Created by X-TOOL on Mon Sep 10 21:13:31 2018
### 

@<TRIPOS>MOLECULE
5mxf_ligand
   26    26     1     0     0
SMALL
GAST_HUCK


@<TRIPOS>ATOM
      1 C1         -2.4940   15.3100   -8.7520 C.3       1 MFU         0.1875
      2 C2         -2.6990   15.5830  -10.2520 C.3       1 MFU         0.1341
      3 C3         -4.0580   16.2280  -10.5440 C.3       1 MFU         0.1140
      4 C4         -4.3170   17.4370   -9.6380 C.3       1 MFU         0.1095
      5 C5         -4.1190   17.0130   -8.1750 C.3       1 MFU         0.0873
      6 C6         -4.3310   18.1320   -7.1550 C.3       1 MFU        -0.0361
      7 O1         -3.2850   14.1970   -8.2810 O.3       1 MFU        -0.3520
      8 O2         -2.5630   14.3640  -10.9950 O.3       1 MFU        -0.3841
      9 O3         -4.1070   16.6640  -11.9050 O.3       1 MFU        -0.3864
     10 O4         -3.4770   18.5390  -10.0530 O.3       1 MFU        -0.3866
     11 O5         -2.7940   16.5040   -8.0080 O.3       1 MFU        -0.3431
     12 CM         -2.8240   13.6680   -7.0300 C.3       1 MFU         0.0395
     13 H1         -1.4349   15.0594   -8.5927 H         1 MFU         0.0937
     14 H2         -1.9144   16.2802  -10.5810 H         1 MFU         0.0671
     15 H3         -4.8460   15.4796  -10.3739 H         1 MFU         0.0648
     16 H4         -5.3643   17.7511   -9.7585 H         1 MFU         0.0646
     17 H5         -4.8414   16.2128   -7.9565 H         1 MFU         0.0621
     18 H6         -4.1692   17.7388   -6.1405 H         1 MFU         0.0255
     19 H7         -5.3584   18.5158   -7.2399 H         1 MFU         0.0255
     20 H8         -3.6180   18.9464   -7.3506 H         1 MFU         0.0255
     21 H9         -3.2546   13.7628  -10.7443 H         1 MFU         0.2101
     22 H10        -3.4412   17.3264  -12.0483 H         1 MFU         0.2100
     23 H11        -3.6636   19.2985   -9.5137 H         1 MFU         0.2100
     24 H12        -3.4660   12.8271   -6.7286 H         1 MFU         0.0525
     25 H13        -2.8651   14.4543   -6.2619 H         1 MFU         0.0525
     26 H14        -1.7874   13.3168   -7.1401 H         1 MFU         0.0525
@<TRIPOS>BOND
     1    1    2 1  
     2    1    7 1  
     3    1   11 1  
     4    2    3 1  
     5    2    8 1  
     6    3    4 1  
     7    3    9 1  
     8    4    5 1  
     9    4   10 1  
    10    5    6 1  
    11    5   11 1  
    12    7   12 1  
    13    1   13 1  
    14    2   14 1  
    15    3   15 1  
    16    4   16 1  
    17    5   17 1  
    18    6   18 1  
    19    6   19 1  
    20    6   20 1  
    21    8   21 1  
    22    9   22 1  
    23   10   23 1  
    24   12   24 1  
    25   12   25 1  
    26   12   26 1  
@<TRIPOS>SUBSTRUCTURE
     1 MFU         1

