### 
### Created by X-TOOL on Mon Sep 10 21:13:32 2018
### 

@<TRIPOS>MOLECULE
5mxk_ligand
   28    29     1     0     0
SMALL
GAST_HUCK


@<TRIPOS>ATOM
      1 C13       127.5610   26.5350    5.0060 C.3       1 ZHA         0.0206
      2 C01       130.2520   26.7200    2.1810 C.ar      1 ZHA        -0.0623
      3 C02       129.6400   26.8260    3.4440 C.ar      1 ZHA         0.0183
      4 C03       130.4200   27.2510    4.5320 C.ar      1 ZHA        -0.0370
      5 C04       131.7810   27.5620    4.3790 C.ar      1 ZHA        -0.0339
      6 C05       132.3970   27.4430    3.1230 C.ar      1 ZHA         0.0654
      7 C06       131.6140   27.0280    2.0200 C.ar      1 ZHA        -0.0412
      8 N07       133.8090   27.8070    3.0180 N.am      1 ZHA        -0.2322
      9 C08       134.6530   27.8430    1.8290 C.2       1 ZHA         0.2024
     10 C09       136.0960   28.3030    2.0110 C.3       1 ZHA         0.0320
     11 O10       134.2660   27.5250    0.7480 O.2       1 ZHA        -0.3841
     12 C11       129.7340   27.3600    5.9510 C.3       1 ZHA        -0.0168
     13 C12       128.5790   26.3550    6.0930 C.3       1 ZHA        -0.0277
     14 C14       128.1550   26.5040    3.6560 C.2       1 ZHA         0.1170
     15 O15       127.4490   26.2460    2.7440 O.2       1 ZHA        -0.3904
     16 H1        127.0625   27.5051    5.1484 H         1 ZHA         0.0482
     17 H2        126.8189   25.7267    5.0821 H         1 ZHA         0.0482
     18 H3        129.6685   26.3984    1.3259 H         1 ZHA         0.0616
     19 H4        132.3581   27.8952    5.2340 H         1 ZHA         0.0451
     20 H5        132.0696   26.9467    1.0398 H         1 ZHA         0.0467
     21 H6        134.2552   28.0655    3.8748 H         1 ZHA         0.2281
     22 H7        136.6129   28.2814    1.0403 H         1 ZHA         0.0472
     23 H8        136.6091   27.6310    2.7146 H         1 ZHA         0.0472
     24 H9        136.1066   29.3283    2.4093 H         1 ZHA         0.0472
     25 H10       129.3402   28.3788    6.0811 H         1 ZHA         0.0439
     26 H11       130.4847   27.1549    6.7284 H         1 ZHA         0.0439
     27 H12       128.9843   25.3339    6.0385 H         1 ZHA         0.0312
     28 H13       128.0921   26.5047    7.0679 H         1 ZHA         0.0312
@<TRIPOS>BOND
     1    1   13 1  
     2   14    1 1  
     3    3    2 ar 
     4    2    7 ar 
     5    3    4 ar 
     6    3   14 1  
     7    4    5 ar 
     8    4   12 1  
     9    5    6 ar 
    10    6    7 ar 
    11    6    8 1  
    12    8    9 am 
    13    9   10 1  
    14    9   11 2  
    15   12   13 1  
    16   14   15 2  
    17    1   16 1  
    18    1   17 1  
    19    2   18 1  
    20    5   19 1  
    21    7   20 1  
    22    8   21 1  
    23   10   22 1  
    24   10   23 1  
    25   10   24 1  
    26   12   25 1  
    27   12   26 1  
    28   13   27 1  
    29   13   28 1  
@<TRIPOS>SUBSTRUCTURE
     1 ZHA         1

