### 
### Created by X-TOOL on Wed Jan  1 15:39:36 2020
### 

@<TRIPOS>MOLECULE
5mxq_ligand
   28    29     1     0     0
SMALL
GAST_HUCK


@<TRIPOS>ATOM
      1 C1        -27.5010  -22.3680   -6.4490 C.ar      1 U8K         0.0979
      2 C2        -28.8330  -22.5580   -6.0240 C.ar      1 U8K         0.1059
      3 C3        -29.8850  -21.9880   -6.7820 C.ar      1 U8K        -0.0218
      4 C5        -28.3750  -21.0530   -8.2690 C.ar      1 U8K        -0.0032
      5 C7        -26.3370  -22.9200   -5.8650 C.2       1 U8K         0.0710
      6 O9        -26.3690  -23.7110   -4.8890 O.co2     1 U8K        -0.5627
      7 N10       -29.0320  -23.2630   -4.9050 N.am      1 U8K        -0.1762
      8 C14       -30.8460  -22.0050   -3.1350 C.ar      1 U8K         0.1146
      9 O8        -25.2260  -22.7640   -6.4380 O.co2     1 U8K        -0.5627
     10 N6        -27.3610  -21.5980   -7.5260 N.ar      1 U8K        -0.3006
     11 C4        -29.6820  -21.2520   -7.8940 C.ar      1 U8K        -0.0475
     12 S11       -30.6390  -23.2810   -4.2380 S.o2      1 U8K         0.0919
     13 O13       -31.7550  -23.4060   -5.2460 O.2       1 U8K        -0.1441
     14 O12       -30.6380  -24.5260   -3.3960 O.2       1 U8K        -0.1441
     15 C19       -31.9570  -21.1430   -3.1760 C.ar      1 U8K        -0.0345
     16 C18       -32.1060  -20.1310   -2.2150 C.ar      1 U8K        -0.0599
     17 C17       -31.1080  -19.9950   -1.2450 C.ar      1 U8K        -0.0616
     18 C16       -30.0140  -20.8580   -1.1970 C.ar      1 U8K        -0.0599
     19 C15       -29.8820  -21.8670   -2.1480 C.ar      1 U8K        -0.0345
     20 H1        -30.9045  -22.1515   -6.4519 H         1 U8K         0.0610
     21 H2        -28.1467  -20.4658   -9.1511 H         1 U8K         0.0687
     22 H3        -28.2840  -23.7619   -4.4673 H         1 U8K         0.2216
     23 H4        -30.5073  -20.8388   -8.4625 H         1 U8K         0.0680
     24 H5        -32.7023  -21.2611   -3.9543 H         1 U8K         0.0637
     25 H6        -32.9687  -19.4746   -2.2244 H         1 U8K         0.0618
     26 H7        -31.1868  -19.1995   -0.5128 H         1 U8K         0.0618
     27 H8        -29.2667  -20.7438   -0.4201 H         1 U8K         0.0618
     28 H9        -29.0322  -22.5392   -2.1168 H         1 U8K         0.0637
@<TRIPOS>BOND
     1    1    2 ar 
     2    1    5 1  
     3    1   10 ar 
     4    2    3 ar 
     5    2    7 1  
     6    3   11 ar 
     7   10    4 ar 
     8    4   11 ar 
     9    5    6 ar 
    10    5    9 ar 
    11    7   12 am 
    12   12    8 1  
    13    8   15 ar 
    14    8   19 ar 
    15   12   13 2  
    16   12   14 2  
    17   15   16 ar 
    18   16   17 ar 
    19   17   18 ar 
    20   18   19 ar 
    21    3   20 1  
    22    4   21 1  
    23    7   22 1  
    24   11   23 1  
    25   15   24 1  
    26   16   25 1  
    27   17   26 1  
    28   18   27 1  
    29   19   28 1  
@<TRIPOS>SUBSTRUCTURE
     1 U8K         1

