### 
### Created by X-TOOL on Wed Jan  1 15:39:37 2020
### 

@<TRIPOS>MOLECULE
5mxr_ligand
   25    26     1     0     0
SMALL
GAST_HUCK


@<TRIPOS>ATOM
      1 C2         -5.1430  -16.7630   -5.8220 C.2       1 JTY         0.1581
      2 C3         -6.3650  -16.8110   -6.4130 C.2       1 JTY         0.0595
      3 N4         -6.3540  -17.6400   -7.4670 N.2       1 JTY        -0.3342
      4 C5         -5.2080  -18.2180   -7.8450 C.2       1 JTY         0.0588
      5 C6         -7.5230  -16.2050   -5.9940 C.2       1 JTY         0.0365
      6 O11        -2.9050  -17.3990   -3.7060 O.2       1 JTY        -0.1432
      7 C13        -1.9660  -15.1410   -5.2290 C.ar      1 JTY         0.1156
      8 C14        -1.9350  -15.1720   -6.6330 C.ar      1 JTY        -0.0344
      9 O8         -7.5770  -15.4630   -4.9740 O.co2     1 JTY        -0.5770
     10 O7         -8.6200  -16.4150   -6.5950 O.co2     1 JTY        -0.5770
     11 S1         -4.0480  -17.7660   -6.7670 S.3       1 JTY         0.0217
     12 N9         -4.8290  -16.0510   -4.7390 N.am      1 JTY        -0.1612
     13 S10        -3.2860  -15.9670   -4.1460 S.o2      1 JTY         0.0956
     14 O12        -3.3750  -15.0440   -2.9420 O.2       1 JTY        -0.1432
     15 C18        -0.9470  -14.4300   -4.5610 C.ar      1 JTY        -0.0344
     16 C17         0.0670  -13.7790   -5.2680 C.ar      1 JTY        -0.0599
     17 C16         0.0850  -13.8180   -6.6700 C.ar      1 JTY        -0.0616
     18 C15        -0.9270  -14.5070   -7.3490 C.ar      1 JTY        -0.0599
     19 H1         -5.0680  -18.8681   -8.7074 H         1 JTY         0.0977
     20 H2         -2.7011  -15.7177   -7.1719 H         1 JTY         0.0637
     21 H3         -5.5535  -15.5486   -4.2671 H         1 JTY         0.2297
     22 H4         -0.9508  -14.3879   -3.4778 H         1 JTY         0.0637
     23 H5          0.8415  -13.2426   -4.7319 H         1 JTY         0.0618
     24 H6          0.8740  -13.3200   -7.2218 H         1 JTY         0.0618
     25 H7         -0.9323  -14.5271   -8.4328 H         1 JTY         0.0618
@<TRIPOS>BOND
     1    1    2 2  
     2    1   11 1  
     3   12    1 1  
     4    2    3 1  
     5    2    5 1  
     6    4    3 2  
     7   11    4 1  
     8    5    9 ar 
     9    5   10 ar 
    10   13    6 2  
    11    7    8 ar 
    12   13    7 1  
    13    7   15 ar 
    14    8   18 ar 
    15   12   13 am 
    16   13   14 2  
    17   15   16 ar 
    18   16   17 ar 
    19   17   18 ar 
    20    4   19 1  
    21    8   20 1  
    22   12   21 1  
    23   15   22 1  
    24   16   23 1  
    25   17   24 1  
    26   18   25 1  
@<TRIPOS>SUBSTRUCTURE
     1 JTY         1

