### 
### Created by X-TOOL on Mon Sep 10 21:13:34 2018
### 

@<TRIPOS>MOLECULE
5myg_ligand
   44    46     1     0     0
SMALL
GAST_HUCK


@<TRIPOS>ATOM
      1 C15       -10.9030    2.8520  -16.6860 C.ar      1 LS8        -0.0166
      2 C2         -7.7620   -1.5950  -17.1600 C.ar      1 LS8         0.0033
      3 C3         -7.6960   -2.0570  -15.8470 C.ar      1 LS8         0.0871
      4 C14        -9.7180    3.5910  -17.0500 C.2       1 LS8        -0.0533
      5 C4         -8.8620   -2.3840  -15.1530 C.ar      1 LS8        -0.0361
      6 C5        -10.0930   -2.2560  -15.7710 C.ar      1 LS8        -0.0320
      7 C12       -10.4010    5.4210  -15.5960 C.2       1 LS8         0.2168
      8 C11       -12.4180    5.2860  -14.2610 C.3       1 LS8         0.0459
      9 C6        -10.1680   -1.7950  -17.0810 C.ar      1 LS8         0.1503
     10 C1         -8.9920   -1.4600  -17.7790 C.ar      1 LS8         0.1284
     11 C18        -6.4080   -2.2000  -15.2160 C.1       1 LS8         0.0977
     12 C10       -11.8100    3.4410  -15.7930 C.ar      1 LS8         0.0705
     13 C13        -9.4710    4.8290  -16.5550 C.2       1 LS8         0.0257
     14 N2         -5.3710   -2.3010  -14.7500 N.1       1 LS8        -0.3283
     15 O          -9.1580   -1.0140  -19.0630 O.3       1 LS8        -0.3172
     16 C          -7.9900   -0.7170  -19.8170 C.3       1 LS8         0.0596
     17 S         -11.7740   -1.6800  -17.8280 S.o2      1 LS8         0.0888
     18 O1        -11.6410   -1.2560  -19.1890 O.2       1 LS8        -0.1458
     19 O2        -12.4590   -2.9010  -17.5320 O.2       1 LS8        -0.1458
     20 N         -12.5870   -0.4840  -17.0750 N.am      1 LS8        -0.1957
     21 C7        -12.3210    0.8900  -16.7810 C.ar      1 LS8         0.0486
     22 C16       -11.1690    1.5670  -17.1820 C.ar      1 LS8        -0.0514
     23 C9        -12.9710    2.7750  -15.4380 C.ar      1 LS8        -0.0481
     24 C8        -13.2260    1.5120  -15.9340 C.ar      1 LS8        -0.0541
     25 C17        -8.3080    5.6600  -16.9790 C.3       1 LS8        -0.0250
     26 O3        -10.1860    6.5180  -15.0890 O.2       1 LS8        -0.3998
     27 N1        -11.5230    4.7060  -15.2570 N.am      1 LS8        -0.2264
     28 H1         -6.8533   -1.3424  -17.6943 H         1 LS8         0.0640
     29 H2         -9.0041    3.1430  -17.7397 H         1 LS8         0.0550
     30 H3         -8.8030   -2.7381  -14.1302 H         1 LS8         0.0625
     31 H4        -10.9987   -2.5149  -15.2345 H         1 LS8         0.0633
     32 H5        -12.0381    6.2726  -13.9570 H         1 LS8         0.0563
     33 H6        -12.4667    4.6254  -13.3828 H         1 LS8         0.0563
     34 H7        -13.4237    5.3974  -14.6923 H         1 LS8         0.0563
     35 H8         -8.2793   -0.3727  -20.8209 H         1 LS8         0.0577
     36 H9         -7.3700   -1.6214  -19.9041 H         1 LS8         0.0577
     37 H10        -7.4170    0.0730  -19.3095 H         1 LS8         0.0577
     38 H11       -13.4813   -0.7809  -16.7403 H         1 LS8         0.2109
     39 H12       -10.4798    1.1004  -17.8765 H         1 LS8         0.0415
     40 H13       -13.6816    3.2466  -14.7688 H         1 LS8         0.0486
     41 H14       -14.1420    1.0019  -15.6588 H         1 LS8         0.0471
     42 H15        -7.6958    5.0946  -17.6970 H         1 LS8         0.0393
     43 H16        -7.6993    5.9150  -16.0990 H         1 LS8         0.0393
     44 H17        -8.6709    6.5835  -17.4539 H         1 LS8         0.0393
@<TRIPOS>BOND
     1    1    4 1  
     2    1   12 ar 
     3   22    1 ar 
     4    2    3 ar 
     5   10    2 ar 
     6    5    3 ar 
     7    3   11 1  
     8    4   13 2  
     9    6    5 ar 
    10    9    6 ar 
    11   13    7 1  
    12    7   26 2  
    13   27    7 am 
    14   27    8 1  
    15    9   10 ar 
    16   17    9 1  
    17   10   15 1  
    18   11   14 3  
    19   12   23 ar 
    20   12   27 1  
    21   13   25 1  
    22   15   16 1  
    23   17   18 2  
    24   17   19 2  
    25   20   17 am 
    26   21   20 1  
    27   21   22 ar 
    28   21   24 ar 
    29   23   24 ar 
    30    2   28 1  
    31    4   29 1  
    32    5   30 1  
    33    6   31 1  
    34    8   32 1  
    35    8   33 1  
    36    8   34 1  
    37   16   35 1  
    38   16   36 1  
    39   16   37 1  
    40   20   38 1  
    41   22   39 1  
    42   23   40 1  
    43   24   41 1  
    44   25   42 1  
    45   25   43 1  
    46   25   44 1  
@<TRIPOS>SUBSTRUCTURE
     1 LS8         1

