### 
### Created by X-TOOL on Mon Sep 10 21:13:31 2018
### 

@<TRIPOS>MOLECULE
5myk_ligand
   82    84     1     0     0
SMALL
GAST_HUCK


@<TRIPOS>ATOM
      1 N         -15.9210    4.2270   -3.1420 N.am      1 PCA        -0.2655
      2 CA        -17.2320    3.8290   -3.6450 C.3       1 PCA         0.1330
      3 CB        -17.6460    2.4900   -3.0280 C.3       1 PCA         0.0045
      4 CG        -16.7070    2.2360   -1.8610 C.3       1 PCA         0.0416
      5 CD        -15.6310    3.2670   -2.0770 C.2       1 PCA         0.1784
      6 OE        -14.6000    3.2750   -1.4000 O.2       1 PCA        -0.3969
      7 C         -18.3210    4.8580   -3.3680 C.2       1 PCA         0.2042
      8 O         -19.4650    4.6740   -3.7830 O.2       1 PCA        -0.3944
      9 N         -17.9660    5.9450   -2.6910 N.am      1 PHE        -0.2619
     10 CA        -18.9560    6.9060   -2.2100 C.3       1 PHE         0.1404
     11 C         -19.1410    8.1100   -3.1340 C.2       1 PHE         0.2058
     12 O         -18.2440    8.4610   -3.9020 O.2       1 PHE        -0.3942
     13 CB        -18.5680    7.3890   -0.8170 C.3       1 PHE         0.0214
     14 CG        -18.2370    6.2820    0.1330 C.ar      1 PHE        -0.0386
     15 CD1       -19.2480    5.5710    0.7670 C.ar      1 PHE        -0.0601
     16 CD2       -16.9160    5.9480    0.4010 C.ar      1 PHE        -0.0601
     17 CE1       -18.9470    4.5340    1.6500 C.ar      1 PHE        -0.0686
     18 CE2       -16.6060    4.9230    1.2810 C.ar      1 PHE        -0.0686
     19 CZ        -17.6250    4.2110    1.9110 C.ar      1 PHE        -0.0687
     20 N         -20.3040    8.7540   -3.0250 N.am      1 GLY        -0.2663
     21 CA        -20.6160    9.8860   -3.8800 C.3       1 GLY         0.1201
     22 C         -19.9220   11.1630   -3.4320 C.2       1 GLY         0.2008
     23 O         -19.8800   11.4960   -2.2490 O.2       1 GLY        -0.3947
     24 N         -19.3730   11.8830   -4.4020 N.am      1 HIS        -0.2627
     25 CA        -18.7620   13.1810   -4.1560 C.3       1 HIS         0.1369
     26 C         -19.8140   14.2830   -4.2380 C.2       1 HIS         0.2054
     27 O         -20.7850   14.1800   -4.9890 O.2       1 HIS        -0.3942
     28 CB        -17.6540   13.4470   -5.1780 C.3       1 HIS         0.0145
     29 CG        -16.7030   14.5250   -4.7750 C.2       1 HIS        -0.0027
     30 ND1       -15.6170   14.2890   -3.9600 N.2       1 HIS        -0.3252
     31 CD2       -16.6690   15.8450   -5.0800 C.2       1 HIS         0.0291
     32 CE1       -14.9540   15.4170   -3.7810 C.2       1 HIS         0.0907
     33 NE2       -15.5660   16.3760   -4.4550 N.pl3     1 HIS        -0.2752
     34 N         -19.6100   15.3490   -3.4640 N.am      1 ASP        -0.2621
     35 CA        -20.5520   16.4640   -3.4150 C.3       1 ASP         0.1423
     36 C         -20.0630   17.5890   -4.3210 C.2       1 ASP         0.2051
     37 O         -19.0130   18.1860   -4.0620 O.2       1 ASP        -0.3943
     38 CB        -20.7290   16.9790   -1.9860 C.3       1 ASP         0.0406
     39 CG        -21.2850   15.9240   -1.0510 C.2       1 ASP         0.0393
     40 OD1       -21.0150   16.0170    0.1640 O.co2     1 ASP        -0.5688
     41 OD2       -22.0180   15.0260   -1.5270 O.co2     1 ASP        -0.5688
     42 N         -20.8430   17.9010   -5.3490 N.am      1 SER        -0.2671
     43 CA        -20.4670   18.9290   -6.3120 C.3       1 SER         0.1173
     44 C         -20.8560   20.3250   -5.8310 C.2       1 SER         0.0623
     45 O         -21.7610   20.4820   -5.0080 O.co2     1 SER        -0.5665
     46 CB        -21.1150   18.6390   -7.6630 C.3       1 SER         0.0789
     47 OG        -22.5230   18.5610   -7.5260 O.3       1 SER        -0.3910
     48 OXT       -20.2740   21.3260   -6.2550 O.co2     1 SER        -0.5665
     49 H1        -15.3494    4.9855   -3.4550 H         1 PCA         0.1883
     50 H2        -17.1506    3.7046   -4.7349 H         1 PCA         0.0801
     51 H3        -17.5521    1.6850   -3.7718 H         1 PCA         0.0337
     52 H4        -18.6859    2.5419   -2.6731 H         1 PCA         0.0337
     53 H5        -16.2941    1.2171   -1.8977 H         1 PCA         0.0505
     54 H6        -17.2178    2.3903   -0.8991 H         1 PCA         0.0505
     55 H7        -16.9971    6.1094   -2.5061 H         1 PHE         0.1885
     56 H8        -19.9222    6.3846   -2.1421 H         1 PHE         0.0823
     57 H9        -19.4094    7.9630   -0.4016 H         1 PHE         0.0474
     58 H10       -17.6880    8.0426   -0.9087 H         1 PHE         0.0474
     59 H11       -20.2838    5.8252    0.5731 H         1 PHE         0.0557
     60 H12       -16.1167    6.4962   -0.0845 H         1 PHE         0.0557
     61 H13       -19.7460    3.9817    2.1313 H         1 PHE         0.0599
     62 H14       -15.5696    4.6749    1.4795 H         1 PHE         0.0599
     63 H15       -17.3850    3.4098    2.6006 H         1 PHE         0.0559
     64 H16       -20.9715    8.4528   -2.3440 H         1 GLY         0.1881
     65 H17       -21.7034   10.0512   -3.8638 H         1 GLY         0.0763
     66 H18       -20.2959    9.6519   -4.9060 H         1 GLY         0.0763
     67 H19       -19.3792   11.5213   -5.3343 H         1 HIS         0.1884
     68 H20       -18.3236   13.1811   -3.1471 H         1 HIS         0.0817
     69 H21       -18.1233   13.7376   -6.1294 H         1 HIS         0.0420
     70 H22       -17.0833   12.5173   -5.3195 H         1 HIS         0.0420
     71 H23       -17.3815   16.3836   -5.7030 H         1 HIS         0.0729
     72 H24       -14.0543   15.5372   -3.1793 H         1 HIS         0.1199
     73 H25       -15.2653   17.3599   -4.5037 H         1 HIS         0.2361
     74 H26       -18.7858   15.3864   -2.8990 H         1 ASP         0.1884
     75 H27       -21.5280   16.1134   -3.7817 H         1 ASP         0.0819
     76 H28       -21.4204   17.8344   -2.0029 H         1 ASP         0.0478
     77 H29       -19.7501   17.3062   -1.6056 H         1 ASP         0.0478
     78 H30       -21.7110   17.4183   -5.4658 H         1 SER         0.1876
     79 H31       -19.3743   18.9010   -6.4354 H         1 SER         0.0749
     80 H32       -20.7345   17.6823   -8.0502 H         1 SER         0.0599
     81 H33       -20.8630   19.4457   -8.3670 H         1 SER         0.0599
     82 H34       -22.9129   18.3803   -8.3732 H         1 SER         0.2096
@<TRIPOS>BOND
     1    1    2 1  
     2    1    5 am 
     3    2    3 1  
     4    2    7 1  
     5    3    4 1  
     6    4    5 1  
     7    5    6 2  
     8    7    8 2  
     9    7    9 am 
    10    9   10 1  
    11   10   11 1  
    12   10   13 1  
    13   11   12 2  
    14   11   20 am 
    15   13   14 1  
    16   14   15 ar 
    17   14   16 ar 
    18   15   17 ar 
    19   16   18 ar 
    20   17   19 ar 
    21   18   19 ar 
    22   20   21 1  
    23   21   22 1  
    24   22   23 2  
    25   22   24 am 
    26   24   25 1  
    27   25   26 1  
    28   25   28 1  
    29   26   27 2  
    30   26   34 am 
    31   28   29 1  
    32   29   30 1  
    33   29   31 2  
    34   30   32 2  
    35   31   33 1  
    36   32   33 1  
    37   34   35 1  
    38   35   36 1  
    39   35   38 1  
    40   36   37 2  
    41   36   42 am 
    42   38   39 1  
    43   39   40 ar 
    44   39   41 ar 
    45   42   43 1  
    46   43   44 1  
    47   43   46 1  
    48   44   45 ar 
    49   44   48 ar 
    50   46   47 1  
    51    1   49 1  
    52    2   50 1  
    53    3   51 1  
    54    3   52 1  
    55    4   53 1  
    56    4   54 1  
    57    9   55 1  
    58   10   56 1  
    59   13   57 1  
    60   13   58 1  
    61   15   59 1  
    62   16   60 1  
    63   17   61 1  
    64   18   62 1  
    65   19   63 1  
    66   20   64 1  
    67   21   65 1  
    68   21   66 1  
    69   24   67 1  
    70   25   68 1  
    71   28   69 1  
    72   28   70 1  
    73   31   71 1  
    74   32   72 1  
    75   33   73 1  
    76   34   74 1  
    77   35   75 1  
    78   38   76 1  
    79   38   77 1  
    80   42   78 1  
    81   43   79 1  
    82   46   80 1  
    83   46   81 1  
    84   47   82 1  
@<TRIPOS>SUBSTRUCTURE
     1 PCA         1

