### 
### Created by X-TOOL on Mon Sep 10 21:13:32 2018
### 

@<TRIPOS>MOLECULE
5myl_ligand
   34    36     1     0     0
SMALL
GAST_HUCK


@<TRIPOS>ATOM
      1 C10        10.5840   27.2450    3.1820 C.2       1 Q2N         0.2090
      2 N12        11.8400   27.8950    3.5180 N.am      1 Q2N        -0.1921
      3 C13        13.0610   27.7650    2.7220 C.2       1 Q2N         0.2259
      4 C15        15.1700   29.1640    2.1610 C.ar      1 Q2N        -0.0274
      5 C17        15.7230   29.6950   -0.0840 C.ar      1 Q2N        -0.0345
      6 C20        16.2730   29.8510    2.6120 C.ar      1 Q2N        -0.0596
      7 C01         5.9810   25.5740    5.8900 C.ar      1 Q2N        -0.0460
      8 C02         4.8400   25.6750    5.1050 C.ar      1 Q2N        -0.0381
      9 C03         4.9610   26.0370    3.7760 C.ar      1 Q2N         0.0052
     10 N04         6.1570   26.2890    3.2710 N.ar      1 Q2N        -0.2990
     11 C05         7.2660   26.2160    3.9910 C.ar      1 Q2N         0.0427
     12 C06         7.2140   25.8500    5.3220 C.ar      1 Q2N        -0.0323
     13 C07         8.4730   26.4780    3.3740 C.2       1 Q2N         0.0190
     14 C08         8.6320   26.0460    2.0710 C.2       1 Q2N         0.0139
     15 S09        10.2240   26.5340    1.6550 S.3       1 Q2N         0.0236
     16 N11         9.5000   27.0990    3.9380 N.2       1 Q2N        -0.3129
     17 C14        14.2920   28.5270    3.2160 C.3       1 Q2N         0.0766
     18 C16        14.8830   29.0850    0.8150 C.ar      1 Q2N        -0.0596
     19 C18        16.8280   30.3760    0.3750 C.ar      1 Q2N         0.1252
     20 C19        17.1170   30.4630    1.7180 C.ar      1 Q2N        -0.0345
     21 F21        17.6410   30.9730   -0.5210 F         1 Q2N        -0.1890
     22 O22        13.1230   27.0700    1.7610 O.2       1 Q2N        -0.3772
     23 H1         11.8715   28.4635    4.3401 H         1 Q2N         0.2413
     24 H2         15.5176   29.6407   -1.1470 H         1 Q2N         0.0587
     25 H3         16.4765   29.9095    3.6751 H         1 Q2N         0.0551
     26 H4          5.9080   25.2835    6.9318 H         1 Q2N         0.0724
     27 H5          3.8637   25.4720    5.5301 H         1 Q2N         0.0677
     28 H6          4.0790   26.1139    3.1505 H         1 Q2N         0.0815
     29 H7          8.1213   25.7801    5.9111 H         1 Q2N         0.0685
     30 H8          7.9113   25.5165    1.4496 H         1 Q2N         0.0702
     31 H9         14.9146   27.8204    3.7845 H         1 Q2N         0.0659
     32 H10        13.9417   29.3272    3.8846 H         1 Q2N         0.0659
     33 H11        14.0061   28.5486    0.4709 H         1 Q2N         0.0551
     34 H12        17.9917   31.0028    2.0625 H         1 Q2N         0.0587
@<TRIPOS>BOND
     1    1    2 1  
     2    1   15 1  
     3   16    1 2  
     4    2    3 am 
     5    3   17 1  
     6    3   22 2  
     7    4    6 ar 
     8   17    4 1  
     9    4   18 ar 
    10   18    5 ar 
    11    5   19 ar 
    12    6   20 ar 
    13    7    8 ar 
    14   12    7 ar 
    15    9    8 ar 
    16   10    9 ar 
    17   11   10 ar 
    18   11   12 ar 
    19   13   11 1  
    20   13   14 2  
    21   13   16 1  
    22   14   15 1  
    23   19   20 ar 
    24   19   21 1  
    25    2   23 1  
    26    5   24 1  
    27    6   25 1  
    28    7   26 1  
    29    8   27 1  
    30    9   28 1  
    31   12   29 1  
    32   14   30 1  
    33   17   31 1  
    34   17   32 1  
    35   18   33 1  
    36   20   34 1  
@<TRIPOS>SUBSTRUCTURE
     1 Q2N         1

