### 
### Created by X-TOOL on Mon Sep 10 21:13:31 2018
### 

@<TRIPOS>MOLECULE
5mym_ligand
   60    64     1     0     0
SMALL
GAST_HUCK


@<TRIPOS>ATOM
      1 C10        31.7720  -12.2460   26.3260 C.3       1 HYV         0.0343
      2 C13        28.2610  -11.5820   24.5020 C.3       1 HYV         0.0526
      3 C15        25.8130  -12.4690   24.7920 C.3       1 HYV         0.0377
      4 C17        25.4950  -14.0550   22.6730 C.2       1 HYV         0.1963
      5 C20        25.5030  -15.8730   20.9890 C.2       1 HYV         0.2444
      6 C22        26.3710  -16.0510   18.6950 C.2       1 HYV         0.0355
      7 C24        26.2000  -18.2130   18.3240 C.2       1 HYV        -0.0823
      8 C28        28.0470  -11.7580   23.0760 C.3       1 HYV        -0.0121
      9 C01        36.5240   -7.3460   28.9330 C.ar      1 HYV        -0.0687
     10 C02        36.9050   -8.5370   28.3720 C.ar      1 HYV        -0.0686
     11 C03        35.9650   -9.3890   27.8220 C.ar      1 HYV        -0.0603
     12 C04        34.6140   -9.0800   27.8470 C.ar      1 HYV        -0.0428
     13 C05        34.2250   -7.8720   28.4030 C.ar      1 HYV        -0.0603
     14 C06        35.1810   -7.0150   28.9450 C.ar      1 HYV        -0.0686
     15 C07        33.6120  -10.0790   27.2150 C.3       1 HYV        -0.0162
     16 C08        32.2740  -10.3620   27.9300 C.3       1 HYV        -0.0277
     17 C09        31.9410  -11.7930   27.7660 C.3       1 HYV        -0.0278
     18 N11        30.4720  -11.6590   25.8810 N.am      1 HYV        -0.2730
     19 C12        29.5810  -12.2650   24.9160 C.2       1 HYV         0.1817
     20 C14        27.1370  -11.9280   25.3650 C.3       1 HYV        -0.0121
     21 N16        25.8730  -12.8200   23.3300 N.pl3     1 HYV        -0.2712
     22 N18        24.6340  -15.0480   23.0280 N.2       1 HYV        -0.2701
     23 N19        24.6350  -16.1480   22.0070 N.2       1 HYV        -0.2540
     24 N21        25.8470  -16.6200   19.7910 N.pl3     1 HYV        -0.2075
     25 C23        26.5970  -17.0370   17.7560 C.2       1 HYV        -0.0823
     26 C25        25.7370  -17.9370   19.6040 C.2       1 HYV         0.0355
     27 S26        26.2040  -14.4490   21.2780 S.3       1 HYV         0.0971
     28 C27        26.5870  -11.6910   22.6500 C.3       1 HYV         0.0377
     29 O29        29.9270  -13.2670   24.4200 O.2       1 HYV        -0.3966
     30 C30        30.1210  -10.3710   26.5990 C.3       1 HYV         0.0343
     31 C31        31.2120   -9.5610   27.3100 C.3       1 HYV        -0.0278
     32 H1         31.7393  -13.3440   26.2683 H         1 HYV         0.0522
     33 H2         32.5979  -11.8705   25.7040 H         1 HYV         0.0522
     34 H3         28.4126  -10.5026   24.6500 H         1 HYV         0.0539
     35 H4         25.0374  -11.7015   24.9312 H         1 HYV         0.0531
     36 H5         25.5381  -13.3742   25.3533 H         1 HYV         0.0531
     37 H6         26.5824  -14.9903   18.5677 H         1 HYV         0.0821
     38 H7         26.2394  -19.1954   17.8556 H         1 HYV         0.0291
     39 H8         28.4458  -12.7414   22.7863 H         1 HYV         0.0312
     40 H9         28.5977  -10.9679   22.5446 H         1 HYV         0.0312
     41 H10        37.2615   -6.6757   29.3595 H         1 HYV         0.0559
     42 H11        37.9530   -8.8137   28.3593 H         1 HYV         0.0599
     43 H12        36.2906  -10.3155   27.3629 H         1 HYV         0.0557
     44 H13        33.1774   -7.5936   28.4164 H         1 HYV         0.0557
     45 H14        34.8672   -6.0743   29.3828 H         1 HYV         0.0599
     46 H15        34.1353  -11.0420   27.1210 H         1 HYV         0.0429
     47 H16        33.3658   -9.6961   26.2136 H         1 HYV         0.0429
     48 H17        32.3586  -10.1128   28.9981 H         1 HYV         0.0324
     49 H18        32.7488  -12.3865   28.2190 H         1 HYV         0.0289
     50 H19        30.9989  -11.9885   28.2992 H         1 HYV         0.0289
     51 H20        26.8824  -11.0146   25.9226 H         1 HYV         0.0312
     52 H21        27.5072  -12.6929   26.0635 H         1 HYV         0.0312
     53 H22        27.0109  -16.9030   16.7577 H         1 HYV         0.0291
     54 H23        25.3549  -18.6611   20.3221 H         1 HYV         0.0821
     55 H24        26.5079  -11.7987   21.5582 H         1 HYV         0.0531
     56 H25        26.1490  -10.7296   22.9563 H         1 HYV         0.0531
     57 H26        29.3705  -10.6280   27.3610 H         1 HYV         0.0522
     58 H27        29.6694   -9.7041   25.8498 H         1 HYV         0.0522
     59 H28        31.6766   -8.8918   26.5708 H         1 HYV         0.0289
     60 H29        30.7329   -8.9611   28.0977 H         1 HYV         0.0289
@<TRIPOS>BOND
     1    1   17 1  
     2   18    1 1  
     3    2    8 1  
     4   19    2 1  
     5    2   20 1  
     6   20    3 1  
     7    3   21 1  
     8   21    4 1  
     9    4   22 2  
    10    4   27 1  
    11    5   23 2  
    12    5   24 1  
    13   27    5 1  
    14   24    6 1  
    15    6   25 2  
    16   25    7 1  
    17    7   26 2  
    18    8   28 1  
    19   10    9 ar 
    20   14    9 ar 
    21   11   10 ar 
    22   12   11 ar 
    23   12   13 ar 
    24   15   12 1  
    25   13   14 ar 
    26   16   15 1  
    27   17   16 1  
    28   16   31 1  
    29   18   19 am 
    30   18   30 1  
    31   19   29 2  
    32   21   28 1  
    33   22   23 1  
    34   24   26 1  
    35   30   31 1  
    36    1   32 1  
    37    1   33 1  
    38    2   34 1  
    39    3   35 1  
    40    3   36 1  
    41    6   37 1  
    42    7   38 1  
    43    8   39 1  
    44    8   40 1  
    45    9   41 1  
    46   10   42 1  
    47   11   43 1  
    48   13   44 1  
    49   14   45 1  
    50   15   46 1  
    51   15   47 1  
    52   16   48 1  
    53   17   49 1  
    54   17   50 1  
    55   20   51 1  
    56   20   52 1  
    57   25   53 1  
    58   26   54 1  
    59   28   55 1  
    60   28   56 1  
    61   30   57 1  
    62   30   58 1  
    63   31   59 1  
    64   31   60 1  
@<TRIPOS>SUBSTRUCTURE
     1 HYV         1

