### 
### Created by X-TOOL on Mon Sep 10 21:13:31 2018
### 

@<TRIPOS>MOLECULE
5myn_ligand
   28    30     1     0     0
SMALL
GAST_HUCK


@<TRIPOS>ATOM
      1 C10       -27.9480   12.2280   -5.3970 C.2       1 ZUF         0.2055
      2 N12       -28.2350   13.5690   -4.9260 N.pl3     1 ZUF        -0.2212
      3 C13       -28.8800   14.5480   -5.7770 C.ar      1 ZUF         0.1413
      4 C15       -30.1770   16.5560   -5.9630 C.ar      1 ZUF        -0.0381
      5 C17       -29.4230   15.3200   -7.8780 C.ar      1 ZUF         0.0123
      6 C01       -26.8790    6.4630   -4.6620 C.ar      1 ZUF        -0.0460
      7 C02       -26.6460    6.4940   -3.2970 C.ar      1 ZUF        -0.0381
      8 C03       -26.7000    7.7110   -2.6290 C.ar      1 ZUF         0.0052
      9 N04       -26.9810    8.8440   -3.2610 N.ar      1 ZUF        -0.2989
     10 C05       -27.2290    8.8500   -4.5590 C.ar      1 ZUF         0.0441
     11 C06       -27.1630    7.6680   -5.2810 C.ar      1 ZUF        -0.0322
     12 C07       -27.4910   10.0290   -5.2380 C.2       1 ZUF         0.0262
     13 C08       -27.4610   10.0600   -6.6190 C.2       1 ZUF         0.0186
     14 S09       -27.8010   11.7010   -7.0440 S.3       1 ZUF         0.0276
     15 N11       -27.7410   11.1720   -4.6290 N.2       1 ZUF        -0.3042
     16 C14       -29.5500   15.6030   -5.1890 C.ar      1 ZUF        -0.0091
     17 C16       -30.1030   16.3870   -7.3290 C.ar      1 ZUF         0.0553
     18 N18       -28.8330   14.4450   -7.0930 N.ar      1 ZUF        -0.2786
     19 CL1       -30.8920   17.5550   -8.3920 Cl        1 ZUF        -0.0718
     20 H1        -27.9744   13.8314   -3.9647 H         1 ZUF         0.2255
     21 H2        -30.7013   17.3951   -5.5202 H         1 ZUF         0.0709
     22 H3        -29.3749   15.2027   -8.9546 H         1 ZUF         0.0793
     23 H4        -26.8406    5.5352   -5.2213 H         1 ZUF         0.0724
     24 H5        -26.4244    5.5806   -2.7569 H         1 ZUF         0.0677
     25 H6        -26.5074    7.7360   -1.5625 H         1 ZUF         0.0815
     26 H7        -27.3372    7.6881   -6.3507 H         1 ZUF         0.0685
     27 H8        -27.2652    9.2289   -7.2949 H         1 ZUF         0.0734
     28 H9        -29.5831   15.6824   -4.1084 H         1 ZUF         0.0631
@<TRIPOS>BOND
     1    1    2 1  
     2    1   14 1  
     3   15    1 2  
     4    2    3 1  
     5    3   16 ar 
     6    3   18 ar 
     7   16    4 ar 
     8    4   17 ar 
     9    5   17 ar 
    10   18    5 ar 
    11    6    7 ar 
    12   11    6 ar 
    13    8    7 ar 
    14    9    8 ar 
    15   10    9 ar 
    16   10   11 ar 
    17   12   10 1  
    18   12   13 2  
    19   12   15 1  
    20   13   14 1  
    21   17   19 1  
    22    2   20 1  
    23    4   21 1  
    24    5   22 1  
    25    6   23 1  
    26    7   24 1  
    27    8   25 1  
    28   11   26 1  
    29   13   27 1  
    30   16   28 1  
@<TRIPOS>SUBSTRUCTURE
     1 ZUF         1

