### 
### Created by X-TOOL on Mon Sep 10 21:13:31 2018
### 

@<TRIPOS>MOLECULE
5myr_ligand
   31    34     1     0     0
SMALL
GAST_HUCK


@<TRIPOS>ATOM
      1 C10       -14.2110  -28.3960    2.6440 C.2       1 UDY         0.2136
      2 N12       -13.2050  -27.3600    2.7320 N.pl3     1 UDY        -0.1939
      3 C13       -11.7770  -27.2750    2.9970 C.2       1 UDY         0.2123
      4 C15        -9.7310  -27.0680    4.0250 C.ar      1 UDY         0.0108
      5 C17        -7.4700  -26.8400    4.9180 C.ar      1 UDY        -0.0407
      6 C20        -9.2320  -26.9180    2.7620 C.ar      1 UDY         0.0492
      7 C01       -18.6520  -30.9830    0.1260 C.ar      1 UDY        -0.0460
      8 C02       -18.0750  -31.1560   -1.1120 C.ar      1 UDY        -0.0381
      9 C03       -16.7680  -30.8660   -1.3790 C.ar      1 UDY         0.0052
     10 N04       -16.0220  -30.3560   -0.4370 N.ar      1 UDY        -0.2989
     11 C05       -16.5420  -30.1550    0.7440 C.ar      1 UDY         0.0444
     12 C06       -17.8370  -30.4560    1.0840 C.ar      1 UDY        -0.0322
     13 C07       -15.7810  -29.6600    1.7330 C.2       1 UDY         0.0276
     14 C08       -15.9910  -30.1960    2.9760 C.2       1 UDY         0.0195
     15 S09       -14.8630  -29.3420    3.9270 S.3       1 UDY         0.0295
     16 N11       -14.8740  -28.7250    1.5560 N.2       1 UDY        -0.3015
     17 N14       -11.0840  -27.2400    4.1280 N.2       1 UDY        -0.3015
     18 C16        -8.8260  -27.0220    5.1160 C.ar      1 UDY        -0.0630
     19 C18        -6.9680  -26.6970    3.6270 C.ar      1 UDY         0.1201
     20 C19        -7.8610  -26.7320    2.5540 C.ar      1 UDY        -0.0190
     21 S21       -10.6330  -27.0280    1.7300 S.3       1 UDY         0.0315
     22 F22        -5.6280  -26.5170    3.4030 F         1 UDY        -0.1910
     23 H1        -13.6102  -26.4288    2.5602 H         1 UDY         0.2365
     24 H2         -6.7975  -26.8086    5.7676 H         1 UDY         0.0540
     25 H3        -19.6840  -31.2477    0.3257 H         1 UDY         0.0724
     26 H4        -18.6904  -31.5425   -1.9164 H         1 UDY         0.0677
     27 H5        -16.3542  -31.0571   -2.3625 H         1 UDY         0.0815
     28 H6        -18.2030  -30.2793    2.0889 H         1 UDY         0.0685
     29 H7        -16.6965  -30.9684    3.2786 H         1 UDY         0.0741
     30 H8         -9.2052  -27.1318    6.1255 H         1 UDY         0.0535
     31 H9         -7.4860  -26.6132    1.5439 H         1 UDY         0.0543
@<TRIPOS>BOND
     1    1    2 1  
     2    1   15 1  
     3   16    1 2  
     4    2    3 1  
     5    3   17 2  
     6    3   21 1  
     7    6    4 ar 
     8   17    4 1  
     9    4   18 ar 
    10   18    5 ar 
    11    5   19 ar 
    12    6   20 ar 
    13   21    6 1  
    14    7    8 ar 
    15   12    7 ar 
    16    9    8 ar 
    17   10    9 ar 
    18   11   10 ar 
    19   11   12 ar 
    20   13   11 1  
    21   13   14 2  
    22   13   16 1  
    23   14   15 1  
    24   19   20 ar 
    25   19   22 1  
    26    2   23 1  
    27    5   24 1  
    28    7   25 1  
    29    8   26 1  
    30    9   27 1  
    31   12   28 1  
    32   14   29 1  
    33   18   30 1  
    34   20   31 1  
@<TRIPOS>SUBSTRUCTURE
     1 UDY         1

