### 
### Created by X-TOOL on Mon Sep 10 21:13:31 2018
### 

@<TRIPOS>MOLECULE
5mys_ligand
   35    37     1     0     0
SMALL
GAST_HUCK


@<TRIPOS>ATOM
      1 C10       -28.0370  -13.2980   -1.4960 C.2       1 YP6         0.2460
      2 C15       -26.8090   -7.6470   -3.6880 C.ar      1 YP6         0.0427
      3 C17       -26.3910   -5.6240   -4.8890 C.ar      1 YP6        -0.0460
      4 C21       -27.6450   -9.5940   -4.8430 C.2       1 YP6         0.0139
      5 C01       -31.5690  -17.5020   -2.0640 C.ar      1 YP6        -0.0724
      6 C02       -30.5900  -16.7120   -2.6230 C.ar      1 YP6        -0.0370
      7 C03       -29.6330  -16.1380   -1.8190 C.ar      1 YP6         0.0925
      8 C04       -29.6540  -16.3650   -0.4500 C.ar      1 YP6         0.0001
      9 C05       -30.6430  -17.1630    0.1040 C.ar      1 YP6         0.1239
     10 C06       -31.6010  -17.7340   -0.7040 C.ar      1 YP6        -0.0394
     11 F07       -30.6940  -17.4030    1.4440 F         1 YP6        -0.1864
     12 O08       -28.6540  -15.3480   -2.4300 O.3       1 YP6        -0.2979
     13 C09       -28.9250  -13.9790   -2.5290 C.3       1 YP6         0.1668
     14 N11       -27.4010  -11.9900   -1.6370 N.am      1 YP6        -0.1914
     15 C12       -27.4500  -11.0290   -2.7330 C.2       1 YP6         0.2090
     16 N13       -27.0810   -9.7610   -2.6270 N.2       1 YP6        -0.3129
     17 C14       -27.1660   -8.9880   -3.6980 C.2       1 YP6         0.0190
     18 C16       -26.7390   -6.9670   -4.8900 C.ar      1 YP6        -0.0323
     19 C18       -26.1160   -5.0130   -3.6790 C.ar      1 YP6        -0.0381
     20 C19       -26.2000   -5.7570   -2.5170 C.ar      1 YP6         0.0052
     21 N20       -26.5390   -7.0380   -2.5490 N.ar      1 YP6        -0.2990
     22 S22       -27.9540  -11.2260   -4.3770 S.3       1 YP6         0.0236
     23 O23       -27.8450  -13.8920   -0.4930 O.2       1 YP6        -0.3770
     24 H1        -26.3358   -5.0656   -5.8165 H         1 YP6         0.0724
     25 H2        -27.7944   -9.1420   -5.8224 H         1 YP6         0.0702
     26 H3        -32.3248  -17.9478   -2.7005 H         1 YP6         0.0579
     27 H4        -30.5734  -16.5428   -3.6936 H         1 YP6         0.0508
     28 H5        -28.8977  -15.9187    0.1855 H         1 YP6         0.0526
     29 H6        -32.3743  -18.3609   -0.2750 H         1 YP6         0.0510
     30 H7        -28.6852  -13.6143   -3.5387 H         1 YP6         0.0867
     31 H8        -29.9850  -13.7827   -2.3103 H         1 YP6         0.0867
     32 H9        -26.8425  -11.7086   -0.8567 H         1 YP6         0.2412
     33 H10       -26.9535   -7.4772   -5.8220 H         1 YP6         0.0685
     34 H11       -25.8386   -3.9657   -3.6424 H         1 YP6         0.0677
     35 H12       -25.9853   -5.2855   -1.5648 H         1 YP6         0.0815
@<TRIPOS>BOND
     1    1   13 1  
     2   14    1 am 
     3    1   23 2  
     4   17    2 1  
     5    2   18 ar 
     6    2   21 ar 
     7   18    3 ar 
     8    3   19 ar 
     9    4   17 2  
    10   22    4 1  
    11    6    5 ar 
    12    5   10 ar 
    13    7    6 ar 
    14    7    8 ar 
    15   12    7 1  
    16    8    9 ar 
    17    9   10 ar 
    18    9   11 1  
    19   13   12 1  
    20   15   14 1  
    21   15   16 2  
    22   15   22 1  
    23   16   17 1  
    24   19   20 ar 
    25   20   21 ar 
    26    3   24 1  
    27    4   25 1  
    28    5   26 1  
    29    6   27 1  
    30    8   28 1  
    31   10   29 1  
    32   13   30 1  
    33   13   31 1  
    34   14   32 1  
    35   18   33 1  
    36   19   34 1  
    37   20   35 1  
@<TRIPOS>SUBSTRUCTURE
     1 YP6         1

