### 
### Created by X-TOOL on Mon Sep 10 21:13:31 2018
### 

@<TRIPOS>MOLECULE
5mz3_ligand
   52    55     1     0     0
SMALL
GAST_HUCK


@<TRIPOS>ATOM
      1 C1         -6.1430  -31.9250   31.6080 C.ar      1 8EN        -0.0548
      2 C2         -5.0140  -31.2760   31.0520 C.ar      1 8EN        -0.0330
      3 C3         -5.1610  -30.3540   30.0080 C.ar      1 8EN        -0.0438
      4 C11        -6.9210  -27.2100   26.2450 C.ar      1 8EN        -0.0142
      5 C12        -7.2720  -26.3960   25.1540 C.ar      1 8EN        -0.0272
      6 C13        -6.9140  -26.7850   23.8540 C.ar      1 8EN        -0.0278
      7 C14        -6.2840  -28.0160   23.6130 C.ar      1 8EN         0.0540
      8 C15        -5.9340  -28.8240   24.7100 C.ar      1 8EN        -0.0107
      9 C16        -6.0560  -32.9000   32.7900 C.3       1 8EN        -0.0378
     10 C17        -3.6130  -31.4130   31.5900 C.2       1 8EN         0.0097
     11 C18        -2.9950  -32.6140   31.6510 C.2       1 8EN         0.0839
     12 C20        -1.1450  -31.6040   32.5910 C.2       1 8EN         0.1267
     13 C21        -1.6960  -30.2500   32.5470 C.2       1 8EN        -0.0216
     14 C22        -2.9340  -30.1750   32.0570 C.2       1 8EN        -0.0571
     15 C23        -1.0690  -33.7400   32.3620 C.2       1 8EN         0.0646
     16 C24         0.1040  -33.3530   32.9270 C.2       1 8EN         0.0945
     17 C27         1.4720  -35.3120   33.1400 C.2       1 8EN         0.1963
     18 C28         2.7390  -35.8540   33.7680 C.3       1 8EN         0.0308
     19 C30        -5.9170  -28.4630   22.1920 C.3       1 8EN         0.3783
     20 C4         -6.4090  -30.0860   29.4620 C.ar      1 8EN         0.0568
     21 C5         -7.5400  -30.7320   29.9890 C.ar      1 8EN        -0.0494
     22 C6         -7.4050  -31.6270   31.0680 C.ar      1 8EN        -0.0745
     23 N7         -6.5500  -29.2180   28.3450 N.am      1 8EN        -0.2371
     24 C8         -5.8830  -29.3440   27.1640 C.2       1 8EN         0.2376
     25 C9         -6.2200  -28.4110   26.0270 C.ar      1 8EN         0.0849
     26 O10        -5.0380  -30.1990   26.9330 O.2       1 8EN        -0.3732
     27 N19        -1.7910  -32.6610   32.1570 N.pl3     1 8EN        -0.2215
     28 N25        -0.0470  -31.9340   33.0730 N.2       1 8EN        -0.3217
     29 N26         1.1850  -34.0170   33.3630 N.am      1 8EN        -0.2410
     30 O29         0.7590  -36.0450   32.4680 O.2       1 8EN        -0.3873
     31 F31        -6.0760  -27.4540   21.2900 F         1 8EN        -0.2197
     32 F32        -4.6360  -28.9110   22.1730 F         1 8EN        -0.2197
     33 F33        -6.6950  -29.4930   21.7980 F         1 8EN        -0.2197
     34 H1         -4.2875  -29.8421   29.6206 H         1 8EN         0.0459
     35 H2         -7.1897  -26.9133   27.2524 H         1 8EN         0.0902
     36 H3         -7.8163  -25.4727   25.3160 H         1 8EN         0.0708
     37 H4         -7.1276  -26.1237   23.0220 H         1 8EN         0.0883
     38 H5         -5.4394  -29.7737   24.5409 H         1 8EN         0.0912
     39 H6         -7.0627  -33.2693   33.0355 H         1 8EN         0.0365
     40 H7         -5.6328  -32.3813   33.6628 H         1 8EN         0.0365
     41 H8         -5.4103  -33.7483   32.5189 H         1 8EN         0.0365
     42 H9         -3.4863  -33.5160   31.2890 H         1 8EN         0.1198
     43 H10        -1.1417  -29.3761   32.8860 H         1 8EN         0.0561
     44 H11        -3.4439  -29.2145   31.9993 H         1 8EN         0.0616
     45 H12        -1.3594  -34.7617   32.1218 H         1 8EN         0.0583
     46 H13         2.8516  -36.9168   33.5077 H         1 8EN         0.0471
     47 H14         2.6805  -35.7486   34.8614 H         1 8EN         0.0471
     48 H15         3.6052  -35.2904   33.3911 H         1 8EN         0.0471
     49 H16        -8.5188  -30.5411   29.5641 H         1 8EN         0.0471
     50 H17        -8.2888  -32.0932   31.4883 H         1 8EN         0.0514
     51 H18        -7.1896  -28.4544   28.4333 H         1 8EN         0.2229
     52 H19         1.8430  -33.4974   33.9081 H         1 8EN         0.2204
@<TRIPOS>BOND
     1    2    1 ar 
     2    1    9 1  
     3   22    1 ar 
     4    3    2 ar 
     5    2   10 1  
     6   20    3 ar 
     7    4    5 ar 
     8   25    4 ar 
     9    5    6 ar 
    10    7    6 ar 
    11    8    7 ar 
    12    7   19 1  
    13   25    8 ar 
    14   10   11 2  
    15   10   14 1  
    16   11   27 1  
    17   13   12 1  
    18   27   12 1  
    19   12   28 2  
    20   14   13 2  
    21   15   16 2  
    22   27   15 1  
    23   28   16 1  
    24   16   29 1  
    25   17   18 1  
    26   29   17 am 
    27   17   30 2  
    28   19   31 1  
    29   19   32 1  
    30   19   33 1  
    31   20   21 ar 
    32   23   20 1  
    33   21   22 ar 
    34   24   23 am 
    35   24   25 1  
    36   24   26 2  
    37    3   34 1  
    38    4   35 1  
    39    5   36 1  
    40    6   37 1  
    41    8   38 1  
    42    9   39 1  
    43    9   40 1  
    44    9   41 1  
    45   11   42 1  
    46   13   43 1  
    47   14   44 1  
    48   15   45 1  
    49   18   46 1  
    50   18   47 1  
    51   18   48 1  
    52   21   49 1  
    53   22   50 1  
    54   23   51 1  
    55   29   52 1  
@<TRIPOS>SUBSTRUCTURE
     1 8EN         1

