### 
### Created by X-TOOL on Mon Sep 10 21:13:32 2018
### 

@<TRIPOS>MOLECULE
5mz8_ligand
   12    11     1     0     0
SMALL
GAST_HUCK


@<TRIPOS>ATOM
      1 C1         48.6430  -66.9900   41.7390 C.2       1 SIN         0.0364
      2 O1         49.0230  -65.8660   42.1580 O.co2     1 SIN        -0.5689
      3 O2         49.0360  -68.0300   42.3350 O.co2     1 SIN        -0.5689
      4 C2         47.6920  -67.0470   40.5550 C.3       1 SIN         0.0117
      5 C3         47.8810  -68.2550   39.6470 C.3       1 SIN         0.0117
      6 C4         48.1110  -67.8790   38.1860 C.2       1 SIN         0.0364
      7 O3         47.8280  -68.7040   37.2700 O.co2     1 SIN        -0.5689
      8 O4         48.6090  -66.7650   37.8640 O.co2     1 SIN        -0.5689
      9 H1         47.8396  -66.1386   39.9525 H         1 SIN         0.0448
     10 H2         46.6627  -67.0669   40.9424 H         1 SIN         0.0448
     11 H3         46.9800  -68.8830   39.7086 H         1 SIN         0.0448
     12 H4         48.7513  -68.8264   40.0020 H         1 SIN         0.0448
@<TRIPOS>BOND
     1    1    2 ar 
     2    1    3 ar 
     3    1    4 1  
     4    4    5 1  
     5    5    6 1  
     6    6    7 ar 
     7    6    8 ar 
     8    4    9 1  
     9    4   10 1  
    10    5   11 1  
    11    5   12 1  
@<TRIPOS>SUBSTRUCTURE
     1 SIN         1

