### 
### Created by X-TOOL on Wed Jan  1 15:39:36 2020
### 

@<TRIPOS>MOLECULE
5mzg_ligand
   31    33     1     0     0
SMALL
GAST_HUCK


@<TRIPOS>ATOM
      1 C13       -19.7660   -6.1120  -22.1950 C.ar      1 2GE        -0.0020
      2 C17       -21.7860   -9.5900  -21.2300 C.3       1 2GE        -0.0276
      3 N01       -21.5860   -3.3240  -24.5430 N.pl3     1 2GE        -0.3069
      4 C02       -20.9910   -4.2960  -23.7290 C.ar      1 2GE         0.1672
      5 N03       -19.6940   -4.1710  -23.5390 N.ar      1 2GE        -0.2715
      6 C04       -19.0440   -5.0610  -22.8020 C.ar      1 2GE         0.0387
      7 C05       -17.5730   -4.8460  -22.5200 C.ar      1 2GE         0.0135
      8 C06       -17.1890   -3.5800  -22.0640 C.ar      1 2GE        -0.0483
      9 C07       -15.8420   -3.3110  -21.7850 C.ar      1 2GE        -0.0572
     10 C08       -14.8940   -4.3000  -21.9590 C.ar      1 2GE        -0.0443
     11 C09       -15.2900   -5.5630  -22.3900 C.ar      1 2GE         0.0583
     12 CL1       -14.1180   -6.8520  -22.6000 Cl        1 2GE        -0.0692
     13 C11       -16.6170   -5.8130  -22.6720 C.ar      1 2GE         0.0677
     14 CL2       -17.0980   -7.3590  -23.2490 Cl        1 2GE        -0.0654
     15 C14       -21.1430   -6.1990  -22.4830 C.ar      1 2GE         0.1116
     16 N15       -21.9060   -7.2320  -21.9570 N.pl3     1 2GE        -0.3013
     17 C16       -21.3080   -8.1800  -21.0640 C.3       1 2GE         0.0401
     18 C18       -20.3700   -9.2190  -21.6530 C.3       1 2GE        -0.0276
     19 N19       -21.7650   -5.2480  -23.2100 N.ar      1 2GE        -0.2451
     20 H1        -19.2813   -6.8223  -21.5350 H         1 2GE         0.0562
     21 H2        -22.5425   -9.8271  -21.9926 H         1 2GE         0.0288
     22 H3        -21.9465  -10.2231  -20.3449 H         1 2GE         0.0288
     23 H4        -21.0108   -2.5766  -24.9571 H         1 2GE         0.1823
     24 H5        -22.5988   -3.3565  -24.7276 H         1 2GE         0.1823
     25 H6        -17.9349   -2.8056  -21.9262 H         1 2GE         0.0655
     26 H7        -15.5452   -2.3294  -21.4336 H         1 2GE         0.0627
     27 H8        -13.8483   -4.0941  -21.7612 H         1 2GE         0.0649
     28 H9        -22.9013   -7.3173  -22.2082 H         1 2GE         0.1842
     29 H10       -21.1187   -7.7397  -20.0739 H         1 2GE         0.0558
     30 H11       -20.1036   -9.1817  -22.7196 H         1 2GE         0.0288
     31 H12       -19.5076   -9.5777  -21.0720 H         1 2GE         0.0288
@<TRIPOS>BOND
     1    1    6 ar 
     2   15    1 ar 
     3   17    2 1  
     4    2   18 1  
     5    4    3 1  
     6    4    5 ar 
     7   19    4 ar 
     8    6    5 ar 
     9    6    7 1  
    10    7    8 ar 
    11    7   13 ar 
    12    8    9 ar 
    13    9   10 ar 
    14   11   10 ar 
    15   11   12 1  
    16   13   11 ar 
    17   13   14 1  
    18   16   15 1  
    19   15   19 ar 
    20   16   17 1  
    21   17   18 1  
    22    1   20 1  
    23    2   21 1  
    24    2   22 1  
    25    3   23 1  
    26    3   24 1  
    27    8   25 1  
    28    9   26 1  
    29   10   27 1  
    30   16   28 1  
    31   17   29 1  
    32   18   30 1  
    33   18   31 1  
@<TRIPOS>SUBSTRUCTURE
     1 2GE         1

