### 
### Created by X-TOOL on Mon Sep 10 21:13:31 2018
### 

@<TRIPOS>MOLECULE
5n0d_ligand
   50    53     1     0     0
SMALL
GAST_HUCK


@<TRIPOS>ATOM
      1 C12        -4.5230    3.2400   13.6140 C.ar      1 8F2        -0.0401
      2 C11        -4.6560    2.1870   14.5160 C.ar      1 8F2        -0.0295
      3 C10        -5.5350    2.3240   15.5850 C.ar      1 8F2         0.1122
      4 S1         -5.9210    0.9610   16.6670 S.o2      1 8F2         0.0677
      5 O1         -7.3500    0.8830   16.6690 O.2       1 8F2        -0.1499
      6 O2         -5.2600    1.1700   17.9190 O.2       1 8F2        -0.1499
      7 N2         -5.3770   -0.3960   16.0110 N.am      1 8F2        -0.2605
      8 C15        -6.2480    3.5030   15.7650 C.ar      1 8F2        -0.0295
      9 C14        -6.0920    4.5540   14.8680 C.ar      1 8F2        -0.0401
     10 C13        -5.2450    4.4150   13.7770 C.ar      1 8F2         0.0504
     11 C16        -5.1400    5.4730   12.7140 C.2       1 8F2         0.2111
     12 O3         -6.2640    5.8060   12.3820 O.2       1 8F2        -0.3841
     13 N1         -3.9880    6.0150   12.3030 N.am      1 8F2        -0.2483
     14 C8         -3.8560    6.8470   11.0980 C.3       1 8F2         0.0447
     15 C9         -3.2450    6.0130    9.9840 C.3       1 8F2        -0.0079
     16 C5         -1.9670    5.3590   10.4200 C.ar      1 8F2        -0.0541
     17 C4         -1.0110    4.9610    9.4940 C.ar      1 8F2        -0.0456
     18 C3          0.1570    4.3090    9.8740 C.ar      1 8F2         0.1030
     19 O5          1.1350    3.9330    8.9920 O.3       1 8F2        -0.3428
     20 C2          0.3670    4.0410   11.2210 C.ar      1 8F2         0.1031
     21 O4          1.5780    3.4950   11.5560 O.3       1 8F2        -0.3429
     22 C1         -0.5860    4.4240   12.1590 C.ar      1 8F2        -0.0420
     23 C6         -1.7420    5.0900   11.7690 C.ar      1 8F2        -0.0238
     24 C7         -2.6910    5.5740   12.8820 C.3       1 8F2         0.1017
     25 C18        -2.1000    6.7680   13.6300 C.ar      1 8F2        -0.0096
     26 C17        -2.5450    7.0650   14.9330 C.ar      1 8F2        -0.0566
     27 C22        -2.0600    8.1690   15.6230 C.ar      1 8F2        -0.0683
     28 C21        -1.1220    8.9990   15.0430 C.ar      1 8F2        -0.0686
     29 C20        -0.6800    8.7320   13.7640 C.ar      1 8F2        -0.0683
     30 C19        -1.1690    7.6270   13.0580 C.ar      1 8F2        -0.0566
     31 H1         -3.8464    3.1409   12.7729 H         1 8F2         0.0670
     32 H2         -4.0837    1.2755   14.3869 H         1 8F2         0.0649
     33 H3         -5.5068   -1.2673   16.4843 H         1 8F2         0.1635
     34 H4         -4.9077   -0.3716   15.1283 H         1 8F2         0.1635
     35 H5         -6.9260    3.6035   16.6048 H         1 8F2         0.0649
     36 H6         -6.6317    5.4816   15.0206 H         1 8F2         0.0670
     37 H7         -3.2054    7.7074   11.3135 H         1 8F2         0.0544
     38 H8         -4.8482    7.2063   10.7876 H         1 8F2         0.0544
     39 H9         -3.0364    6.6653    9.1232 H         1 8F2         0.0410
     40 H10        -3.9619    5.2331    9.6878 H         1 8F2         0.0410
     41 H11        -1.1807    5.1649    8.4430 H         1 8F2         0.0435
     42 H12         1.8392    3.5054    9.4651 H         1 8F2         0.2420
     43 H13         1.6120    3.3547   12.4950 H         1 8F2         0.2419
     44 H14        -0.4251    4.2003   13.2074 H         1 8F2         0.0439
     45 H15        -2.8628    4.7475   13.5873 H         1 8F2         0.0845
     46 H16        -3.2782    6.4213   15.4053 H         1 8F2         0.0560
     47 H17        -2.4206    8.3799   16.6233 H         1 8F2         0.0600
     48 H18        -0.7362    9.8530   15.5878 H         1 8F2         0.0560
     49 H19         0.0525    9.3837   13.3017 H         1 8F2         0.0600
     50 H20        -0.8165    7.4383   12.0504 H         1 8F2         0.0560
@<TRIPOS>BOND
     1    1    2 ar 
     2    1   10 ar 
     3    2    3 ar 
     4    3    4 1  
     5    3    8 ar 
     6    4    5 2  
     7    4    6 2  
     8    4    7 am 
     9    8    9 ar 
    10    9   10 ar 
    11   10   11 1  
    12   11   12 2  
    13   11   13 am 
    14   13   14 1  
    15   13   24 1  
    16   14   15 1  
    17   15   16 1  
    18   16   17 ar 
    19   16   23 ar 
    20   17   18 ar 
    21   18   19 1  
    22   18   20 ar 
    23   20   21 1  
    24   20   22 ar 
    25   22   23 ar 
    26   23   24 1  
    27   24   25 1  
    28   25   26 ar 
    29   25   30 ar 
    30   26   27 ar 
    31   27   28 ar 
    32   28   29 ar 
    33   29   30 ar 
    34    1   31 1  
    35    2   32 1  
    36    7   33 1  
    37    7   34 1  
    38    8   35 1  
    39    9   36 1  
    40   14   37 1  
    41   14   38 1  
    42   15   39 1  
    43   15   40 1  
    44   17   41 1  
    45   19   42 1  
    46   21   43 1  
    47   22   44 1  
    48   24   45 1  
    49   26   46 1  
    50   27   47 1  
    51   28   48 1  
    52   29   49 1  
    53   30   50 1  
@<TRIPOS>SUBSTRUCTURE
     1 8F2         1

