### 
### Created by X-TOOL on Mon Sep 10 21:13:31 2018
### 

@<TRIPOS>MOLECULE
5n0e_ligand
   50    53     1     0     0
SMALL
GAST_HUCK


@<TRIPOS>ATOM
      1 C12        -4.2260    2.9740   13.7820 C.ar      1 8F3        -0.0401
      2 C11        -4.6650    1.9290   14.5890 C.ar      1 8F3        -0.0295
      3 C10        -5.5060    2.2200   15.6580 C.ar      1 8F3         0.1122
      4 S1         -6.0280    0.9590   16.7910 S.o2      1 8F3         0.0677
      5 O1         -7.4590    0.9570   16.7330 O.2       1 8F3        -0.1499
      6 O2         -5.4370    1.2020   18.0720 O.2       1 8F3        -0.1499
      7 N2         -5.5270   -0.4440   16.2250 N.am      1 8F3        -0.2605
      8 C15        -5.9610    3.5120   15.8890 C.ar      1 8F3        -0.0295
      9 C14        -5.5440    4.5460   15.0600 C.ar      1 8F3        -0.0401
     10 C13        -4.6320    4.2770   14.0490 C.ar      1 8F3         0.0504
     11 C16        -4.0350    5.3870   13.2330 C.2       1 8F3         0.2111
     12 O3         -4.9160    6.1620   12.8960 O.2       1 8F3        -0.3841
     13 N1         -2.7270    5.5000   12.9870 N.am      1 8F3        -0.2483
     14 C8         -1.6510    4.6160   13.4630 C.3       1 8F3         0.0447
     15 C9         -1.0190    3.8980   12.2790 C.3       1 8F3        -0.0079
     16 C5         -0.7990    4.8010   11.0980 C.ar      1 8F3        -0.0541
     17 C4         -0.0570    4.3670   10.0060 C.ar      1 8F3        -0.0456
     18 C3          0.0820    5.1370    8.8540 C.ar      1 8F3         0.1030
     19 O5          0.7220    4.6910    7.7280 O.3       1 8F3        -0.3428
     20 C2         -0.5380    6.3810    8.7950 C.ar      1 8F3         0.1031
     21 O4         -0.5530    7.0290    7.5880 O.3       1 8F3        -0.3429
     22 C1         -1.2630    6.8410    9.8860 C.ar      1 8F3        -0.0420
     23 C6         -1.3850    6.0650   11.0350 C.ar      1 8F3        -0.0238
     24 C7         -2.2710    6.6430   12.1510 C.3       1 8F3         0.1017
     25 C18        -1.5220    7.6090   13.0770 C.ar      1 8F3        -0.0096
     26 C17        -0.2570    8.1110   12.7070 C.ar      1 8F3        -0.0566
     27 C22         0.4540    8.9440   13.5670 C.ar      1 8F3        -0.0683
     28 C21        -0.0750    9.2980   14.7920 C.ar      1 8F3        -0.0686
     29 C20        -1.3000    8.7960   15.1810 C.ar      1 8F3        -0.0683
     30 C19        -2.0190    7.9430   14.3310 C.ar      1 8F3        -0.0566
     31 H1         -3.5674    2.7724   12.9450 H         1 8F3         0.0670
     32 H2         -4.3579    0.9089   14.3887 H         1 8F3         0.0649
     33 H3         -5.7252   -1.2855   16.7276 H         1 8F3         0.1635
     34 H4         -5.0144   -0.4829   15.3672 H         1 8F3         0.1635
     35 H5         -6.6378    3.7124   16.7117 H         1 8F3         0.0649
     36 H6         -5.9263    5.5505   15.2011 H         1 8F3         0.0670
     37 H7         -2.0679    3.8747   14.1606 H         1 8F3         0.0544
     38 H8         -0.8860    5.2152   13.9786 H         1 8F3         0.0544
     39 H9         -1.6815    3.0750   11.9730 H         1 8F3         0.0410
     40 H10        -0.0477    3.4891   12.5940 H         1 8F3         0.0410
     41 H11         0.4287    3.3990   10.0524 H         1 8F3         0.0435
     42 H12         0.7030    5.3703    7.0642 H         1 8F3         0.2420
     43 H13         0.3395    7.1808    7.3002 H         1 8F3         0.2419
     44 H14        -1.7387    7.8141    9.8425 H         1 8F3         0.0439
     45 H15        -3.1311    7.1612   11.7020 H         1 8F3         0.0845
     46 H16         0.1656    7.8460   11.7446 H         1 8F3         0.0560
     47 H17         1.4285    9.3167   13.2729 H         1 8F3         0.0600
     48 H18         0.4704    9.9684   15.4464 H         1 8F3         0.0560
     49 H19        -1.7089    9.0624   16.1489 H         1 8F3         0.0600
     50 H20        -2.9717    7.5403   14.6554 H         1 8F3         0.0560
@<TRIPOS>BOND
     1    1    2 ar 
     2    1   10 ar 
     3    2    3 ar 
     4    3    4 1  
     5    3    8 ar 
     6    4    5 2  
     7    4    6 2  
     8    4    7 am 
     9    8    9 ar 
    10    9   10 ar 
    11   10   11 1  
    12   11   12 2  
    13   11   13 am 
    14   13   14 1  
    15   13   24 1  
    16   14   15 1  
    17   15   16 1  
    18   16   17 ar 
    19   16   23 ar 
    20   17   18 ar 
    21   18   19 1  
    22   18   20 ar 
    23   20   21 1  
    24   20   22 ar 
    25   22   23 ar 
    26   23   24 1  
    27   24   25 1  
    28   25   26 ar 
    29   25   30 ar 
    30   26   27 ar 
    31   27   28 ar 
    32   28   29 ar 
    33   29   30 ar 
    34    1   31 1  
    35    2   32 1  
    36    7   33 1  
    37    7   34 1  
    38    8   35 1  
    39    9   36 1  
    40   14   37 1  
    41   14   38 1  
    42   15   39 1  
    43   15   40 1  
    44   17   41 1  
    45   19   42 1  
    46   21   43 1  
    47   22   44 1  
    48   24   45 1  
    49   26   46 1  
    50   27   47 1  
    51   28   48 1  
    52   29   49 1  
    53   30   50 1  
@<TRIPOS>SUBSTRUCTURE
     1 8F3         1

