### 
### Created by X-TOOL on Mon Sep 10 21:13:31 2018
### 

@<TRIPOS>MOLECULE
5n0f_ligand
   45    46     1     0     0
SMALL
GAST_HUCK


@<TRIPOS>ATOM
      1 O17         4.1020  -33.5750   -4.8190 O.3       1 7K2        -0.3857
      2 C12         3.2090  -32.8280   -5.6760 C.3       1 7K2         0.1188
      3 C11         2.4420  -31.8330   -4.8330 C.3       1 7K2         0.1126
      4 O16         1.6560  -32.5100   -3.8260 O.3       1 7K2        -0.3865
      5 C10         3.3980  -30.7890   -4.2600 C.3       1 7K2         0.1118
      6 O15         2.6680  -29.7110   -3.6390 O.3       1 7K2        -0.3865
      7 C9          4.2690  -30.1970   -5.3830 C.3       1 7K2         0.1115
      8 C13         5.2700  -29.1680   -4.8620 C.3       1 7K2         0.0730
      9 O8          4.9180  -31.1830   -6.2160 O.3       1 7K2        -0.3553
     10 C7          4.0100  -32.1270   -6.8090 C.3       1 7K2         0.1330
     11 S1          2.9010  -31.4060   -8.0260 S.3       1 7K2        -0.1266
     12 C6          4.0160  -30.7440   -9.2450 C.3       1 7K2         0.0063
     13 C5          4.1370  -31.5840  -10.5250 C.3       1 7K2         0.0367
     14 C1          2.8280  -31.4480  -11.3170 C.3       1 7K2        -0.0274
     15 N           2.9670  -32.2400  -12.5580 N.4       1 7K2         0.2292
     16 C2          4.0930  -31.9050  -13.4960 C.3       1 7K2        -0.0045
     17 C3          5.3890  -32.0030  -12.6990 C.3       1 7K2         0.1209
     18 O3          6.4830  -31.6390  -13.5950 O.3       1 7K2        -0.3839
     19 C4          5.3200  -31.1610  -11.4160 C.3       1 7K2         0.0944
     20 O4          6.5910  -31.2960  -10.6820 O.3       1 7K2        -0.3885
     21 O1          6.0930  -29.8050   -3.8910 O.3       1 7K2        -0.3924
     22 H1          4.7070  -32.9771   -4.3959 H         1 7K2         0.2100
     23 H2          2.4927  -33.5234   -6.1377 H         1 7K2         0.0655
     24 H3          1.7379  -31.3047   -5.4926 H         1 7K2         0.0647
     25 H4          1.1838  -31.8675   -3.3096 H         1 7K2         0.2100
     26 H5          4.0439  -31.2697   -3.5105 H         1 7K2         0.0647
     27 H6          2.1104  -29.2940   -4.2853 H         1 7K2         0.2100
     28 H7          3.5775  -29.6513   -6.0418 H         1 7K2         0.0646
     29 H8          4.7333  -28.3256   -4.4012 H         1 7K2         0.0584
     30 H9          5.8903  -28.7978   -5.6916 H         1 7K2         0.0584
     31 H10         4.6118  -32.8881   -7.3273 H         1 7K2         0.0740
     32 H11         5.0145  -30.6663   -8.7902 H         1 7K2         0.0382
     33 H12         3.6616  -29.7411   -9.5252 H         1 7K2         0.0382
     34 H13         4.2798  -32.6365  -10.2391 H         1 7K2         0.0387
     35 H14         2.6488  -30.3915  -11.5654 H         1 7K2         0.0818
     36 H15         1.9877  -31.8320  -10.7201 H         1 7K2         0.0818
     37 H16         2.1078  -32.1377  -13.0750 H         1 7K2         0.2014
     38 H17         3.0825  -33.2036  -12.2855 H         1 7K2         0.2014
     39 H18         3.9671  -30.8844  -13.8864 H         1 7K2         0.0840
     40 H19         4.1108  -32.6183  -14.3332 H         1 7K2         0.0840
     41 H20         5.5341  -33.0499  -12.3941 H         1 7K2         0.0673
     42 H21         6.4997  -32.2380  -14.3322 H         1 7K2         0.2101
     43 H22         5.1824  -30.1061  -11.6958 H         1 7K2         0.0626
     44 H23         6.5532  -30.7768   -9.8873 H         1 7K2         0.2099
     45 H24         6.5509  -30.5332   -4.2942 H         1 7K2         0.2095
@<TRIPOS>BOND
     1    1    2 1  
     2    2    3 1  
     3    2   10 1  
     4    3    4 1  
     5    3    5 1  
     6    5    6 1  
     7    5    7 1  
     8    7    8 1  
     9    7    9 1  
    10    8   21 1  
    11    9   10 1  
    12   10   11 1  
    13   11   12 1  
    14   12   13 1  
    15   13   14 1  
    16   13   19 1  
    17   14   15 1  
    18   15   16 1  
    19   16   17 1  
    20   17   18 1  
    21   17   19 1  
    22   19   20 1  
    23    1   22 1  
    24    2   23 1  
    25    3   24 1  
    26    4   25 1  
    27    5   26 1  
    28    6   27 1  
    29    7   28 1  
    30    8   29 1  
    31    8   30 1  
    32   10   31 1  
    33   12   32 1  
    34   12   33 1  
    35   13   34 1  
    36   14   35 1  
    37   14   36 1  
    38   15   37 1  
    39   15   38 1  
    40   16   39 1  
    41   16   40 1  
    42   17   41 1  
    43   18   42 1  
    44   19   43 1  
    45   20   44 1  
    46   21   45 1  
@<TRIPOS>SUBSTRUCTURE
     1 7K2         1

