### 
### Created by X-TOOL on Mon Sep 10 21:13:32 2018
### 

@<TRIPOS>MOLECULE
5n16_ligand
   45    50     1     0     0
SMALL
GAST_HUCK


@<TRIPOS>ATOM
      1 O1        -12.1590   23.9050   12.7390 O.2       1 8FN        -0.3741
      2 O2        -16.7750   30.8040    7.6170 O.3       1 8FN        -0.1287
      3 N1        -13.7930   24.9630   11.6590 N.am      1 8FN        -0.2173
      4 N3        -16.4190   29.5320    7.7970 N.2       1 8FN        -0.1129
      5 N4        -16.6840   35.0010   10.0910 N.ar      1 8FN        -0.2677
      6 N5        -17.3290   33.6830    7.7830 N.ar      1 8FN        -0.2564
      7 C1         -9.4890   27.0700   12.3240 C.ar      1 8FN        -0.0629
      8 C2         -9.9510   28.2860   12.7960 C.ar      1 8FN        -0.0632
      9 C3        -11.3020   28.4450   13.1110 C.ar      1 8FN        -0.0421
     10 C4        -12.1820   27.3770   12.9540 C.ar      1 8FN         0.0483
     11 C5        -11.7190   26.1620   12.4670 C.ar      1 8FN         0.0702
     12 C6        -10.3710   26.0050   12.1650 C.ar      1 8FN        -0.0469
     13 C7        -12.6060   24.9570   12.2890 C.2       1 8FN         0.2323
     14 C8        -14.3210   26.1160   11.0550 C.ar      1 8FN         0.0867
     15 C9        -14.7760   26.0020    9.7400 C.ar      1 8FN        -0.0434
     16 C12       -14.9280   28.4390   11.0450 C.ar      1 8FN        -0.0500
     17 C13       -14.4110   27.3480   11.7140 C.ar      1 8FN         0.0546
     18 C14       -15.9410   29.4970    9.0610 C.2       1 8FN         0.1163
     19 C15       -16.5370   31.5730    8.7050 C.2       1 8FN         0.2642
     20 C16       -16.7950   33.0210    8.8340 C.ar      1 8FN         0.1496
     21 C10       -15.3240   27.0960    9.0800 C.ar      1 8FN        -0.0710
     22 C11       -15.3910   28.3000    9.7440 C.ar      1 8FN        -0.0146
     23 S1        -13.8260   27.5580   13.2940 S.3       1 8FN        -0.0461
     24 N2        -15.9870   30.7430    9.6130 N.2       1 8FN        -0.2559
     25 C19       -17.5400   34.9970    7.8840 C.ar      1 8FN         0.0439
     26 C18       -17.2180   35.6580    9.0610 C.ar      1 8FN         0.0439
     27 C17       -16.4600   33.6880   10.0020 C.ar      1 8FN         0.0588
     28 C20       -14.4730   23.6560   11.4960 C.3       1 8FN         0.0654
     29 C22       -15.1030   23.2530   12.8330 C.3       1 8FN        -0.0222
     30 C21       -15.9820   23.7890   11.7160 C.3       1 8FN        -0.0222
     31 H1         -8.4404   26.9469   12.0781 H         1 8FN         0.0572
     32 H2         -9.2641   29.1152   12.9212 H         1 8FN         0.0635
     33 H3        -11.6654   29.3984   13.4772 H         1 8FN         0.0579
     34 H4        -10.0057   25.0502   11.8046 H         1 8FN         0.0651
     35 H5        -14.7011   25.0496    9.2278 H         1 8FN         0.0490
     36 H6        -14.9724   29.4045   11.5358 H         1 8FN         0.0534
     37 H7        -15.6907   27.0029    8.0642 H         1 8FN         0.0538
     38 H8        -17.9614   35.5460    7.0496 H         1 8FN         0.0934
     39 H9        -17.4031   36.7228    9.1441 H         1 8FN         0.0939
     40 H10       -16.0210   33.1494   10.8340 H         1 8FN         0.0966
     41 H11       -14.0050   22.9648   10.7797 H         1 8FN         0.0621
     42 H12       -14.9231   23.8624   13.7309 H         1 8FN         0.0293
     43 H13       -15.1601   22.1915   13.1156 H         1 8FN         0.0293
     44 H14       -16.6750   23.1150   11.1911 H         1 8FN         0.0293
     45 H15       -16.4380   24.7859   11.8065 H         1 8FN         0.0293
@<TRIPOS>BOND
     1   13    1 2  
     2    2    4 1  
     3   19    2 1  
     4    3   13 am 
     5   14    3 1  
     6    3   28 1  
     7   18    4 2  
     8    5   26 ar 
     9   27    5 ar 
    10   20    6 ar 
    11    6   25 ar 
    12    8    7 ar 
    13   12    7 ar 
    14    9    8 ar 
    15   10    9 ar 
    16   10   11 ar 
    17   23   10 1  
    18   11   12 ar 
    19   11   13 1  
    20   14   15 ar 
    21   17   14 ar 
    22   15   21 ar 
    23   16   17 ar 
    24   22   16 ar 
    25   17   23 1  
    26   18   22 1  
    27   24   18 1  
    28   20   19 1  
    29   19   24 2  
    30   20   27 ar 
    31   21   22 ar 
    32   25   26 ar 
    33   28   29 1  
    34   28   30 1  
    35   29   30 1  
    36    7   31 1  
    37    8   32 1  
    38    9   33 1  
    39   12   34 1  
    40   15   35 1  
    41   16   36 1  
    42   21   37 1  
    43   25   38 1  
    44   26   39 1  
    45   27   40 1  
    46   28   41 1  
    47   29   42 1  
    48   29   43 1  
    49   30   44 1  
    50   30   45 1  
@<TRIPOS>SUBSTRUCTURE
     1 8FN         1

