### 
### Created by X-TOOL on Mon Sep 10 21:13:31 2018
### 

@<TRIPOS>MOLECULE
5n18_ligand
   44    47     1     0     0
SMALL
GAST_HUCK


@<TRIPOS>ATOM
      1 C1         59.3060    7.2580   33.4790 C.2       1 8HZ         0.1342
      2 C2         58.9900    5.8120   33.6140 C.2       1 8HZ        -0.0054
      3 C5         60.8350    5.3570   32.1690 C.2       1 8HZ        -0.0425
      4 C6         59.7800    4.8940   32.9410 C.2       1 8HZ        -0.0671
      5 C7         59.3080    9.4610   33.6580 C.2       1 8HZ         0.0298
      6 C8         58.9170   10.8430   34.0380 C.ar      1 8HZ        -0.0459
      7 C9         57.5630   11.1120   34.1700 C.ar      1 8HZ        -0.0720
      8 C10        57.1310   12.3830   34.5180 C.ar      1 8HZ        -0.0390
      9 C11        59.8590   11.8410   34.2490 C.ar      1 8HZ        -0.0720
     10 C12        59.4240   13.1170   34.5990 C.ar      1 8HZ        -0.0390
     11 C14        62.6320    9.6480   32.2790 C.ar      1 8HZ         0.0527
     12 C15        63.4600   10.3380   31.4020 C.ar      1 8HZ        -0.0464
     13 C17        63.2000    8.8380   33.2610 C.ar      1 8HZ        -0.0464
     14 C18        64.5810    8.7100   33.3540 C.ar      1 8HZ        -0.0708
     15 C19        65.4020    9.4050   32.4740 C.ar      1 8HZ        -0.0581
     16 C20        66.9000    9.2780   32.5690 C.3       1 8HZ        -0.0369
     17 O          57.6280   14.6320   35.0730 O.3       1 8HZ        -0.3364
     18 C13        58.0650   13.3870   34.7330 C.ar      1 8HZ         0.0822
     19 C          60.3900    8.9670   32.7900 C.2       1 8HZ         0.1936
     20 N2         61.2820    9.7790   32.1610 N.pl3     1 8HZ        -0.2567
     21 C16        64.8430   10.2180   31.4970 C.ar      1 8HZ        -0.0708
     22 N1         58.6810    8.3320   34.0370 N.2       1 8HZ        -0.3523
     23 N          60.3510    7.6330   32.7070 N.pl3     1 8HZ        -0.1828
     24 C4         61.0980    6.7210   32.0660 C.2       1 8HZ         0.0702
     25 C3         57.8330    5.3600   34.4640 C.3       1 8HZ        -0.0302
     26 H1         61.4652    4.6458   31.6371 H         1 8HZ         0.0501
     27 H2         59.5760    3.8270   33.0170 H         1 8HZ         0.0495
     28 H3         56.8381   10.3242   34.0002 H         1 8HZ         0.0535
     29 H4         56.0721   12.5908   34.6213 H         1 8HZ         0.0530
     30 H5         60.9170   11.6302   34.1429 H         1 8HZ         0.0535
     31 H6         60.1487   13.9052   34.7682 H         1 8HZ         0.0530
     32 H7         63.0257   10.9738   30.6390 H         1 8HZ         0.0511
     33 H8         62.5612    8.3050   33.9560 H         1 8HZ         0.0511
     34 H9         65.0169    8.0691   34.1118 H         1 8HZ         0.0526
     35 H10        67.3706    9.8993   31.7928 H         1 8HZ         0.0368
     36 H11        67.1889    8.2268   32.4223 H         1 8HZ         0.0368
     37 H12        67.2344    9.6152   33.5612 H         1 8HZ         0.0368
     38 H13        56.6791   14.6319   35.1182 H         1 8HZ         0.2467
     39 H14        60.9162   10.5338   31.5631 H         1 8HZ         0.2087
     40 H15        65.4832   10.7585   30.8092 H         1 8HZ         0.0526
     41 H16        61.9310    7.0558   31.4496 H         1 8HZ         0.1078
     42 H17        57.3392    6.2372   34.9076 H         1 8HZ         0.0382
     43 H18        58.2014    4.7025   35.2652 H         1 8HZ         0.0382
     44 H19        57.1127    4.8101   33.8405 H         1 8HZ         0.0382
@<TRIPOS>BOND
     1    1    2 1  
     2   22    1 2  
     3    1   23 1  
     4    2    4 2  
     5    2   25 1  
     6    4    3 1  
     7    3   24 2  
     8    5    6 1  
     9   19    5 2  
    10    5   22 1  
    11    6    7 ar 
    12    6    9 ar 
    13    7    8 ar 
    14    8   18 ar 
    15    9   10 ar 
    16   10   18 ar 
    17   11   12 ar 
    18   11   13 ar 
    19   20   11 1  
    20   12   21 ar 
    21   13   14 ar 
    22   14   15 ar 
    23   15   16 1  
    24   21   15 ar 
    25   18   17 1  
    26   19   20 1  
    27   19   23 1  
    28   23   24 1  
    29    3   26 1  
    30    4   27 1  
    31    7   28 1  
    32    8   29 1  
    33    9   30 1  
    34   10   31 1  
    35   12   32 1  
    36   13   33 1  
    37   14   34 1  
    38   16   35 1  
    39   16   36 1  
    40   16   37 1  
    41   17   38 1  
    42   20   39 1  
    43   21   40 1  
    44   24   41 1  
    45   25   42 1  
    46   25   43 1  
    47   25   44 1  
@<TRIPOS>SUBSTRUCTURE
     1 8HZ         1

