### 
### Created by X-TOOL on Wed Jan  1 15:39:35 2020
### 

@<TRIPOS>MOLECULE
5n1p_ligand
   23    24     1     0     0
SMALL
GAST_HUCK


@<TRIPOS>ATOM
      1 C1        -34.8270   13.8290   51.0830 C.2       1 8GK         0.2265
      2 C2        -35.5110   13.1610   49.9360 C.ar      1 8GK         0.0574
      3 C3        -36.8420   13.4690   49.6950 C.ar      1 8GK        -0.0005
      4 C4        -37.5020   12.8790   48.6230 C.ar      1 8GK        -0.0125
      5 C5        -36.8290   11.9900   47.7840 C.ar      1 8GK        -0.0486
      6 C6        -35.4940   11.6860   48.0260 C.ar      1 8GK        -0.0540
      7 C7        -34.8350   12.2780   49.1020 C.ar      1 8GK        -0.0407
      8 C8        -38.8360   13.1910   48.3990 C.ar      1 8GK        -0.0522
      9 C9        -39.5130   14.0770   49.2330 C.ar      1 8GK        -0.0601
     10 C10       -38.8510   14.6630   50.3060 C.ar      1 8GK        -0.0603
     11 C11       -37.5150   14.3570   50.5300 C.ar      1 8GK        -0.0519
     12 O12       -34.6450   15.0260   50.9870 O.2       1 8GK        -0.3864
     13 N13       -34.4660   13.1570   52.1750 N.am      1 8GK        -0.1638
     14 O14       -34.5180   13.8440   53.3870 O.3       1 8GK        -0.2721
     15 H1        -37.3458   11.5374   46.9455 H         1 8GK         0.0672
     16 H2        -34.9681   10.9917   47.3807 H         1 8GK         0.0632
     17 H3        -33.7921   12.0491   49.2891 H         1 8GK         0.0685
     18 H4        -39.3578   12.7387   47.5634 H         1 8GK         0.0633
     19 H5        -40.5551   14.3096   49.0459 H         1 8GK         0.0619
     20 H6        -39.3723   15.3517   50.9610 H         1 8GK         0.0628
     21 H7        -36.9915   14.8135   51.3623 H         1 8GK         0.0622
     22 H8        -34.1710   12.2027   52.1276 H         1 8GK         0.2210
     23 H9        -35.4084   14.1338   53.5475 H         1 8GK         0.2491
@<TRIPOS>BOND
     1    1    2 1  
     2    1   12 2  
     3    1   13 am 
     4    2    3 ar 
     5    2    7 ar 
     6    3    4 ar 
     7    3   11 ar 
     8    4    5 ar 
     9    4    8 ar 
    10    5    6 ar 
    11    6    7 ar 
    12    8    9 ar 
    13    9   10 ar 
    14   10   11 ar 
    15   13   14 1  
    16    5   15 1  
    17    6   16 1  
    18    7   17 1  
    19    8   18 1  
    20    9   19 1  
    21   10   20 1  
    22   11   21 1  
    23   13   22 1  
    24   14   23 1  
@<TRIPOS>SUBSTRUCTURE
     1 8GK         1

