### 
### Created by X-TOOL on Mon Sep 10 21:13:31 2018
### 

@<TRIPOS>MOLECULE
5n1r_ligand
   37    39     1     0     0
SMALL
GAST_HUCK


@<TRIPOS>ATOM
      1 C2         -3.6990    2.1030   15.5500 C.ar      1 8GH        -0.0356
      2 C3         -3.0580    3.1680   14.9300 C.ar      1 8GH        -0.0538
      3 C4         -3.7350    4.3320   14.5890 C.ar      1 8GH        -0.0220
      4 C5         -5.1220    4.3750   14.8400 C.ar      1 8GH        -0.0538
      5 C6         -5.7760    3.3030   15.4460 C.ar      1 8GH        -0.0356
      6 C17        -2.2790   10.1840   11.7160 C.2       1 8GH         0.0517
      7 C16        -2.7770   11.4520   11.8830 C.2       1 8GH        -0.0495
      8 C1         -5.0570    2.1730   15.8220 C.ar      1 8GH         0.1070
      9 C7         -2.9600    5.4880   14.1010 C.ar      1 8GH        -0.0242
     10 C8         -3.0910    6.7380   14.6810 C.ar      1 8GH        -0.0599
     11 C9         -2.2850    7.7900   14.2790 C.ar      1 8GH        -0.0561
     12 C10        -1.3360    7.6180   13.2810 C.ar      1 8GH        -0.0097
     13 C11        -1.1970    6.3650   12.7070 C.ar      1 8GH        -0.0561
     14 C12        -1.9850    5.3110   13.1250 C.ar      1 8GH        -0.0599
     15 C13        -0.4850    8.7920   12.8330 C.3       1 8GH         0.1048
     16 C15        -2.0890   11.9610   12.9860 C.2       1 8GH        -0.0073
     17 S1         -5.8570    0.8510   16.7270 S.o2      1 8GH         0.0655
     18 N13        -1.3430    9.9960   12.6760 N.pl3     1 8GH        -0.1966
     19 N14        -1.2230   11.0810   13.4900 N.2       1 8GH        -0.2170
     20 O18        -5.4200   -0.4870   16.1320 O.2       1 8GH        -0.1506
     21 O19        -5.4860    1.0100   18.1140 O.2       1 8GH        -0.1506
     22 N20        -7.3380    1.0480   16.5220 N.am      1 8GH        -0.2610
     23 H1         -3.1373    1.2165   15.8214 H         1 8GH         0.0635
     24 H2         -2.0003    3.0886   14.7061 H         1 8GH         0.0615
     25 H3         -5.6884    5.2550   14.5575 H         1 8GH         0.0615
     26 H4         -6.8442    3.3501   15.6241 H         1 8GH         0.0635
     27 H5         -2.5798    9.4651   10.9553 H         1 8GH         0.0986
     28 H6         -3.5399   11.9507   11.2870 H         1 8GH         0.0339
     29 H7         -3.8314    6.8949   15.4571 H         1 8GH         0.0609
     30 H8         -2.3968    8.7600   14.7498 H         1 8GH         0.0561
     31 H9         -0.4639    6.2107   11.9235 H         1 8GH         0.0561
     32 H10        -1.8415    4.3304   12.6857 H         1 8GH         0.0609
     33 H11        -0.0088    8.5533   11.8706 H         1 8GH         0.0809
     34 H12         0.2911    8.9909   13.5868 H         1 8GH         0.0809
     35 H13        -2.2419   12.9613   13.3884 H         1 8GH         0.0650
     36 H14        -7.9894    0.4164   16.9426 H         1 8GH         0.1635
     37 H15        -7.6687    1.8102   15.9655 H         1 8GH         0.1635
@<TRIPOS>BOND
     1    2    1 ar 
     2    1    8 ar 
     3    3    2 ar 
     4    3    4 ar 
     5    9    3 1  
     6    4    5 ar 
     7    5    8 ar 
     8    6    7 2  
     9   18    6 1  
    10    7   16 1  
    11    8   17 1  
    12   10    9 ar 
    13   14    9 ar 
    14   11   10 ar 
    15   12   11 ar 
    16   12   13 ar 
    17   15   12 1  
    18   13   14 ar 
    19   15   18 1  
    20   16   19 2  
    21   17   20 2  
    22   17   21 2  
    23   17   22 am 
    24   18   19 1  
    25    1   23 1  
    26    2   24 1  
    27    4   25 1  
    28    5   26 1  
    29    6   27 1  
    30    7   28 1  
    31   10   29 1  
    32   11   30 1  
    33   13   31 1  
    34   14   32 1  
    35   15   33 1  
    36   15   34 1  
    37   16   35 1  
    38   22   36 1  
    39   22   37 1  
@<TRIPOS>SUBSTRUCTURE
     1 8GH         1

