### 
### Created by X-TOOL on Mon Sep 10 21:13:31 2018
### 

@<TRIPOS>MOLECULE
5n1s_ligand
   31    33     1     0     0
SMALL
GAST_HUCK


@<TRIPOS>ATOM
      1 S1         -5.9670    0.8580   16.7720 S.o2      1 8GE         0.0656
      2 O1         -5.4520    0.9750   18.1220 O.2       1 8GE        -0.1506
      3 O2         -7.3790    0.9800   16.5400 O.2       1 8GE        -0.1506
      4 N3         -5.4250   -0.5030   16.0640 N.am      1 8GE        -0.2610
      5 C4         -5.2530    2.2460   15.9320 C.ar      1 8GE         0.1072
      6 C5         -6.0180    3.3690   15.5590 C.ar      1 8GE        -0.0352
      7 C6         -5.3870    4.4850   15.0200 C.ar      1 8GE        -0.0508
      8 C7         -4.0160    4.5140   14.8450 C.ar      1 8GE         0.0046
      9 C8         -3.2860    3.3950   15.1500 C.ar      1 8GE        -0.0508
     10 C9         -3.8790    2.2780   15.7230 C.ar      1 8GE        -0.0352
     11 C3         -0.2800    8.8450   12.9590 C.ar      1 8GE        -0.0781
     12 C2         -1.2330    9.7090   13.5130 C.ar      1 8GE        -0.0756
     13 C41        -0.4880    7.4650   12.9510 C.ar      1 8GE        -0.0735
     14 C51        -1.6330    6.9590   13.5640 C.ar      1 8GE        -0.0232
     15 C91        -2.1260    5.6300   13.7360 C.2       1 8GE        -0.0529
     16 C61        -2.5630    7.8150   14.1450 C.ar      1 8GE         0.0643
     17 C1         -2.3900    9.2230   14.1100 C.ar      1 8GE        -0.0424
     18 N7         -3.6210    7.0170   14.6850 N.pl3     1 8GE        -0.2746
     19 C81        -3.2970    5.6850   14.4100 C.2       1 8GE         0.0640
     20 H1         -4.4573   -0.7474   16.1255 H         1 8GE         0.1635
     21 H2         -6.0596   -1.0951   15.5673 H         1 8GE         0.1635
     22 H3         -7.0938    3.3631   15.6916 H         1 8GE         0.0635
     23 H4         -5.9797    5.3459   14.7325 H         1 8GE         0.0620
     24 H5         -2.2227    3.3817   14.9394 H         1 8GE         0.0620
     25 H6         -3.2689    1.4285   16.0082 H         1 8GE         0.0635
     26 H7          0.6291    9.2526   12.5318 H         1 8GE         0.0517
     27 H8         -1.0646   10.7792   13.4753 H         1 8GE         0.0537
     28 H9          0.2260    6.8005   12.4779 H         1 8GE         0.0541
     29 H10        -1.6393    4.7221   13.3827 H         1 8GE         0.0335
     30 H11        -3.1306    9.8926   14.5320 H         1 8GE         0.0543
     31 H12        -4.4578    7.3574   15.1797 H         1 8GE         0.2236
@<TRIPOS>BOND
     1    1    2 2  
     2    1    3 2  
     3    1    4 am 
     4    5    1 1  
     5    6    5 ar 
     6   10    5 ar 
     7    7    6 ar 
     8    8    7 ar 
     9    8    9 ar 
    10   19    8 1  
    11    9   10 ar 
    12   11   12 ar 
    13   13   11 ar 
    14   12   17 ar 
    15   14   13 ar 
    16   15   14 1  
    17   14   16 ar 
    18   15   19 2  
    19   16   17 ar 
    20   16   18 1  
    21   18   19 1  
    22    4   20 1  
    23    4   21 1  
    24    6   22 1  
    25    7   23 1  
    26    9   24 1  
    27   10   25 1  
    28   11   26 1  
    29   12   27 1  
    30   13   28 1  
    31   15   29 1  
    32   17   30 1  
    33   18   31 1  
@<TRIPOS>SUBSTRUCTURE
     1 8GE         1

