### 
### Created by X-TOOL on Mon Sep 10 21:13:32 2018
### 

@<TRIPOS>MOLECULE
5n1v_ligand
   63    68     1     0     0
SMALL
GAST_HUCK


@<TRIPOS>ATOM
      1 C1        -70.2850   21.1170   -1.0090 C.ar      1 8GQ         0.0424
      2 C2        -69.1030   20.8180   -1.6850 C.ar      1 8GQ        -0.0271
      3 C3        -69.0720   20.8470   -3.0690 C.ar      1 8GQ         0.0990
      4 N6        -70.2850   21.0470    0.4000 N.pl3     1 8GQ        -0.2341
      5 C7        -72.2150   22.5870   -5.2480 C.3       1 8GQ         0.0489
      6 C8        -71.1020   21.8750   -5.9670 C.2       1 8GQ         0.1980
      7 C9        -67.4210   19.2840   -3.8840 C.3       1 8GQ         0.0669
      8 C10       -66.4730   18.9930   -2.7810 C.3       1 8GQ        -0.0235
      9 C11       -65.6250   17.9800   -2.7080 C.3       1 8GQ        -0.0270
     10 C12       -65.9290   16.5460   -2.4810 C.3       1 8GQ         0.0482
     11 C13       -66.8030   15.4990   -0.5240 C.3       1 8GQ         0.0813
     12 C14       -66.4930   14.9710    0.8670 C.3       1 8GQ         0.0010
     13 C15       -66.7150   16.1770    1.7910 C.3       1 8GQ         0.0695
     14 C16       -67.9850   16.4380   -0.2950 C.3       1 8GQ         0.0595
     15 C19       -69.5780   20.1410    1.1960 C.2       1 8GQ         0.2406
     16 C20       -68.7130   19.5190    3.3350 C.2       1 8GQ         0.1788
     17 C21       -68.7630   20.0590    4.6340 C.2       1 8GQ         0.1071
     18 C22       -69.4860   21.2550    4.5010 C.2       1 8GQ         0.0143
     19 C24       -65.4230   16.8640    2.2020 C.3       1 8GQ         0.0677
     20 N5        -67.7200   19.1260    6.7900 N.1       1 8GQ        -0.3835
     21 C23       -68.1730   19.5250    5.8220 C.1       1 8GQ         0.0407
     22 N4        -69.8670   21.5090    3.2270 N.2       1 8GQ        -0.2014
     23 N2        -69.3980   20.4140    2.5200 N.pl3     1 8GQ        -0.1002
     24 C18       -69.0240   18.9620    0.7040 C.2       1 8GQ         0.0493
     25 N3        -68.1700   18.3740    2.8830 N.2       1 8GQ        -0.2734
     26 C17       -68.2790   18.1320    1.5500 C.2       1 8GQ         0.1009
     27 N1        -67.7300   16.9570    1.0630 N.pl3     1 8GQ        -0.2815
     28 O3        -64.6880   16.0150    3.0790 O.3       1 8GQ        -0.3927
     29 O2        -65.6690   16.1400   -1.1210 O.3       1 8GQ        -0.3744
     30 O1        -67.9420   20.6240   -3.8170 O.3       1 8GQ        -0.3285
     31 C4        -70.2010   21.2550   -3.7990 C.ar      1 8GQ         0.0882
     32 N         -70.1660   21.2870   -5.1900 N.am      1 8GQ        -0.2459
     33 O         -71.0240   21.8550   -7.1940 O.2       1 8GQ        -0.3884
     34 C6        -72.6040   21.9560   -3.9140 C.3       1 8GQ        -0.0105
     35 C5        -71.3890   21.5440   -3.1170 C.ar      1 8GQ        -0.0344
     36 C         -71.4210   21.4890   -1.7250 C.ar      1 8GQ        -0.0583
     37 H1        -68.2089   20.5630   -1.1276 H         1 8GQ         0.0374
     38 H2        -70.8680   21.7369    0.8950 H         1 8GQ         0.2223
     39 H3        -73.1010   22.5887   -5.8999 H         1 8GQ         0.0525
     40 H4        -71.8965   23.6229   -5.0595 H         1 8GQ         0.0525
     41 H5        -68.2600   18.5750   -3.8258 H         1 8GQ         0.0608
     42 H6        -66.8981   19.1554   -4.8431 H         1 8GQ         0.0608
     43 H7        -67.1018   18.9018   -1.8831 H         1 8GQ         0.0292
     44 H8        -65.8467   19.8936   -2.7002 H         1 8GQ         0.0292
     45 H9        -64.9382   18.2508   -1.8926 H         1 8GQ         0.0288
     46 H10       -65.0839   18.0011   -3.6655 H         1 8GQ         0.0288
     47 H11       -65.3058   15.9410   -3.1560 H         1 8GQ         0.0560
     48 H12       -66.9912   16.3696   -2.7059 H         1 8GQ         0.0560
     49 H13       -67.1100   14.6713   -1.1802 H         1 8GQ         0.0617
     50 H14       -65.4520   14.6207    0.9274 H         1 8GQ         0.0314
     51 H15       -67.1729   14.1477    1.1314 H         1 8GQ         0.0314
     52 H16       -67.1739   15.8255    2.7269 H         1 8GQ         0.0585
     53 H17       -68.9391   15.8923   -0.3382 H         1 8GQ         0.0551
     54 H18       -67.9942   17.2517   -1.0351 H         1 8GQ         0.0551
     55 H19       -69.7170   21.9121    5.3381 H         1 8GQ         0.0720
     56 H20       -65.6577   17.8071    2.7171 H         1 8GQ         0.0580
     57 H21       -64.8200   17.0754    1.3067 H         1 8GQ         0.0580
     58 H22       -69.1703   18.6856   -0.3391 H         1 8GQ         0.0422
     59 H23       -63.8813   16.4471    3.3340 H         1 8GQ         0.2095
     60 H24       -69.3943   20.8439   -5.6462 H         1 8GQ         0.2166
     61 H25       -73.2224   21.0670   -4.1067 H         1 8GQ         0.0417
     62 H26       -73.1833   22.6859   -3.3295 H         1 8GQ         0.0417
     63 H27       -72.3344   21.7369   -1.1964 H         1 8GQ         0.0357
@<TRIPOS>BOND
     1    2    1 ar 
     2    1    4 1  
     3    1   36 ar 
     4    3    2 ar 
     5    3   30 1  
     6   31    3 ar 
     7    4   15 1  
     8    6    5 1  
     9    5   34 1  
    10   32    6 am 
    11    6   33 2  
    12    7    8 1  
    13   30    7 1  
    14    8    9 1  
    15    9   10 1  
    16   10   29 1  
    17   11   12 1  
    18   11   14 1  
    19   29   11 1  
    20   12   13 1  
    21   13   19 1  
    22   27   13 1  
    23   27   14 1  
    24   15   23 1  
    25   15   24 2  
    26   16   17 2  
    27   23   16 1  
    28   16   25 1  
    29   18   17 1  
    30   17   21 1  
    31   22   18 2  
    32   19   28 1  
    33   21   20 3  
    34   23   22 1  
    35   24   26 1  
    36   26   25 2  
    37   26   27 1  
    38   31   32 1  
    39   31   35 ar 
    40   34   35 1  
    41   35   36 ar 
    42    2   37 1  
    43    4   38 1  
    44    5   39 1  
    45    5   40 1  
    46    7   41 1  
    47    7   42 1  
    48    8   43 1  
    49    8   44 1  
    50    9   45 1  
    51    9   46 1  
    52   10   47 1  
    53   10   48 1  
    54   11   49 1  
    55   12   50 1  
    56   12   51 1  
    57   13   52 1  
    58   14   53 1  
    59   14   54 1  
    60   18   55 1  
    61   19   56 1  
    62   19   57 1  
    63   24   58 1  
    64   28   59 1  
    65   32   60 1  
    66   34   61 1  
    67   34   62 1  
    68   36   63 1  
@<TRIPOS>SUBSTRUCTURE
     1 8GQ         1

