### 
### Created by X-TOOL on Mon Sep 10 21:13:32 2018
### 

@<TRIPOS>MOLECULE
5n1x_ligand
   31    33     1     0     0
SMALL
GAST_HUCK


@<TRIPOS>ATOM
      1 C1        -11.9820   16.2270    1.6980 C.3       1 8HH         0.0331
      2 C2        -10.2430   17.4000    0.2530 C.2       1 8HH         0.2209
      3 C3        -10.0460   18.6450    0.9420 C.2       1 8HH         0.0236
      4 C7         -7.9780   17.8070   -2.4100 C.2       1 8HH        -0.0444
      5 C8         -8.9600   20.9080    1.1750 C.ar      1 8HH         0.0281
      6 C9         -9.6730   21.2330    2.3260 C.ar      1 8HH        -0.0286
      7 C10        -9.4730   22.4580    2.9410 C.ar      1 8HH        -0.0297
      8 C11        -8.5520   23.3320    2.3860 C.ar      1 8HH         0.0146
      9 C12        -8.0550   21.8620    0.7010 C.ar      1 8HH         0.0254
     10 C         -13.4040   16.2850    1.2690 C.3       1 8HH        -0.0437
     11 N         -11.0690   16.3350    0.5400 N.pl3     1 8HH        -0.2709
     12 N2         -9.4740   17.2580   -0.8810 N.pl3     1 8HH        -0.1138
     13 N3         -9.4830   16.2010   -1.7360 N.2       1 8HH        -0.2145
     14 C6         -8.5480   16.5680   -2.6760 C.2       1 8HH        -0.0221
     15 C5         -8.5860   18.2570   -1.2540 C.2       1 8HH         0.1467
     16 N1         -8.4150   19.4040   -0.6120 N.2       1 8HH        -0.2909
     17 C4         -9.1450   19.6060    0.4810 C.2       1 8HH         0.0354
     18 N4         -7.8440   23.0530    1.2830 N.ar      1 8HH        -0.2915
     19 H1        -11.8004   15.2705    2.2099 H         1 8HH         0.0531
     20 H2        -11.7822   17.0575    2.3910 H         1 8HH         0.0531
     21 H3        -10.6152   18.8444    1.8487 H         1 8HH         0.0420
     22 H4         -7.2116   18.3171   -2.9917 H         1 8HH         0.0200
     23 H5        -10.3842   20.5278    2.7406 H         1 8HH         0.0778
     24 H6        -10.0239   22.7265    3.8352 H         1 8HH         0.0718
     25 H7         -8.3963   24.2901    2.8686 H         1 8HH         0.0850
     26 H8         -7.4883   21.6253   -0.1922 H         1 8HH         0.0869
     27 H9        -14.0566   16.2023    2.1506 H         1 8HH         0.0250
     28 H10       -13.6130   15.4543    0.5790 H         1 8HH         0.0250
     29 H11       -13.5948   17.2413    0.7600 H         1 8HH         0.0250
     30 H12       -11.0485   15.5393   -0.1137 H         1 8HH         0.1943
     31 H13        -8.2832   15.9540   -3.5355 H         1 8HH         0.0633
@<TRIPOS>BOND
     1    1   10 1  
     2   11    1 1  
     3    2    3 2  
     4    2   11 1  
     5   12    2 1  
     6    3   17 1  
     7    4   14 1  
     8   15    4 2  
     9    5    6 ar 
    10    5    9 ar 
    11   17    5 1  
    12    6    7 ar 
    13    7    8 ar 
    14   18    8 ar 
    15    9   18 ar 
    16   12   13 1  
    17   12   15 1  
    18   13   14 2  
    19   15   16 1  
    20   16   17 2  
    21    1   19 1  
    22    1   20 1  
    23    3   21 1  
    24    4   22 1  
    25    6   23 1  
    26    7   24 1  
    27    8   25 1  
    28    9   26 1  
    29   10   27 1  
    30   10   28 1  
    31   10   29 1  
    32   11   30 1  
    33   14   31 1  
@<TRIPOS>SUBSTRUCTURE
     1 8HH         1

