### 
### Created by X-TOOL on Mon Sep 10 21:13:34 2018
### 

@<TRIPOS>MOLECULE
5n1z_ligand
   61    66     1     0     0
SMALL
GAST_HUCK


@<TRIPOS>ATOM
      1 C1          4.6390   -2.4960  -11.9560 C.ar      1 8GQ         0.0424
      2 C2          5.2290   -2.0980  -13.1600 C.ar      1 8GQ        -0.0269
      3 C3          4.9860   -2.8210  -14.3210 C.ar      1 8GQ         0.1014
      4 N6          4.9770   -1.8850  -10.7310 N.pl3     1 8GQ        -0.2341
      5 C7          1.9950   -5.8440  -14.4260 C.3       1 8GQ         0.0489
      6 C8          2.8140   -5.5100  -15.6470 C.2       1 8GQ         0.1980
      7 C9          6.5290   -1.4990  -15.6500 C.3       1 8GQ         0.0843
      8 C10         7.8870   -2.0790  -15.4180 C.2       1 8GQ        -0.0671
      9 C11         8.9750   -1.4300  -15.0200 C.2       1 8GQ        -0.0709
     10 C12        10.3450   -2.0230  -14.9210 C.3       1 8GQ         0.0655
     11 C13        11.0010   -3.1640  -12.8370 C.3       1 8GQ         0.0836
     12 C14        11.9550   -3.0360  -11.6560 C.3       1 8GQ         0.0012
     13 C15        11.1400   -2.2550  -10.6080 C.3       1 8GQ         0.0695
     14 C16         9.6650   -3.4400  -12.1640 C.3       1 8GQ         0.0597
     15 C19         6.2510   -1.7480  -10.1990 C.2       1 8GQ         0.2406
     16 C20         7.7770   -0.6190   -8.7760 C.2       1 8GQ         0.1788
     17 C21         7.7110    0.2930   -7.7270 C.2       1 8GQ         0.1071
     18 C22         6.3380    0.5100   -7.5330 C.2       1 8GQ         0.0143
     19 C24        11.5310   -0.7850  -10.5340 C.3       1 8GQ         0.0677
     20 N5          9.6870    1.3470   -6.4740 N.1       1 8GQ        -0.3835
     21 C23         8.8070    0.8850   -7.0340 C.1       1 8GQ         0.0407
     22 N4          5.5680   -0.1580   -8.4210 N.2       1 8GQ        -0.2014
     23 N2          6.4770   -0.8990   -9.1570 N.pl3     1 8GQ        -0.1002
     24 C18         7.3500   -2.3720  -10.7720 C.2       1 8GQ         0.0493
     25 N3          8.8510   -1.2200   -9.3040 N.2       1 8GQ        -0.2734
     26 C17         8.6380   -2.0310  -10.3590 C.2       1 8GQ         0.1009
     27 N1          9.7450   -2.5710  -10.9890 N.pl3     1 8GQ        -0.2815
     28 O3         11.2660   -0.2240   -9.2540 O.3       1 8GQ        -0.3927
     29 O2         10.9260   -1.9410  -13.5880 O.3       1 8GQ        -0.3656
     30 O1          5.4990   -2.5050  -15.5610 O.3       1 8GQ        -0.3196
     31 C4          4.0750   -3.8960  -14.3140 C.ar      1 8GQ         0.0884
     32 N           3.7590   -4.5500  -15.5010 N.am      1 8GQ        -0.2459
     33 O           2.5710   -6.0110  -16.7350 O.2       1 8GQ        -0.3884
     34 C6          2.5730   -5.4820  -13.0780 C.3       1 8GQ        -0.0105
     35 C5          3.4740   -4.2720  -13.1070 C.ar      1 8GQ        -0.0344
     36 C           3.7920   -3.6000  -11.9320 C.ar      1 8GQ        -0.0583
     37 H1          5.8743   -1.2274  -13.1871 H         1 8GQ         0.0374
     38 H2          4.1994   -1.5016  -10.1749 H         1 8GQ         0.2223
     39 H3          1.8250   -6.9308  -14.4304 H         1 8GQ         0.0525
     40 H4          1.0317   -5.3217  -14.5224 H         1 8GQ         0.0525
     41 H5          6.5005   -1.0469  -16.6524 H         1 8GQ         0.0733
     42 H6          6.3376   -0.7244  -14.8928 H         1 8GQ         0.0733
     43 H7          7.9957   -3.1481  -15.5942 H         1 8GQ         0.0477
     44 H8          8.8610   -0.3828  -14.7437 H         1 8GQ         0.0473
     45 H9         11.0053   -1.4894  -15.6205 H         1 8GQ         0.0685
     46 H10        10.2858   -3.0830  -15.2088 H         1 8GQ         0.0685
     47 H11        11.2974   -3.9905  -13.4996 H         1 8GQ         0.0619
     48 H12        12.8602   -2.4803  -11.9419 H         1 8GQ         0.0314
     49 H13        12.2389   -4.0271  -11.2724 H         1 8GQ         0.0314
     50 H14        11.3303   -2.6774   -9.6103 H         1 8GQ         0.0585
     51 H15         9.5710   -4.4974  -11.8760 H         1 8GQ         0.0551
     52 H16         8.8225   -3.1606  -12.8137 H         1 8GQ         0.0551
     53 H17         5.9351    1.1496   -6.7491 H         1 8GQ         0.0720
     54 H18        10.9594   -0.2275  -11.2906 H         1 8GQ         0.0580
     55 H19        12.6065   -0.6931  -10.7456 H         1 8GQ         0.0580
     56 H20         7.2071   -3.1273  -11.5434 H         1 8GQ         0.0422
     57 H21        10.3376   -0.2934   -9.0651 H         1 8GQ         0.2095
     58 H22         4.2742   -4.2887  -16.3173 H         1 8GQ         0.2166
     59 H23         3.1552   -6.3391  -12.7087 H         1 8GQ         0.0417
     60 H24         1.7414   -5.2787  -12.3873 H         1 8GQ         0.0417
     61 H25         3.3768   -3.9387  -10.9897 H         1 8GQ         0.0357
@<TRIPOS>BOND
     1    2    1 ar 
     2    1    4 1  
     3    1   36 ar 
     4    3    2 ar 
     5    3   30 1  
     6   31    3 ar 
     7    4   15 1  
     8    6    5 1  
     9    5   34 1  
    10   32    6 am 
    11    6   33 2  
    12    7    8 1  
    13   30    7 1  
    14    8    9 2  
    15    9   10 1  
    16   10   29 1  
    17   11   12 1  
    18   11   14 1  
    19   29   11 1  
    20   12   13 1  
    21   13   19 1  
    22   27   13 1  
    23   27   14 1  
    24   15   23 1  
    25   15   24 2  
    26   16   17 2  
    27   23   16 1  
    28   16   25 1  
    29   18   17 1  
    30   17   21 1  
    31   22   18 2  
    32   19   28 1  
    33   21   20 3  
    34   23   22 1  
    35   24   26 1  
    36   26   25 2  
    37   26   27 1  
    38   31   32 1  
    39   31   35 ar 
    40   34   35 1  
    41   35   36 ar 
    42    2   37 1  
    43    4   38 1  
    44    5   39 1  
    45    5   40 1  
    46    7   41 1  
    47    7   42 1  
    48    8   43 1  
    49    9   44 1  
    50   10   45 1  
    51   10   46 1  
    52   11   47 1  
    53   12   48 1  
    54   12   49 1  
    55   13   50 1  
    56   14   51 1  
    57   14   52 1  
    58   18   53 1  
    59   19   54 1  
    60   19   55 1  
    61   24   56 1  
    62   28   57 1  
    63   32   58 1  
    64   34   59 1  
    65   34   60 1  
    66   36   61 1  
@<TRIPOS>SUBSTRUCTURE
     1 8GQ         1

