### 
### Created by X-TOOL on Mon Sep 10 21:13:33 2018
### 

@<TRIPOS>MOLECULE
5n20_ligand
   62    66     1     0     0
SMALL
GAST_HUCK


@<TRIPOS>ATOM
      1 C1         14.9910   -0.1690    9.2940 C.2       1 8GN         0.1973
      2 C2         16.1740   -2.1990   10.2730 C.ar      1 8GN         0.0772
      3 C3         16.5670   -1.6650   11.5010 C.ar      1 8GN        -0.0284
      4 N6         14.4460   -0.6670   17.8490 N.2       1 8GN        -0.2012
      5 C7         16.6040   -3.4880    9.9090 C.ar      1 8GN         0.0528
      6 C8         16.8290   -3.5050    7.3600 C.3       1 8GN         0.0276
      7 C9         16.6410   -4.6650    6.3930 C.3       1 8GN         0.0110
      8 C10        15.3470   -5.3070    6.9030 C.3       1 8GN        -0.0004
      9 C11        15.5470   -5.2690    8.4140 C.3       1 8GN         0.0651
     10 C12        14.1970   -6.5330    5.0490 C.3       1 8GN        -0.0430
     11 C13        16.0010   -7.6470    6.2020 C.3       1 8GN        -0.0430
     12 C14        16.7730   -1.6240   14.7020 C.2       1 8GN         0.1144
     13 C15        15.4100   -1.8880   14.5440 C.2       1 8GN         0.0490
     14 C16        14.5250   -1.5960   15.5810 C.2       1 8GN         0.2261
     15 C19        15.4140   -0.1350   18.5820 C.2       1 8GN         0.0144
     16 C20        17.8960    0.4260   18.3470 C.1       1 8GN         0.0407
     17 C21        12.5480   -2.2420   14.2530 C.3       1 8GN         0.0840
     18 C22        11.2690   -3.0020   14.3660 C.2       1 8GN        -0.0554
     19 N7         18.9230    0.8500   18.6090 N.1       1 8GN        -0.3835
     20 C18        16.6530   -0.1370   17.9280 C.2       1 8GN         0.1072
     21 N4         15.0550   -1.0240   16.7070 N.pl3     1 8GN        -0.1019
     22 N8         13.2050   -1.7920   15.4830 N.pl3     1 8GN        -0.2595
     23 C23        12.4150   -3.7110   14.0250 C.2       1 8GN        -0.0554
     24 C17        16.4070   -0.7390   16.7260 C.2       1 8GN         0.1794
     25 N5         17.2750   -1.0290   15.7670 N.2       1 8GN        -0.2703
     26 N3         17.6150   -2.0410   13.6990 N.pl3     1 8GN        -0.2656
     27 C4         17.4080   -2.3770   12.3520 C.ar      1 8GN         0.0382
     28 C5         17.8360   -3.6460   11.9820 C.ar      1 8GN        -0.0648
     29 C6         17.4170   -4.2060   10.7860 C.ar      1 8GN        -0.0654
     30 N          15.4280   -1.4570    9.3170 N.am      1 8GN        -0.2406
     31 O          15.0960    0.5960   10.2460 O.2       1 8GN        -0.3867
     32 C          14.3980    0.2680    7.9880 C.3       1 8GN         0.0310
     33 N1         16.2730   -4.0130    8.6200 N.pl3     1 8GN        -0.3141
     34 N2         14.9200   -6.6590    6.3150 N.4       1 8GN         0.2345
     35 H1         16.2131   -0.6838   11.7959 H         1 8GN         0.0381
     36 H2         16.2791   -2.6157    7.0183 H         1 8GN         0.0506
     37 H3         17.8946   -3.2564    7.4729 H         1 8GN         0.0506
     38 H4         17.4838   -5.3698    6.4472 H         1 8GN         0.0339
     39 H5         16.5279   -4.3075    5.3589 H         1 8GN         0.0339
     40 H6         14.5224   -4.6224    6.6552 H         1 8GN         0.0871
     41 H7         16.1411   -6.1294    8.7558 H         1 8GN         0.0561
     42 H8         14.5812   -5.2580    8.9403 H         1 8GN         0.0561
     43 H9         13.9211   -7.5331    4.6832 H         1 8GN         0.0778
     44 H10        14.8397   -6.0359    4.3076 H         1 8GN         0.0778
     45 H11        13.2866   -5.9355    5.2045 H         1 8GN         0.0778
     46 H12        16.5291   -7.7242    7.1638 H         1 8GN         0.0778
     47 H13        16.7072   -7.3301    5.4204 H         1 8GN         0.0778
     48 H14        15.5763   -8.6265    5.9372 H         1 8GN         0.0778
     49 H15        15.0406   -2.3199   13.6150 H         1 8GN         0.0416
     50 H16        15.2624    0.2611   19.5850 H         1 8GN         0.0721
     51 H17        12.7343   -1.5387   13.4280 H         1 8GN         0.0660
     52 H18        10.1993   -3.0016   14.5702 H         1 8GN         0.0597
     53 H19        12.6215   -1.6178   16.3138 H         1 8GN         0.1957
     54 H20        12.8826   -4.6613   13.7718 H         1 8GN         0.0597
     55 H21        18.5977   -2.1238   13.9962 H         1 8GN         0.2134
     56 H22        18.5017   -4.2012   12.6329 H         1 8GN         0.0379
     57 H23        17.7244   -5.2132   10.5290 H         1 8GN         0.0442
     58 H24        15.1759   -1.9833    8.5049 H         1 8GN         0.2217
     59 H25        14.0749    1.3167    8.0647 H         1 8GN         0.0471
     60 H26        13.5317   -0.3660    7.7482 H         1 8GN         0.0471
     61 H27        15.1524    0.1740    7.1930 H         1 8GN         0.0471
     62 H28        14.2634   -7.0434    6.9762 H         1 8GN         0.2031
@<TRIPOS>BOND
     1   30    1 am 
     2    1   31 2  
     3    1   32 1  
     4    3    2 ar 
     5    2    5 ar 
     6    2   30 1  
     7   27    3 ar 
     8    4   15 2  
     9   21    4 1  
    10    5   29 ar 
    11    5   33 1  
    12    6    7 1  
    13   33    6 1  
    14    8    7 1  
    15    9    8 1  
    16    8   34 1  
    17   33    9 1  
    18   34   10 1  
    19   34   11 1  
    20   12   13 1  
    21   12   25 2  
    22   26   12 1  
    23   13   14 2  
    24   14   21 1  
    25   14   22 1  
    26   20   15 1  
    27   16   19 3  
    28   20   16 1  
    29   17   18 1  
    30   22   17 1  
    31   17   23 1  
    32   23   18 2  
    33   24   20 2  
    34   24   21 1  
    35   25   24 1  
    36   26   27 1  
    37   27   28 ar 
    38   28   29 ar 
    39    3   35 1  
    40    6   36 1  
    41    6   37 1  
    42    7   38 1  
    43    7   39 1  
    44    8   40 1  
    45    9   41 1  
    46    9   42 1  
    47   10   43 1  
    48   10   44 1  
    49   10   45 1  
    50   11   46 1  
    51   11   47 1  
    52   11   48 1  
    53   13   49 1  
    54   15   50 1  
    55   17   51 1  
    56   18   52 1  
    57   22   53 1  
    58   23   54 1  
    59   26   55 1  
    60   28   56 1  
    61   29   57 1  
    62   30   58 1  
    63   32   59 1  
    64   32   60 1  
    65   32   61 1  
    66   34   62 1  
@<TRIPOS>SUBSTRUCTURE
     1 8GN         1

