### 
### Created by X-TOOL on Mon Sep 10 21:13:31 2018
### 

@<TRIPOS>MOLECULE
5n21_ligand
   52    56     1     0     0
SMALL
GAST_HUCK


@<TRIPOS>ATOM
      1 C1         11.5680    2.8140    3.0620 C.ar      1 8HN        -0.0551
      2 C2         10.5360    3.7540    3.0500 C.ar      1 8HN         0.0589
      3 C3          9.8550    4.0360    1.8550 C.ar      1 8HN        -0.0264
      4 N6         10.1390    4.3950    4.2360 N.am      1 8HN        -0.2427
      5 C7         14.1050    2.5650   -0.5130 C.2       1 8HN         0.0493
      6 C8         15.3760    2.3110   -1.0490 C.2       1 8HN         0.1008
      7 C9         14.4630    0.8070   -2.5350 C.2       1 8HN         0.1788
      8 C10        12.9390   -0.3710   -3.6500 C.2       1 8HN         0.0143
      9 C11        14.3230   -0.1720   -3.5370 C.2       1 8HN         0.1071
     10 C12        15.3600   -0.9050   -4.1820 C.1       1 8HN         0.0407
     11 C13        17.8250    2.7710   -1.1830 C.3       1 8HN         0.0333
     12 C14        18.7130    3.7770   -0.4680 C.3       1 8HN        -0.0301
     13 C15        17.9600    4.1250    0.7870 C.3       1 8HN        -0.0260
     14 C16        16.4930    4.1090    0.3560 C.3       1 8HN         0.0554
     15 C19         8.6670    4.9660    1.8870 C.3       1 8HN        -0.0077
     16 C20         8.8000    5.9910    2.9950 C.3       1 8HN         0.0498
     17 C21         9.2730    5.4300    4.3040 C.2       1 8HN         0.2009
     18 O2          8.9280    5.9130    5.3810 O.2       1 8HN        -0.3869
     19 C4         10.2650    3.4130    0.6770 C.ar      1 8HN        -0.0472
     20 C5         11.3240    2.5120    0.6850 C.ar      1 8HN         0.0506
     21 C          11.9680    2.2080    1.8830 C.ar      1 8HN        -0.0563
     22 N          11.7250    1.9100   -0.5170 N.pl3     1 8HN        -0.2320
     23 C6         12.9800    1.9250   -1.0250 C.2       1 8HN         0.2406
     24 N2         13.1830    1.0760   -2.0930 N.pl3     1 8HN        -0.1002
     25 N3         12.2240    0.3810   -2.7800 N.2       1 8HN        -0.2014
     26 N4         16.1510   -1.5230   -4.7040 N.1       1 8HN        -0.3835
     27 N1         15.5620    1.3940   -2.0260 N.2       1 8HN        -0.2734
     28 N5         16.4710    3.0680   -0.6950 N.pl3     1 8HN        -0.2846
     29 C17        15.9690    5.4590   -0.1670 C.3       1 8HN         0.0237
     30 C18        16.1720    6.5890    0.8260 C.2       1 8HN         0.0370
     31 O1         15.7860    6.3270    2.0550 O.co2     1 8HN        -0.5689
     32 O          16.6410    7.6630    0.4980 O.co2     1 8HN        -0.5689
     33 H1         12.0567    2.5583    3.9952 H         1 8HN         0.0458
     34 H2         10.5268    4.0597    5.0946 H         1 8HN         0.2202
     35 H3         13.9974    3.2690    0.3108 H         1 8HN         0.0422
     36 H4         12.4867   -1.0586   -4.3631 H         1 8HN         0.0720
     37 H5         18.1153    1.7421   -0.9239 H         1 8HN         0.0525
     38 H6         17.8841    2.9052   -2.2732 H         1 8HN         0.0525
     39 H7         18.8651    4.6714   -1.0900 H         1 8HN         0.0286
     40 H8         19.6879    3.3298   -0.2242 H         1 8HN         0.0286
     41 H9         18.2490    5.1214    1.1526 H         1 8HN         0.0290
     42 H10        18.1444    3.3782    1.5732 H         1 8HN         0.0290
     43 H11        15.8614    3.8062    1.2042 H         1 8HN         0.0580
     44 H12         7.7540    4.3754    2.0530 H         1 8HN         0.0421
     45 H13         8.5951    5.4889    0.9219 H         1 8HN         0.0421
     46 H14         7.8154    6.4546    3.1550 H         1 8HN         0.0526
     47 H15         9.5181    6.7582    2.6698 H         1 8HN         0.0526
     48 H16         9.7537    3.6330   -0.2532 H         1 8HN         0.0444
     49 H17        12.7845    1.4950    1.8918 H         1 8HN         0.0450
     50 H18        11.0032    1.4143   -1.0593 H         1 8HN         0.2223
     51 H19        14.8933    5.3624   -0.3754 H         1 8HN         0.0453
     52 H20        16.5018    5.7073   -1.0967 H         1 8HN         0.0453
@<TRIPOS>BOND
     1    1    2 ar 
     2   21    1 ar 
     3    3    2 ar 
     4    2    4 1  
     5    3   15 1  
     6   19    3 ar 
     7    4   17 am 
     8    5    6 1  
     9   23    5 2  
    10    6   27 2  
    11    6   28 1  
    12    7    9 2  
    13    7   24 1  
    14   27    7 1  
    15    9    8 1  
    16    8   25 2  
    17    9   10 1  
    18   10   26 3  
    19   11   12 1  
    20   28   11 1  
    21   13   12 1  
    22   14   13 1  
    23   28   14 1  
    24   14   29 1  
    25   15   16 1  
    26   16   17 1  
    27   17   18 2  
    28   20   19 ar 
    29   20   21 ar 
    30   22   20 1  
    31   22   23 1  
    32   23   24 1  
    33   24   25 1  
    34   29   30 1  
    35   30   31 ar 
    36   30   32 ar 
    37    1   33 1  
    38    4   34 1  
    39    5   35 1  
    40    8   36 1  
    41   11   37 1  
    42   11   38 1  
    43   12   39 1  
    44   12   40 1  
    45   13   41 1  
    46   13   42 1  
    47   14   43 1  
    48   15   44 1  
    49   15   45 1  
    50   16   46 1  
    51   16   47 1  
    52   19   48 1  
    53   21   49 1  
    54   22   50 1  
    55   29   51 1  
    56   29   52 1  
@<TRIPOS>SUBSTRUCTURE
     1 8HN         1

