### 
### Created by X-TOOL on Mon Sep 10 21:13:31 2018
### 

@<TRIPOS>MOLECULE
5n24_ligand
   28    29     1     0     0
SMALL
GAST_HUCK


@<TRIPOS>ATOM
      1 C1         -3.6430    4.2240   14.5250 C.ar      1 8HE        -0.0125
      2 C2         -5.0350    4.3270   14.7590 C.ar      1 8HE        -0.0501
      3 C3         -5.7260    3.2730   15.4020 C.ar      1 8HE        -0.0331
      4 C5         -1.8690    5.0370   12.9230 C.ar      1 8HE        -0.0437
      5 C6         -1.1050    6.0760   12.3900 C.ar      1 8HE        -0.0273
      6 C7         -1.2650    7.3750   12.8730 C.ar      1 8HE         0.0943
      7 C8         -2.1880    7.6480   13.8800 C.ar      1 8HE        -0.0273
      8 C9         -2.9580    6.6080   14.4020 C.ar      1 8HE        -0.0437
      9 C10        -5.0620    2.1040   15.8170 C.ar      1 8HE         0.1092
     10 C11        -3.6800    2.0300   15.5800 C.ar      1 8HE        -0.0331
     11 C12        -2.9860    3.0670   14.9470 C.ar      1 8HE        -0.0501
     12 S1         -5.8300    0.8840   16.6020 S.o2      1 8HE         0.0664
     13 O1         -7.2730    1.0100   16.4250 O.2       1 8HE        -0.1503
     14 O2         -5.3670    1.0010   17.9600 O.2       1 8HE        -0.1503
     15 N3         -5.3550   -0.5300   16.0220 N.am      1 8HE        -0.2608
     16 C4         -2.8240    5.3080   13.8960 C.ar      1 8HE        -0.0100
     17 N7          0.0970    9.1690   11.9080 N.1       1 8HE        -0.3301
     18 C81        -0.5490    8.3250   12.3740 C.1       1 8HE         0.0986
     19 H1         -5.5724    5.2145   14.4452 H         1 8HE         0.0636
     20 H2         -6.7912    3.3683   15.5789 H         1 8HE         0.0641
     21 H3         -1.7180    4.0202   12.5788 H         1 8HE         0.0644
     22 H4         -0.3885    5.8741   11.6020 H         1 8HE         0.0715
     23 H5         -2.3069    8.6583   14.2544 H         1 8HE         0.0715
     24 H6         -3.6624    6.8063   15.2018 H         1 8HE         0.0644
     25 H7         -3.1367    1.1466   15.8956 H         1 8HE         0.0641
     26 H8         -1.9191    2.9702   14.7814 H         1 8HE         0.0636
     27 H9         -5.7325   -1.3766   16.3971 H         1 8HE         0.1635
     28 H10        -4.6807   -0.5669   15.2845 H         1 8HE         0.1635
@<TRIPOS>BOND
     1    1    2 ar 
     2    1   11 ar 
     3   16    1 1  
     4    2    3 ar 
     5    3    9 ar 
     6    4    5 ar 
     7    4   16 ar 
     8    5    6 ar 
     9    6    7 ar 
    10    6   18 1  
    11    7    8 ar 
    12    8   16 ar 
    13    9   10 ar 
    14    9   12 1  
    15   10   11 ar 
    16   12   13 2  
    17   12   14 2  
    18   12   15 am 
    19   18   17 3  
    20    2   19 1  
    21    3   20 1  
    22    4   21 1  
    23    5   22 1  
    24    7   23 1  
    25    8   24 1  
    26   10   25 1  
    27   11   26 1  
    28   15   27 1  
    29   15   28 1  
@<TRIPOS>SUBSTRUCTURE
     1 8HE         1

