### 
### Created by X-TOOL on Mon Sep 10 21:13:31 2018
### 

@<TRIPOS>MOLECULE
5n25_ligand
   26    27     1     0     0
SMALL
GAST_HUCK


@<TRIPOS>ATOM
      1 C2         -3.0920    3.1360   14.8860 C.ar      1 8HK        -0.0505
      2 C10        -5.1180    2.1910   15.7390 C.ar      1 8HK         0.1088
      3 C12        -5.1440    4.3450   14.6890 C.ar      1 8HK        -0.0505
      4 O1         -5.4340    0.9990   18.0110 O.2       1 8HK        -0.1504
      5 C4         -3.0010    5.4400   13.9270 C.ar      1 8HK         0.0096
      6 C5         -1.9670    5.2630   13.0110 C.ar      1 8HK         0.0187
      7 C8         -2.4010    7.7660   13.9500 C.ar      1 8HK        -0.0338
      8 C11        -5.8240    3.3100   15.3170 C.ar      1 8HK        -0.0336
      9 C1         -3.7620    4.2870   14.4800 C.ar      1 8HK        -0.0105
     10 C7         -1.4030    7.4770   13.0430 C.ar      1 8HK         0.0108
     11 N3         -5.4720   -0.4930   16.0670 N.am      1 8HK        -0.2609
     12 C9         -3.2080    6.7350   14.3920 C.ar      1 8HK        -0.0350
     13 S1         -5.9270    0.9190   16.6650 S.o2      1 8HK         0.0662
     14 C3         -3.7540    2.0940   15.5100 C.ar      1 8HK        -0.0336
     15 O2         -7.3390    1.0450   16.4400 O.2       1 8HK        -0.1504
     16 N6         -1.1720    6.2490   12.5710 N.ar      1 8HK        -0.2963
     17 H1         -2.0257    3.0545   14.7088 H         1 8HK         0.0632
     18 H2         -5.6954    5.2160   14.3537 H         1 8HK         0.0632
     19 H3         -1.7937    4.2634   12.6290 H         1 8HK         0.0831
     20 H4         -2.5489    8.7785   14.3079 H         1 8HK         0.0709
     21 H5         -6.8943    3.3747   15.4761 H         1 8HK         0.0639
     22 H6         -0.7737    8.2882   12.6953 H         1 8HK         0.0820
     23 H7         -5.8262   -1.3407   16.4618 H         1 8HK         0.1635
     24 H8         -4.8334   -0.5280   15.2983 H         1 8HK         0.1635
     25 H9         -4.0028    6.9352   15.1014 H         1 8HK         0.0741
     26 H10        -3.2104    1.2081   15.8177 H         1 8HK         0.0639
@<TRIPOS>BOND
     1    9    1 ar 
     2    1   14 ar 
     3    8    2 ar 
     4    2   13 1  
     5   14    2 ar 
     6    3    8 ar 
     7    9    3 ar 
     8   13    4 2  
     9    5    6 ar 
    10    5    9 1  
    11   12    5 ar 
    12    6   16 ar 
    13    7   10 ar 
    14    7   12 ar 
    15   10   16 ar 
    16   13   11 am 
    17   13   15 2  
    18    1   17 1  
    19    3   18 1  
    20    6   19 1  
    21    7   20 1  
    22    8   21 1  
    23   10   22 1  
    24   11   23 1  
    25   11   24 1  
    26   12   25 1  
    27   14   26 1  
@<TRIPOS>SUBSTRUCTURE
     1 8HK         1

