### 
### Created by X-TOOL on Mon Sep 10 21:13:33 2018
### 

@<TRIPOS>MOLECULE
5n2d_ligand
   66    68     1     0     0
SMALL
GAST_HUCK


@<TRIPOS>ATOM
      1 O1         -0.4420    9.5520  -24.1260 O.3       1 8J8        -0.3302
      2 C1         -7.7550   11.1420  -22.0040 C.ar      1 8J8        -0.0324
      3 C2         -8.9590   10.7550  -21.3450 C.ar      1 8J8        -0.0219
      4 C3        -10.3370   11.0570  -21.8340 C.ar      1 8J8        -0.0232
      5 C4        -11.2360   11.7660  -21.0320 C.ar      1 8J8        -0.0560
      6 C5        -12.5350   12.0020  -21.4550 C.ar      1 8J8        -0.0624
      7 C6        -12.9620   11.5320  -22.6790 C.ar      1 8J8        -0.0628
      8 C7        -12.0900   10.8170  -23.4810 C.ar      1 8J8        -0.0624
      9 C8        -10.7880   10.5840  -23.0660 C.ar      1 8J8        -0.0560
     10 C9         -8.8990   10.0160  -20.1690 C.ar      1 8J8        -0.0669
     11 O2         -0.9320    8.5040  -27.0950 O.2       1 8J8        -0.3974
     12 C10        -7.6840    9.6320  -19.6450 C.ar      1 8J8        -0.0743
     13 C11        -6.5160    9.9560  -20.2970 C.ar      1 8J8        -0.0638
     14 C12        -6.5400   10.6690  -21.4870 C.ar      1 8J8        -0.0101
     15 C13        -5.2370   10.6090  -22.2480 C.3       1 8J8         0.1001
     16 C14        -3.2840   11.6480  -23.1210 C.ar      1 8J8         0.0701
     17 C15        -2.5020   10.5100  -23.2680 C.ar      1 8J8        -0.0220
     18 C16        -1.3150   10.5960  -23.9800 C.ar      1 8J8         0.0810
     19 O3         -1.2740   14.0560  -25.0030 O.3       1 8J8        -0.3302
     20 C17        -0.8240    8.2940  -23.5880 C.3       1 8J8         0.0572
     21 C18        -0.8980   11.7980  -24.5740 C.ar      1 8J8         0.0474
     22 N1          0.6420    9.4350  -28.3930 N.am      1 8J8        -0.2821
     23 C19         0.4030   11.9720  -25.3310 C.3       1 8J8        -0.0081
     24 C22         0.2250    8.5220  -27.5100 C.2       1 8J8         0.1730
     25 C23         1.2610    7.5550  -27.0180 C.3       1 8J8         0.0256
     26 C21        -0.1580   10.5920  -28.7790 C.3       1 8J8         0.0707
     27 C20        -0.1550   11.6500  -27.6940 C.3       1 8J8        -0.0122
     28 N           0.6550   11.2120  -26.5550 N.4       1 8J8         0.2360
     29 C24        -1.7250   12.9140  -24.4060 C.ar      1 8J8         0.0810
     30 C25        -2.1160   15.1990  -24.9500 C.3       1 8J8         0.0572
     31 C26        -2.9000   12.8520  -23.6840 C.ar      1 8J8        -0.0220
     32 O          -4.5370   11.8060  -22.5740 O.3       1 8J8        -0.3164
     33 C          -7.7710   12.1260  -23.1460 C.3       1 8J8        -0.0322
     34 H1        -10.9129   12.1364  -20.0658 H         1 8J8         0.0613
     35 H2        -13.2170   12.5577  -20.8216 H         1 8J8         0.0615
     36 H3        -13.9762   11.7218  -23.0114 H         1 8J8         0.0609
     37 H4        -12.4268   10.4371  -24.4388 H         1 8J8         0.0615
     38 H5        -10.1128   10.0279  -23.7063 H         1 8J8         0.0613
     39 H6         -9.8155    9.7397  -19.6602 H         1 8J8         0.0549
     40 H7         -7.6479    9.0732  -18.7168 H         1 8J8         0.0544
     41 H8         -5.5653    9.6502  -19.8754 H         1 8J8         0.0542
     42 H9         -5.4501   10.0990  -23.1990 H         1 8J8         0.0760
     43 H10        -4.5493    9.9945  -21.6485 H         1 8J8         0.0760
     44 H11        -2.8148    9.5679  -22.8325 H         1 8J8         0.0359
     45 H12        -0.0301    7.5570  -23.7795 H         1 8J8         0.0574
     46 H13        -1.7574    7.9596  -24.0644 H         1 8J8         0.0574
     47 H14        -0.9802    8.3912  -22.5035 H         1 8J8         0.0574
     48 H15         1.5444    9.3194  -28.8082 H         1 8J8         0.1853
     49 H16         1.2121   11.7188  -24.6302 H         1 8J8         0.0908
     50 H17         0.4712   13.0362  -25.6008 H         1 8J8         0.0908
     51 H18         2.2177    7.7542  -27.5231 H         1 8J8         0.0467
     52 H19         0.9372    6.5271  -27.2383 H         1 8J8         0.0467
     53 H20         1.3879    7.6747  -25.9319 H         1 8J8         0.0467
     54 H21        -1.1933   10.2675  -28.9602 H         1 8J8         0.0573
     55 H22         0.2578   11.0236  -29.7014 H         1 8J8         0.0573
     56 H23        -1.1872   11.8270  -27.3577 H         1 8J8         0.0834
     57 H24         0.2639   12.5830  -28.0989 H         1 8J8         0.0834
     58 H25         0.4527   10.2411  -26.3747 H         1 8J8         0.2022
     59 H26         1.6280   11.3130  -26.7983 H         1 8J8         0.2022
     60 H27        -1.6280   16.0381  -25.4674 H         1 8J8         0.0574
     61 H28        -2.2983   15.4718  -23.9001 H         1 8J8         0.0574
     62 H29        -3.0736   14.9722  -25.4415 H         1 8J8         0.0574
     63 H30        -3.5145   13.7363  -23.5597 H         1 8J8         0.0359
     64 H31        -8.8118   12.3717  -23.4037 H         1 8J8         0.0382
     65 H32        -7.2720   11.6817  -24.0199 H         1 8J8         0.0382
     66 H33        -7.2410   13.0426  -22.8477 H         1 8J8         0.0382
@<TRIPOS>BOND
     1   18    1 1  
     2    1   20 1  
     3    2    3 ar 
     4   14    2 ar 
     5    2   33 1  
     6    3    4 1  
     7    3   10 ar 
     8    4    5 ar 
     9    4    9 ar 
    10    5    6 ar 
    11    6    7 ar 
    12    8    7 ar 
    13    9    8 ar 
    14   12   10 ar 
    15   24   11 2  
    16   13   12 ar 
    17   14   13 ar 
    18   15   14 1  
    19   32   15 1  
    20   17   16 ar 
    21   16   31 ar 
    22   16   32 1  
    23   18   17 ar 
    24   21   18 ar 
    25   29   19 1  
    26   19   30 1  
    27   23   21 1  
    28   21   29 ar 
    29   22   24 am 
    30   26   22 1  
    31   28   23 1  
    32   24   25 1  
    33   27   26 1  
    34   27   28 1  
    35   29   31 ar 
    36    5   34 1  
    37    6   35 1  
    38    7   36 1  
    39    8   37 1  
    40    9   38 1  
    41   10   39 1  
    42   12   40 1  
    43   13   41 1  
    44   15   42 1  
    45   15   43 1  
    46   17   44 1  
    47   20   45 1  
    48   20   46 1  
    49   20   47 1  
    50   22   48 1  
    51   23   49 1  
    52   23   50 1  
    53   25   51 1  
    54   25   52 1  
    55   25   53 1  
    56   26   54 1  
    57   26   55 1  
    58   27   56 1  
    59   27   57 1  
    60   28   58 1  
    61   28   59 1  
    62   30   60 1  
    63   30   61 1  
    64   30   62 1  
    65   31   63 1  
    66   33   64 1  
    67   33   65 1  
    68   33   66 1  
@<TRIPOS>SUBSTRUCTURE
     1 8J8         1

