### 
### Created by X-TOOL on Mon Sep 10 21:13:32 2018
### 

@<TRIPOS>MOLECULE
5n2f_ligand
   61    64     1     0     0
SMALL
GAST_HUCK


@<TRIPOS>ATOM
      1 F1         35.2930   10.9890  136.8320 F         1 8HW        -0.1952
      2 C19        34.5740   10.0710  136.1290 C.ar      1 8HW         0.1493
      3 C20        34.4930    8.7580  136.5560 C.ar      1 8HW        -0.0316
      4 C21        33.7400    7.8520  135.8190 C.ar      1 8HW         0.0224
      5 C22        33.6290    6.3890  136.2540 C.3       1 8HW        -0.0028
      6 N          32.3270    6.0720  136.8030 N.4       1 8HW         0.2534
      7 C23        32.0310    6.9990  137.8720 C.3       1 8HW         0.0426
      8 C24        32.5170    6.4200  139.1970 C.2       1 8HW         0.1623
      9 O3         33.6580    6.1480  139.3720 O.2       1 8HW        -0.3836
     10 C25        31.4780    6.1930  140.2880 C.3       1 8HW         0.0788
     11 C26        30.0790    6.4020  139.7080 C.2       1 8HW         0.0531
     12 O4         29.4890    5.4500  139.1260 O.co2     1 8HW        -0.5660
     13 O5         29.5260    7.5300  139.8050 O.co2     1 8HW        -0.5660
     14 C2         33.9270   10.4760  134.9770 C.ar      1 8HW         0.1183
     15 C1         33.1820    9.5770  134.2340 C.ar      1 8HW        -0.0073
     16 C          33.0940    8.2630  134.6630 C.ar      1 8HW         0.1257
     17 F          32.3720    7.3540  133.9510 F         1 8HW        -0.1950
     18 O          34.0600   11.8070  134.5850 O.3       1 8HW        -0.3120
     19 C3         33.1670   12.2060  133.5850 C.3       1 8HW         0.0992
     20 C4         33.5550   13.6450  133.3050 C.ar      1 8HW        -0.0119
     21 C5         32.7080   14.4240  132.5320 C.ar      1 8HW        -0.0352
     22 C6         31.4480   13.7870  131.9860 C.3       1 8HW        -0.0331
     23 C7         33.0380   15.7370  132.2720 C.ar      1 8HW        -0.0314
     24 C16        34.2110   16.2550  132.7950 C.ar      1 8HW        -0.0697
     25 C17        35.0530   15.4740  133.5720 C.ar      1 8HW        -0.0760
     26 C18        34.7200   14.1560  133.8320 C.ar      1 8HW        -0.0653
     27 C8         32.1600   16.6680  131.4250 C.ar      1 8HW        -0.0424
     28 C9         32.7230   17.1700  130.2630 C.ar      1 8HW        -0.0350
     29 C10        31.9760   18.0430  129.4550 C.ar      1 8HW         0.1204
     30 C11        30.7120   18.4010  129.8280 C.ar      1 8HW         0.1208
     31 C14        30.1110   17.9090  131.0100 C.ar      1 8HW        -0.0402
     32 C15        30.8680   17.0460  131.8150 C.ar      1 8HW        -0.0745
     33 O2         32.5870   18.5320  128.2800 O.3       1 8HW        -0.3191
     34 C13        31.7220   19.0770  127.3440 C.3       1 8HW         0.0952
     35 C12        30.7270   19.9920  128.0330 C.3       1 8HW         0.0955
     36 O1         29.9600   19.3020  129.0160 O.3       1 8HW        -0.3184
     37 H1         35.0102    8.4398  137.4539 H         1 8HW         0.0507
     38 H2         34.3930    6.1895  137.0198 H         1 8HW         0.0949
     39 H3         33.8094    5.7462  135.3798 H         1 8HW         0.0949
     40 H4         32.3318    5.1306  137.1632 H         1 8HW         0.2045
     41 H5         31.6271    6.1524  136.0821 H         1 8HW         0.2045
     42 H6         30.9450    7.1667  137.9216 H         1 8HW         0.1055
     43 H7         32.5412    7.9545  137.6804 H         1 8HW         0.1055
     44 H8         31.6454    6.9063  141.1085 H         1 8HW         0.0660
     45 H9         31.5667    5.1658  140.6713 H         1 8HW         0.0660
     46 H10        32.6753    9.8962  133.3304 H         1 8HW         0.0500
     47 H11        32.1278   12.1426  133.9398 H         1 8HW         0.0758
     48 H12        33.2854   11.5861  132.6841 H         1 8HW         0.0758
     49 H13        31.3920   12.7404  132.3198 H         1 8HW         0.0378
     50 H14        31.4668   13.8207  130.8867 H         1 8HW         0.0378
     51 H15        30.5696   14.3369  132.3548 H         1 8HW         0.0378
     52 H16        34.4750   17.2869  132.5938 H         1 8HW         0.0535
     53 H17        35.9680   15.8938  133.9740 H         1 8HW         0.0540
     54 H18        35.3667   13.5352  134.4415 H         1 8HW         0.0530
     55 H19        33.7316   16.8914  129.9797 H         1 8HW         0.0505
     56 H20        29.1004   18.1894  131.2840 H         1 8HW         0.0514
     57 H21        30.4523   16.6697  132.7427 H         1 8HW         0.0500
     58 H22        31.1801   18.2675  126.8330 H         1 8HW         0.0636
     59 H23        32.2989   19.6545  126.6067 H         1 8HW         0.0636
     60 H24        30.0443   20.4078  127.2773 H         1 8HW         0.0637
     61 H25        31.2761   20.8106  128.5212 H         1 8HW         0.0637
@<TRIPOS>BOND
     1    1    2 1  
     2    2    3 ar 
     3    2   14 ar 
     4    3    4 ar 
     5    4    5 1  
     6    4   16 ar 
     7    5    6 1  
     8    6    7 1  
     9    7    8 1  
    10    8    9 2  
    11    8   10 1  
    12   10   11 1  
    13   11   12 ar 
    14   11   13 ar 
    15   14   15 ar 
    16   14   18 1  
    17   15   16 ar 
    18   16   17 1  
    19   18   19 1  
    20   19   20 1  
    21   20   21 ar 
    22   20   26 ar 
    23   21   22 1  
    24   21   23 ar 
    25   23   24 ar 
    26   23   27 1  
    27   24   25 ar 
    28   25   26 ar 
    29   27   28 ar 
    30   27   32 ar 
    31   28   29 ar 
    32   29   30 ar 
    33   29   33 1  
    34   30   31 ar 
    35   30   36 1  
    36   31   32 ar 
    37   33   34 1  
    38   34   35 1  
    39   35   36 1  
    40    3   37 1  
    41    5   38 1  
    42    5   39 1  
    43    6   40 1  
    44    6   41 1  
    45    7   42 1  
    46    7   43 1  
    47   10   44 1  
    48   10   45 1  
    49   15   46 1  
    50   19   47 1  
    51   19   48 1  
    52   22   49 1  
    53   22   50 1  
    54   22   51 1  
    55   24   52 1  
    56   25   53 1  
    57   26   54 1  
    58   28   55 1  
    59   31   56 1  
    60   32   57 1  
    61   34   58 1  
    62   34   59 1  
    63   35   60 1  
    64   35   61 1  
@<TRIPOS>SUBSTRUCTURE
     1 8HW         1

