### 
### Created by X-TOOL on Mon Sep 10 21:13:34 2018
### 

@<TRIPOS>MOLECULE
5n3w_ligand
   34    35     1     0     0
SMALL
GAST_HUCK


@<TRIPOS>ATOM
      1 CAA         8.1370   -1.4230   -1.9230 C.3       1 8KW         0.0590
      2 OAB         8.6460   -0.4310   -1.0440 O.3       1 8KW        -0.3257
      3 CAC         9.9910   -0.2840   -1.0850 C.ar      1 8KW         0.0756
      4 CAD        10.7010   -0.2930    0.1080 C.ar      1 8KW        -0.0431
      5 CAK        10.6370   -0.1100   -2.3020 C.ar      1 8KW        -0.0127
      6 CAL        11.9940    0.0380   -2.3450 C.ar      1 8KW         0.0725
      7 OAQ        12.5230    0.2110   -3.5940 O.3       1 8KW        -0.3376
      8 CAM        12.6950    0.0160   -1.1240 C.ar      1 8KW        -0.0434
      9 CAE        12.0810   -0.1510    0.1220 C.ar      1 8KW        -0.0587
     10 CAF        12.6970   -0.2050    1.4040 C.3       1 8KW        -0.0158
     11 CAG        14.2440   -0.3740    1.3660 C.3       1 8KW        -0.0116
     12 CAH        14.7440   -0.8970    2.6350 C.ar      1 8KW        -0.0120
     13 CAI        14.6800   -0.0930    3.7600 C.ar      1 8KW        -0.0687
     14 CAJ        15.1300   -0.5220    5.0270 C.ar      1 8KW        -0.0797
     15 CAP        15.6830   -1.7850    5.2170 C.ar      1 8KW        -0.0776
     16 CAO        15.7860   -2.6130    4.1160 C.ar      1 8KW        -0.0399
     17 CAN        15.3260   -2.1630    2.8730 C.ar      1 8KW         0.0894
     18 OAR        15.4280   -3.0310    1.8660 O.3       1 8KW        -0.3369
     19 H1          7.0426   -1.4739   -1.8240 H         1 8KW         0.0577
     20 H2          8.5741   -2.3993   -1.6666 H         1 8KW         0.0577
     21 H3          8.3998   -1.1643   -2.9594 H         1 8KW         0.0577
     22 H4         10.1681   -0.4130    1.0443 H         1 8KW         0.0390
     23 H5         10.0622   -0.0916   -3.2209 H         1 8KW         0.0407
     24 H6         12.3161   -0.5444   -4.1317 H         1 8KW         0.2477
     25 H7         13.7721    0.1353   -1.1510 H         1 8KW         0.0390
     26 H8         12.2711   -1.0565    1.9550 H         1 8KW         0.0442
     27 H9         12.4658    0.7292    1.9367 H         1 8KW         0.0442
     28 H10        14.7082    0.6042    1.1720 H         1 8KW         0.0425
     29 H11        14.5100   -1.0726    0.5591 H         1 8KW         0.0425
     30 H12        14.2682    0.9051    3.6641 H         1 8KW         0.0526
     31 H13        15.0427    0.1492    5.8737 H         1 8KW         0.0505
     32 H14        16.0212   -2.1078    6.1950 H         1 8KW         0.0531
     33 H15        16.2190   -3.6019    4.2138 H         1 8KW         0.0521
     34 H16        16.3403   -3.2653    1.7425 H         1 8KW         0.2456
@<TRIPOS>BOND
     1    1    2 1  
     2    2    3 1  
     3    3    4 ar 
     4    3    5 ar 
     5    4    9 ar 
     6    5    6 ar 
     7    6    7 1  
     8    6    8 ar 
     9    8    9 ar 
    10    9   10 1  
    11   10   11 1  
    12   11   12 1  
    13   12   13 ar 
    14   12   17 ar 
    15   13   14 ar 
    16   14   15 ar 
    17   15   16 ar 
    18   16   17 ar 
    19   17   18 1  
    20    1   19 1  
    21    1   20 1  
    22    1   21 1  
    23    4   22 1  
    24    5   23 1  
    25    7   24 1  
    26    8   25 1  
    27   10   26 1  
    28   10   27 1  
    29   11   28 1  
    30   11   29 1  
    31   13   30 1  
    32   14   31 1  
    33   15   32 1  
    34   16   33 1  
    35   18   34 1  
@<TRIPOS>SUBSTRUCTURE
     1 8KW         1

