### 
### Created by X-TOOL on Mon Sep 10 21:13:32 2018
### 

@<TRIPOS>MOLECULE
5n49_ligand
   45    49     1     0     0
SMALL
GAST_HUCK


@<TRIPOS>ATOM
      1 CAK       -28.2420   -7.9450   26.9190 C.3       1 8LW        -0.0434
      2 CAJ       -26.9450   -7.4710   26.2990 C.ar      1 8LW        -0.0444
      3 CAI       -26.7590   -6.1770   25.8240 C.ar      1 8LW        -0.0603
      4 CAH       -25.5120   -5.8040   25.3190 C.ar      1 8LW         0.0754
      5 NAF       -25.0740   -4.6760   24.7830 N.am      1 8LW        -0.2176
      6 CAG       -25.9040   -3.4570   24.6350 C.3       1 8LW         0.0415
      7 CAD       -23.7950   -4.8020   24.4310 C.2       1 8LW         0.3065
      8 OAE       -23.0890   -3.9400   23.8990 O.2       1 8LW        -0.3971
      9 NAB       -23.4140   -6.0770   24.7350 N.am      1 8LW        -0.2158
     10 CAC       -22.0880   -6.6540   24.4750 C.3       1 8LW         0.0425
     11 CAA       -24.4730   -6.7270   25.2640 C.ar      1 8LW         0.0770
     12 CBB       -24.6490   -8.0330   25.7430 C.ar      1 8LW        -0.0321
     13 CAL       -25.8910   -8.3780   26.3000 C.ar      1 8LW         0.0706
     14 NAM       -26.0320   -9.7370   26.7130 N.am      1 8LW        -0.1479
     15 CAN       -26.7790  -10.6450   25.9300 C.2       1 8LW         0.2527
     16 OAO       -27.3460  -10.2770   24.8800 O.2       1 8LW        -0.3689
     17 CAP       -26.8850  -12.0050   26.3620 C.ar      1 8LW         0.0678
     18 CAY       -26.1480  -12.4170   27.5200 C.ar      1 8LW         0.0183
     19 CAQ       -27.6260  -12.9460   25.6080 C.ar      1 8LW        -0.0387
     20 CAR       -27.6640  -14.2980   26.0300 C.ar      1 8LW        -0.0524
     21 CAS       -26.9340  -14.6930   27.1740 C.ar      1 8LW        -0.0463
     22 CAT       -26.1910  -13.7730   27.9370 C.ar      1 8LW        -0.0067
     23 CAU       -25.5090  -14.1750   29.1350 C.ar      1 8LW        -0.0463
     24 CAV       -24.7740  -13.2380   29.8580 C.ar      1 8LW        -0.0524
     25 CAW       -24.7190  -11.8810   29.4510 C.ar      1 8LW        -0.0387
     26 CAX       -25.4010  -11.4880   28.2800 C.ar      1 8LW         0.0678
     27 CAZ       -25.3340  -10.1390   27.8700 C.2       1 8LW         0.2527
     28 OBA       -24.7030   -9.2910   28.5160 O.2       1 8LW        -0.3689
     29 H1        -28.9924   -7.1431   26.8573 H         1 8LW         0.0339
     30 H2        -28.0704   -8.2061   27.9737 H         1 8LW         0.0339
     31 H3        -28.6058   -8.8301   26.3766 H         1 8LW         0.0339
     32 H4        -27.5754   -5.4642   25.8457 H         1 8LW         0.0376
     33 H5        -26.9178   -3.6556   25.0128 H         1 8LW         0.0544
     34 H6        -25.9571   -3.1763   23.5728 H         1 8LW         0.0544
     35 H7        -25.4532   -2.6344   25.2096 H         1 8LW         0.0544
     36 H8        -21.4321   -5.8848   24.0413 H         1 8LW         0.0546
     37 H9        -22.1849   -7.4930   23.7703 H         1 8LW         0.0546
     38 H10       -21.6542   -7.0161   25.4188 H         1 8LW         0.0546
     39 H11       -23.8458   -8.7587   25.6847 H         1 8LW         0.0350
     40 H12       -28.1591  -12.6355   24.7167 H         1 8LW         0.0700
     41 H13       -28.2494  -15.0250   25.4788 H         1 8LW         0.0635
     42 H14       -26.9468  -15.7350   27.4724 H         1 8LW         0.0685
     43 H15       -25.5658  -15.2027   29.4752 H         1 8LW         0.0685
     44 H16       -24.2359  -13.5513   30.7453 H         1 8LW         0.0635
     45 H17       -24.1607  -11.1554   30.0314 H         1 8LW         0.0700
@<TRIPOS>BOND
     1    1    2 1  
     2    2    3 ar 
     3    2   13 ar 
     4    3    4 ar 
     5    4    5 1  
     6    4   11 ar 
     7    5    6 1  
     8    5    7 am 
     9    7    8 2  
    10    7    9 am 
    11    9   10 1  
    12    9   11 1  
    13   11   12 ar 
    14   12   13 ar 
    15   13   14 1  
    16   14   15 am 
    17   14   27 am 
    18   15   16 2  
    19   15   17 1  
    20   17   18 ar 
    21   17   19 ar 
    22   18   22 ar 
    23   18   26 ar 
    24   19   20 ar 
    25   20   21 ar 
    26   21   22 ar 
    27   22   23 ar 
    28   23   24 ar 
    29   24   25 ar 
    30   25   26 ar 
    31   26   27 1  
    32   27   28 2  
    33    1   29 1  
    34    1   30 1  
    35    1   31 1  
    36    3   32 1  
    37    6   33 1  
    38    6   34 1  
    39    6   35 1  
    40   10   36 1  
    41   10   37 1  
    42   10   38 1  
    43   12   39 1  
    44   19   40 1  
    45   20   41 1  
    46   21   42 1  
    47   23   43 1  
    48   24   44 1  
    49   25   45 1  
@<TRIPOS>SUBSTRUCTURE
     1 8LW         1

