### 
### Created by X-TOOL on Mon Sep 10 21:13:32 2018
### 

@<TRIPOS>MOLECULE
5n4s_ligand
   38    39     1     0     0
SMALL
GAST_HUCK


@<TRIPOS>ATOM
      1 N01       -31.7410   11.1740   71.2790 N.am      1 R38        -0.2701
      2 C02       -31.2670    9.8120   71.5570 C.3       1 R38         0.0985
      3 C03       -31.4720    9.4890   73.0450 C.2       1 R38         0.0613
      4 O04       -32.4520    9.9620   73.6820 O.co2     1 R38        -0.5665
      5 O05       -30.6720    8.7420   73.6660 O.co2     1 R38        -0.5665
      6 C06       -32.1280    8.8850   70.6980 C.3       1 R38        -0.0013
      7 C07       -31.5810    7.4810   70.4320 C.2       1 R38        -0.0424
      8 C08       -32.3640    6.3820   70.0360 C.ar      1 R38        -0.0214
      9 C09       -31.5000    5.3180   69.8900 C.ar      1 R38         0.0603
     10 N10       -30.2520    5.7320   70.1790 N.pl3     1 R38        -0.2891
     11 C11       -30.2700    7.0200   70.5020 C.2       1 R38         0.0166
     12 C12       -32.0020    4.0620   69.5010 C.ar      1 R38        -0.0443
     13 C13       -33.3640    3.9020   69.2620 C.ar      1 R38        -0.0768
     14 C14       -34.2360    4.9810   69.4060 C.ar      1 R38        -0.0792
     15 C15       -33.7430    6.2210   69.7950 C.ar      1 R38        -0.0747
     16 C16       -30.9220   12.3420   71.0010 C.2       1 R38         0.1813
     17 O17       -29.7370   12.3330   70.9810 O.2       1 R38        -0.3966
     18 C18       -31.6750   13.6530   70.8010 C.3       1 R38         0.0546
     19 C19       -31.6180   14.4150   72.1350 C.3       1 R38         0.0101
     20 S20       -32.2080   13.4320   73.5650 S.3       1 R38        -0.1756
     21 C21       -31.0440   14.5130   69.7010 C.3       1 R38        -0.0446
     22 H1        -32.7314   11.3123   71.2812 H         1 R38         0.1876
     23 H2        -30.2040    9.7083   71.2940 H         1 R38         0.0741
     24 H3        -32.2737    9.3748   69.7239 H         1 R38         0.0390
     25 H4        -33.0997    8.7731   71.2012 H         1 R38         0.0390
     26 H5        -29.4101    5.1391   70.1534 H         1 R38         0.2216
     27 H6        -29.4016    7.6171   70.7765 H         1 R38         0.0795
     28 H7        -31.3287    3.2201   69.3876 H         1 R38         0.0541
     29 H8        -33.7489    2.9339   68.9624 H         1 R38         0.0530
     30 H9        -35.2953    4.8529   69.2151 H         1 R38         0.0510
     31 H10       -34.4173    7.0616   69.9126 H         1 R38         0.0540
     32 H11       -32.7203   13.4386   70.5340 H         1 R38         0.0543
     33 H12       -32.2448   15.3149   72.0489 H         1 R38         0.0401
     34 H13       -30.5753   14.7109   72.3226 H         1 R38         0.0401
     35 H14       -32.1441   13.9885   74.4030 H         1 R38         0.1018
     36 H15       -31.0828   13.9712   68.7445 H         1 R38         0.0257
     37 H16       -29.9963   14.7273   69.9587 H         1 R38         0.0257
     38 H17       -31.5999   15.4578   69.6100 H         1 R38         0.0257
@<TRIPOS>BOND
     1    1    2 1  
     2    1   16 am 
     3    2    3 1  
     4    2    6 1  
     5    3    4 ar 
     6    3    5 ar 
     7    6    7 1  
     8    7    8 1  
     9    7   11 2  
    10    8    9 ar 
    11    8   15 ar 
    12    9   10 1  
    13    9   12 ar 
    14   10   11 1  
    15   12   13 ar 
    16   13   14 ar 
    17   14   15 ar 
    18   16   17 2  
    19   16   18 1  
    20   18   19 1  
    21   18   21 1  
    22   19   20 1  
    23    1   22 1  
    24    2   23 1  
    25    6   24 1  
    26    6   25 1  
    27   10   26 1  
    28   11   27 1  
    29   12   28 1  
    30   13   29 1  
    31   14   30 1  
    32   15   31 1  
    33   18   32 1  
    34   19   33 1  
    35   19   34 1  
    36   20   35 1  
    37   21   36 1  
    38   21   37 1  
    39   21   38 1  
@<TRIPOS>SUBSTRUCTURE
     1 R38         1

