### 
### Created by X-TOOL on Mon Sep 10 21:13:31 2018
### 

@<TRIPOS>MOLECULE
5n4t_ligand
   38    39     1     0     0
SMALL
GAST_HUCK


@<TRIPOS>ATOM
      1 C21        58.8480   -5.0900   34.8390 C.3       1 R59        -0.0446
      2 C14        55.7280    3.2140   34.4940 C.ar      1 R59        -0.0792
      3 C13        56.5990    4.3100   34.5140 C.ar      1 R59        -0.0768
      4 C12        57.9650    4.1450   34.2630 C.ar      1 R59        -0.0443
      5 C16        59.7180   -3.6380   33.0970 C.2       1 R59         0.1813
      6 C15        56.2400    1.9420   34.2300 C.ar      1 R59        -0.0747
      7 C02        58.4000   -1.6080   32.3550 C.3       1 R59         0.0985
      8 C03        58.6070   -0.8230   31.0590 C.2       1 R59         0.0613
      9 C06        57.9450   -0.7820   33.5590 C.3       1 R59        -0.0013
     10 C07        58.4250    0.6530   33.6770 C.2       1 R59        -0.0424
     11 C08        57.6190    1.7740   33.9820 C.ar      1 R59        -0.0214
     12 C09        58.4760    2.8610   33.9930 C.ar      1 R59         0.0603
     13 C11        59.7170    1.1180   33.5300 C.2       1 R59         0.0166
     14 C18        58.4810   -4.4450   33.4930 C.3       1 R59         0.0546
     15 C19        58.2950   -5.5280   32.4520 C.3       1 R59         0.0101
     16 N01        59.6660   -2.3080   32.5890 N.am      1 R59        -0.2701
     17 N10        59.7190    2.4290   33.7160 N.pl3     1 R59        -0.2891
     18 O04        59.7470   -0.6490   30.5920 O.co2     1 R59        -0.5665
     19 O05        57.6480   -0.3800   30.3970 O.co2     1 R59        -0.5665
     20 O17        60.7830   -4.1330   33.2150 O.2       1 R59        -0.3966
     21 S20        57.7120   -4.8460   30.8650 S.3       1 R59        -0.1756
     22 H1         58.0025   -5.6951   35.1982 H         1 R59         0.0257
     23 H2         59.0737   -4.3028   35.5734 H         1 R59         0.0257
     24 H3         59.7304   -5.7338   34.7087 H         1 R59         0.0257
     25 H4         54.6691    3.3512   34.6812 H         1 R59         0.0510
     26 H5         56.2097    5.2991   34.7267 H         1 R59         0.0530
     27 H6         58.6280    5.0025   34.2763 H         1 R59         0.0541
     28 H7         55.5782    1.0836   34.2156 H         1 R59         0.0540
     29 H8         57.6151   -2.3575   32.1758 H         1 R59         0.0741
     30 H9         58.2817   -1.3121   34.4621 H         1 R59         0.0390
     31 H10        56.8455   -0.7557   33.5377 H         1 R59         0.0390
     32 H11        60.5891    0.5080   33.2995 H         1 R59         0.0795
     33 H12        57.5836   -3.8141   33.5752 H         1 R59         0.0543
     34 H13        57.5554   -6.2538   32.8211 H         1 R59         0.0401
     35 H14        59.2574   -6.0354   32.2897 H         1 R59         0.0401
     36 H15        60.5234   -1.8356   32.3850 H         1 R59         0.1876
     37 H16        60.5526    3.0312   33.6570 H         1 R59         0.2216
     38 H17        57.6004   -5.5949   30.1995 H         1 R59         0.1018
@<TRIPOS>BOND
     1   14    1 1  
     2    2    3 ar 
     3    6    2 ar 
     4    3    4 ar 
     5    4   12 ar 
     6    5   14 1  
     7   16    5 am 
     8    5   20 2  
     9   11    6 ar 
    10    7    8 1  
    11    9    7 1  
    12    7   16 1  
    13    8   18 ar 
    14    8   19 ar 
    15   10    9 1  
    16   10   11 1  
    17   10   13 2  
    18   11   12 ar 
    19   12   17 1  
    20   13   17 1  
    21   14   15 1  
    22   15   21 1  
    23    1   22 1  
    24    1   23 1  
    25    1   24 1  
    26    2   25 1  
    27    3   26 1  
    28    4   27 1  
    29    6   28 1  
    30    7   29 1  
    31    9   30 1  
    32    9   31 1  
    33   13   32 1  
    34   14   33 1  
    35   15   34 1  
    36   15   35 1  
    37   16   36 1  
    38   17   37 1  
    39   21   38 1  
@<TRIPOS>SUBSTRUCTURE
     1 R59         1

