### 
### Created by X-TOOL on Mon Sep 10 21:13:32 2018
### 

@<TRIPOS>MOLECULE
5n53_ligand
   23    23     1     0     0
SMALL
GAST_HUCK


@<TRIPOS>ATOM
      1 C4        -27.6740   14.2850    5.1570 C.ar      1 8NB        -0.0352
      2 C5        -26.7010   13.8430    6.0360 C.ar      1 8NB         0.0554
      3 C6        -26.1360   14.7140    6.9640 C.ar      1 8NB         0.0899
      4 C7        -24.9940   14.7020    9.0830 C.3       1 8NB         0.0564
      5 C8        -29.6930   17.1650    4.0000 C.2       1 8NB         0.1976
      6 C9        -30.6520   17.1660    2.8330 C.3       1 8NB         0.0310
      7 N1        -29.1160   15.9620    4.2580 N.am      1 8NB        -0.2404
      8 C3        -28.1010   15.6160    5.1910 C.ar      1 8NB         0.0561
      9 C1        -26.5630   16.0390    6.9920 C.ar      1 8NB        -0.0450
     10 C2        -27.5380   16.4880    6.1160 C.ar      1 8NB        -0.0488
     11 O1        -25.1890   14.1690    7.7730 O.3       1 8NB        -0.3299
     12 CL1       -26.1940   12.1700    5.9630 Cl        1 8NB        -0.0824
     13 O2        -29.4710   18.1890    4.6620 O.2       1 8NB        -0.3866
     14 H1        -28.1067   13.5971    4.4396 H         1 8NB         0.0483
     15 H2        -24.1944   14.1430    9.5910 H         1 8NB         0.0572
     16 H3        -25.9271   14.6115    9.6584 H         1 8NB         0.0572
     17 H4        -24.7102   15.7622    9.0090 H         1 8NB         0.0572
     18 H5        -31.0673   18.1760    2.7006 H         1 8NB         0.0471
     19 H6        -31.4693   16.4564    3.0294 H         1 8NB         0.0471
     20 H7        -30.1179   16.8665    1.9192 H         1 8NB         0.0471
     21 H8        -29.4587   15.2021    3.7056 H         1 8NB         0.2219
     22 H9        -26.1276   16.7272    7.7074 H         1 8NB         0.0507
     23 H10       -27.8626   17.5216    6.1519 H         1 8NB         0.0481
@<TRIPOS>BOND
     1    1    2 ar 
     2    8    1 ar 
     3    2    3 ar 
     4    2   12 1  
     5    3    9 ar 
     6    3   11 1  
     7   11    4 1  
     8    5    6 1  
     9    7    5 am 
    10    5   13 2  
    11    7    8 1  
    12    8   10 ar 
    13    9   10 ar 
    14    1   14 1  
    15    4   15 1  
    16    4   16 1  
    17    4   17 1  
    18    6   18 1  
    19    6   19 1  
    20    6   20 1  
    21    7   21 1  
    22    9   22 1  
    23   10   23 1  
@<TRIPOS>SUBSTRUCTURE
     1 8NB         1

