### 
### Created by X-TOOL on Mon Sep 10 21:13:32 2018
### 

@<TRIPOS>MOLECULE
5n55_ligand
   44    47     1     0     0
SMALL
GAST_HUCK


@<TRIPOS>ATOM
      1 C24       -36.3600  -17.8290   24.7560 C.2       1 8NN         0.0166
      2 C19       -34.8550  -19.9700   24.7310 C.3       1 8NN        -0.0014
      3 C20       -35.1550  -18.4810   24.5650 C.2       1 8NN        -0.0424
      4 C21       -34.2310  -17.4940   24.1930 C.ar      1 8NN        -0.0214
      5 C16       -34.8360  -20.0660   27.2560 C.2       1 8NN         0.0612
      6 O11       -30.5340  -23.5080   24.0650 O.3       1 8NN        -0.3160
      7 C12       -32.6110  -22.1370   25.3840 C.2       1 8NN         0.2105
      8 C10       -31.4530  -24.2970   24.7550 C.ar      1 8NN         0.1430
      9 C01       -31.4590  -28.5230   25.0000 C.ar      1 8NN        -0.0571
     10 C02       -30.4720  -27.9080   24.2570 C.ar      1 8NN        -0.0567
     11 C03       -30.4290  -26.5040   24.1590 C.ar      1 8NN        -0.0441
     12 C04       -31.4040  -25.7180   24.7860 C.ar      1 8NN         0.0383
     13 C05       -32.3700  -26.3450   25.4960 C.ar      1 8NN         0.0220
     14 C06       -32.4240  -27.7490   25.6160 C.ar      1 8NN        -0.0475
     15 C07       -33.3360  -25.5920   26.1400 C.ar      1 8NN         0.1160
     16 N08       -33.3690  -24.2890   26.0860 N.ar      1 8NN        -0.2813
     17 C09       -32.4570  -23.6420   25.4220 C.ar      1 8NN         0.1403
     18 O13       -31.8970  -21.4150   24.7830 O.2       1 8NN        -0.3909
     19 N14       -33.8010  -21.6620   26.0270 N.am      1 8NN        -0.2713
     20 C15       -34.0420  -20.2640   26.0010 C.3       1 8NN         0.0978
     21 O17       -34.9090  -18.9400   27.8080 O.co2     1 8NN        -0.5665
     22 O18       -35.4040  -21.0850   27.7340 O.co2     1 8NN        -0.5665
     23 C22       -34.9220  -16.2980   24.1740 C.ar      1 8NN         0.0603
     24 N23       -36.1920  -16.5280   24.5260 N.pl3     1 8NN        -0.2891
     25 C25       -34.2630  -15.1130   23.8360 C.ar      1 8NN        -0.0443
     26 C26       -32.9210  -15.1430   23.5150 C.ar      1 8NN        -0.0768
     27 C27       -32.2050  -16.3470   23.5340 C.ar      1 8NN        -0.0792
     28 C28       -32.8600  -17.5290   23.8780 C.ar      1 8NN        -0.0747
     29 CL1       -34.5750  -26.4500   27.0500 Cl        1 8NN        -0.0455
     30 H1        -37.2958  -18.3034   25.0476 H         1 8NN         0.0795
     31 H2        -34.2828  -20.3149   23.8572 H         1 8NN         0.0390
     32 H3        -35.8069  -20.5185   24.7858 H         1 8NN         0.0390
     33 H4        -30.7557  -22.5915   24.1802 H         1 8NN         0.2571
     34 H5        -31.4772  -29.6023   25.0994 H         1 8NN         0.0646
     35 H6        -29.7271  -28.5080   23.7469 H         1 8NN         0.0632
     36 H7        -29.6356  -26.0281   23.5942 H         1 8NN         0.0661
     37 H8        -33.2169  -28.2179   26.1874 H         1 8NN         0.0641
     38 H9        -34.4359  -22.2908   26.4759 H         1 8NN         0.1864
     39 H10       -33.1150  -19.6720   26.0115 H         1 8NN         0.0740
     40 H11       -36.9262  -15.8101   24.6066 H         1 8NN         0.2216
     41 H12       -34.8038  -14.1736   23.8260 H         1 8NN         0.0541
     42 H13       -32.4146  -14.2234   23.2448 H         1 8NN         0.0530
     43 H14       -31.1505  -16.3597   23.2833 H         1 8NN         0.0510
     44 H15       -32.3175  -18.4671   23.9026 H         1 8NN         0.0540
@<TRIPOS>BOND
     1    3    1 2  
     2    1   24 1  
     3    2    3 1  
     4   20    2 1  
     5    3    4 1  
     6    4   23 ar 
     7    4   28 ar 
     8   20    5 1  
     9    5   21 ar 
    10    5   22 ar 
    11    8    6 1  
    12    7   17 1  
    13    7   18 2  
    14   19    7 am 
    15    8   12 ar 
    16   17    8 ar 
    17   10    9 ar 
    18   14    9 ar 
    19   11   10 ar 
    20   12   11 ar 
    21   12   13 ar 
    22   13   14 ar 
    23   15   13 ar 
    24   16   15 ar 
    25   15   29 1  
    26   17   16 ar 
    27   19   20 1  
    28   23   24 1  
    29   23   25 ar 
    30   25   26 ar 
    31   26   27 ar 
    32   27   28 ar 
    33    1   30 1  
    34    2   31 1  
    35    2   32 1  
    36    6   33 1  
    37    9   34 1  
    38   10   35 1  
    39   11   36 1  
    40   14   37 1  
    41   19   38 1  
    42   20   39 1  
    43   24   40 1  
    44   25   41 1  
    45   26   42 1  
    46   27   43 1  
    47   28   44 1  
@<TRIPOS>SUBSTRUCTURE
     1 8NN         1

