### 
### Created by X-TOOL on Mon Sep 10 21:13:32 2018
### 

@<TRIPOS>MOLECULE
5n58_ligand
   44    47     1     0     0
SMALL
GAST_HUCK


@<TRIPOS>ATOM
      1 C24         4.6300   -7.0930  -25.0150 C.2       1 93W         0.0166
      2 C19         2.1260   -6.7910  -25.6110 C.3       1 93W        -0.0014
      3 C20         3.3620   -7.6090  -25.2110 C.2       1 93W        -0.0424
      4 C21         3.4800   -8.9950  -24.9820 C.ar      1 93W        -0.0214
      5 C16         2.0820   -5.3770  -23.5720 C.2       1 93W         0.0612
      6 O11        -3.1200   -8.0800  -22.2090 O.3       1 93W        -0.3160
      7 C12        -0.4810   -7.6470  -23.1440 C.2       1 93W         0.2105
      8 C10        -2.2480   -9.1700  -22.2090 C.ar      1 93W         0.1430
      9 C01        -3.4310  -12.9780  -20.9190 C.ar      1 93W        -0.0571
     10 C02        -4.3590  -11.9420  -20.8800 C.ar      1 93W        -0.0567
     11 C03        -3.9910  -10.6680  -21.3020 C.ar      1 93W        -0.0441
     12 C04        -2.6840  -10.4310  -21.7730 C.ar      1 93W         0.0383
     13 C05        -1.7690  -11.4550  -21.7990 C.ar      1 93W         0.0220
     14 C06        -2.1390  -12.7440  -21.3760 C.ar      1 93W        -0.0475
     15 C07        -0.4710  -11.2020  -22.2610 C.ar      1 93W         0.1160
     16 N08        -0.1060  -10.0080  -22.6790 N.ar      1 93W        -0.2813
     17 C09        -0.9460   -8.9990  -22.6320 C.ar      1 93W         0.1403
     18 O13        -1.1690   -6.7120  -22.9840 O.2       1 93W        -0.3909
     19 N14         0.7920   -7.5610  -23.8440 N.am      1 93W        -0.2713
     20 C15         1.2790   -6.3230  -24.4430 C.3       1 93W         0.0978
     21 O17         2.3280   -5.6290  -22.3550 O.co2     1 93W        -0.5665
     22 O18         2.4960   -4.3020  -24.1130 O.co2     1 93W        -0.5665
     23 C22         4.7990   -9.2290  -24.6620 C.ar      1 93W         0.0603
     24 N23         5.4590   -8.0740  -24.6960 N.pl3     1 93W        -0.2891
     25 C25         5.2520  -10.5250  -24.3590 C.ar      1 93W        -0.0443
     26 C26         4.3650  -11.5920  -24.3890 C.ar      1 93W        -0.0768
     27 C27         3.0320  -11.3670  -24.7110 C.ar      1 93W        -0.0792
     28 C28         2.5890  -10.0790  -25.0040 C.ar      1 93W        -0.0747
     29 CL1         0.7470  -12.4870  -22.3340 Cl        1 93W        -0.0455
     30 H1          4.9037   -6.0431  -25.1086 H         1 93W         0.0795
     31 H2          1.4973   -7.4145  -26.2637 H         1 93W         0.0390
     32 H3          2.4653   -5.9045  -26.1668 H         1 93W         0.0390
     33 H4         -2.6644   -7.3114  -22.5320 H         1 93W         0.2571
     34 H5         -3.7165  -13.9713  -20.5918 H         1 93W         0.0646
     35 H6         -5.3654  -12.1267  -20.5220 H         1 93W         0.0632
     36 H7         -4.7100   -9.8575  -21.2684 H         1 93W         0.0661
     37 H8         -1.4185  -13.5534  -21.4062 H         1 93W         0.0641
     38 H9          1.3557   -8.3837  -23.9174 H         1 93W         0.1864
     39 H10         0.4109   -5.7589  -24.8146 H         1 93W         0.0740
     40 H11         6.4644   -7.9605  -24.5030 H         1 93W         0.2216
     41 H12         6.2921  -10.6905  -24.1024 H         1 93W         0.0541
     42 H13         4.7098  -12.5945  -24.1627 H         1 93W         0.0530
     43 H14         2.3345  -12.1965  -24.7343 H         1 93W         0.0510
     44 H15         1.5467   -9.9127  -25.2512 H         1 93W         0.0540
@<TRIPOS>BOND
     1    3    1 2  
     2    1   24 1  
     3    2    3 1  
     4   20    2 1  
     5    3    4 1  
     6    4   23 ar 
     7    4   28 ar 
     8   20    5 1  
     9    5   21 ar 
    10    5   22 ar 
    11    8    6 1  
    12    7   17 1  
    13    7   18 2  
    14   19    7 am 
    15    8   12 ar 
    16   17    8 ar 
    17   10    9 ar 
    18   14    9 ar 
    19   11   10 ar 
    20   12   11 ar 
    21   12   13 ar 
    22   13   14 ar 
    23   15   13 ar 
    24   16   15 ar 
    25   15   29 1  
    26   17   16 ar 
    27   19   20 1  
    28   23   24 1  
    29   23   25 ar 
    30   25   26 ar 
    31   26   27 ar 
    32   27   28 ar 
    33    1   30 1  
    34    2   31 1  
    35    2   32 1  
    36    6   33 1  
    37    9   34 1  
    38   10   35 1  
    39   11   36 1  
    40   14   37 1  
    41   19   38 1  
    42   20   39 1  
    43   24   40 1  
    44   25   41 1  
    45   26   42 1  
    46   27   43 1  
    47   28   44 1  
@<TRIPOS>SUBSTRUCTURE
     1 93W         1

