### 
### Created by X-TOOL on Mon Sep 10 21:13:32 2018
### 

@<TRIPOS>MOLECULE
5n69_ligand
   68    70     1     0     0
SMALL
GAST_HUCK


@<TRIPOS>ATOM
      1 C10         0.7520    1.4040   18.0890 C.3       1 2OW         0.0356
      2 C13         1.0440   -1.4060   17.0140 C.3       1 2OW        -0.0067
      3 C20        -1.1250   -5.8720   20.6030 C.3       1 2OW         0.0289
      4 C22        -2.8650   -7.1380   21.7740 C.2       1 2OW         0.0078
      5 C24        -3.8740   -6.3280   20.9200 C.3       1 2OW         0.0163
      6 C26         0.1160    0.2520   18.8700 C.3       1 2OW         0.1509
      7 C28         3.2520    2.7330   20.0060 C.3       1 2OW        -0.0110
      8 C01         5.6450    2.9530   24.3520 C.3       1 2OW         0.0663
      9 O02         5.7380    1.7110   23.6320 O.3       1 2OW        -0.2671
     10 C03         4.4740    1.1170   23.3620 C.2       1 2OW         0.3221
     11 O04         4.1110    0.1560   23.9780 O.2       1 2OW        -0.3774
     12 N05         3.6020    1.7630   22.3360 N.am      1 2OW        -0.2387
     13 C06         2.1840    1.9010   22.5900 C.3       1 2OW         0.0759
     14 C07         1.2970    2.3430   21.4010 C.3       1 2OW        -0.0110
     15 N08         1.8900    2.1800   20.0910 N.4       1 2OW         0.2383
     16 C09         1.0090    2.6310   19.0200 C.3       1 2OW        -0.0260
     17 C11         2.0150    1.0590   17.2860 C.3       1 2OW        -0.0423
     18 C12         2.1350   -0.3680   16.7020 C.3       1 2OW        -0.0474
     19 C14         0.2200   -1.1370   18.2730 C.3       1 2OW         0.0176
     20 N15        -1.0160   -1.9420   18.3680 N.4       1 2OW         0.2887
     21 C16        -0.7590   -3.0650   19.2710 C.3       1 2OW         0.1089
     22 O17         0.3560   -3.7620   18.8160 O.3       1 2OW        -0.3127
     23 N18        -1.8560   -4.0210   19.1370 N.4       1 2OW         0.2872
     24 C19        -2.0640   -4.7040   20.4280 C.3       1 2OW        -0.0059
     25 N21        -1.5740   -6.9490   21.5620 N.2       1 2OW        -0.3638
     26 C23        -3.3800   -8.3000   22.6320 C.3       1 2OW        -0.0002
     27 C25        -3.4910   -4.9490   20.5560 C.3       1 2OW         0.0092
     28 F27        -1.1230    0.5340   19.3560 F         1 2OW        -0.2391
     29 C29         4.2080    2.2790   21.1370 C.3       1 2OW         0.0759
     30 H1          0.0006    1.7158   17.3486 H         1 2OW         0.0383
     31 H2          1.5314   -2.3852   17.1309 H         1 2OW         0.0321
     32 H3          0.3538   -1.4398   16.1582 H         1 2OW         0.0321
     33 H4         -0.1638   -5.4788   20.9657 H         1 2OW         0.0388
     34 H5         -0.9819   -6.3385   19.6172 H         1 2OW         0.0388
     35 H6         -4.8165   -6.2723   21.4844 H         1 2OW         0.0549
     36 H7         -4.0387   -6.8840   19.9853 H         1 2OW         0.0549
     37 H8          0.7440    0.1858   19.7707 H         1 2OW         0.0713
     38 H9          3.1788    3.8300   20.0394 H         1 2OW         0.0834
     39 H10         3.6878    2.4236   19.0446 H         1 2OW         0.0834
     40 H11         6.6550    3.3531   24.5249 H         1 2OW         0.0575
     41 H12         5.1487    2.7804   25.3184 H         1 2OW         0.0575
     42 H13         5.0603    3.6752   23.7633 H         1 2OW         0.0575
     43 H14         2.0611    2.6455   23.3904 H         1 2OW         0.0575
     44 H15         1.8124    0.9254   22.9365 H         1 2OW         0.0575
     45 H16         1.0562    3.4080   21.5345 H         1 2OW         0.0834
     46 H17         0.3703    1.7510   21.4302 H         1 2OW         0.0834
     47 H18         1.9927    1.1861   19.9582 H         1 2OW         0.2035
     48 H19         0.0584    2.9915   19.4401 H         1 2OW         0.0818
     49 H20         1.4897    3.4413   18.4522 H         1 2OW         0.0818
     50 H21         2.8779    1.2145   17.9502 H         1 2OW         0.0271
     51 H22         2.0695    1.7634   16.4429 H         1 2OW         0.0271
     52 H23         2.1746   -0.2639   15.6077 H         1 2OW         0.0267
     53 H24         3.0862   -0.7839   17.0655 H         1 2OW         0.0267
     54 H25         0.8559   -1.6227   19.0278 H         1 2OW         0.0882
     55 H26        -1.2693   -2.2882   17.4558 H         1 2OW         0.2106
     56 H27        -1.7657   -1.3753   18.7324 H         1 2OW         0.2106
     57 H28        -0.6345   -2.7202   20.3081 H         1 2OW         0.1852
     58 H29         0.1893   -4.0860   17.9387 H         1 2OW         0.2213
     59 H30        -1.6263   -4.7008   18.4291 H         1 2OW         0.2105
     60 H31        -2.6981   -3.5334   18.8740 H         1 2OW         0.2105
     61 H32        -1.7996   -3.9942   21.2257 H         1 2OW         0.0860
     62 H33        -2.5376   -8.7612   23.1683 H         1 2OW         0.0512
     63 H34        -3.8574   -9.0504   21.9846 H         1 2OW         0.0512
     64 H35        -4.1144   -7.9220   23.3585 H         1 2OW         0.0512
     65 H36        -3.8815   -4.2739   21.3317 H         1 2OW         0.0355
     66 H37        -3.9626   -4.7108   19.5912 H         1 2OW         0.0355
     67 H38         4.8210    3.1468   21.4219 H         1 2OW         0.0575
     68 H39         4.8565    1.4907   20.7271 H         1 2OW         0.0575
@<TRIPOS>BOND
     1    6    1 1  
     2    1   16 1  
     3    1   17 1  
     4    2   18 1  
     5   19    2 1  
     6   24    3 1  
     7    3   25 1  
     8    4    5 1  
     9   25    4 2  
    10    4   26 1  
    11    5   27 1  
    12   19    6 1  
    13    6   28 1  
    14   15    7 1  
    15    7   29 1  
    16    9    8 1  
    17   10    9 1  
    18   10   11 2  
    19   12   10 am 
    20   13   12 1  
    21   29   12 1  
    22   14   13 1  
    23   15   14 1  
    24   16   15 1  
    25   18   17 1  
    26   20   19 1  
    27   21   20 1  
    28   21   22 1  
    29   23   21 1  
    30   23   24 1  
    31   24   27 1  
    32    1   30 1  
    33    2   31 1  
    34    2   32 1  
    35    3   33 1  
    36    3   34 1  
    37    5   35 1  
    38    5   36 1  
    39    6   37 1  
    40    7   38 1  
    41    7   39 1  
    42    8   40 1  
    43    8   41 1  
    44    8   42 1  
    45   13   43 1  
    46   13   44 1  
    47   14   45 1  
    48   14   46 1  
    49   15   47 1  
    50   16   48 1  
    51   16   49 1  
    52   17   50 1  
    53   17   51 1  
    54   18   52 1  
    55   18   53 1  
    56   19   54 1  
    57   20   55 1  
    58   20   56 1  
    59   21   57 1  
    60   22   58 1  
    61   23   59 1  
    62   23   60 1  
    63   24   61 1  
    64   26   62 1  
    65   26   63 1  
    66   26   64 1  
    67   27   65 1  
    68   27   66 1  
    69   29   67 1  
    70   29   68 1  
@<TRIPOS>SUBSTRUCTURE
     1 2OW         1

