### 
### Created by X-TOOL on Mon Sep 10 21:13:34 2018
### 

@<TRIPOS>MOLECULE
5n6s_ligand
   44    45     1     0     0
SMALL
GAST_HUCK


@<TRIPOS>ATOM
      1 O3         -3.3900   -9.1360   10.5130 O.3       1 8P5        -0.3866
      2 C4         -4.9820   -7.9110    9.2330 C.3       1 8P5         0.0888
      3 C5         -6.4480   -7.7600    8.9320 C.3       1 8P5         0.0163
      4 O4         -4.4490   -6.6490    9.6920 O.3       1 8P5        -0.3888
      5 C6         -6.6150   -6.7980    7.7860 C.3       1 8P5         0.0499
      6 N1        -10.9980  -12.6240   -0.6680 N.1       1 8P5         0.2334
      7 C7         -7.0760   -9.0590    8.4860 C.3       1 8P5        -0.0060
      8 C8         -6.2590   -9.7700    7.3750 C.3       1 8P5         0.0579
      9 C9         -7.0660  -10.0780    6.1480 C.2       1 8P5         0.1797
     10 O6         -7.1540   -5.5840    8.2850 O.3       1 8P5        -0.3946
     11 C12        -9.1890  -10.9820    5.6720 C.3       1 8P5         0.0310
     12 C13        -9.1970  -11.6750    4.3520 C.3       1 8P5        -0.0280
     13 C14        -9.4190  -10.7010    3.2260 C.3       1 8P5         0.0047
     14 C15        -9.1630  -11.4470    1.9360 C.3       1 8P5         0.2090
     15 O10        -7.1200   -9.2540    5.2240 O.2       1 8P5        -0.3968
     16 N11        -7.8710  -11.1070    6.2380 N.am      1 8P5        -0.2867
     17 N16       -10.1770  -12.4620    1.6970 N.2       1 8P5         0.1658
     18 N17       -10.6640  -12.5890    0.4220 N.1       1 8P5         0.1292
     19 C1         -6.4710  -10.4200    8.7560 C.3       1 8P5         0.0131
     20 C2         -5.3080  -10.4550    9.7580 C.3       1 8P5         0.0890
     21 O2         -5.7280  -11.2470   10.8750 O.3       1 8P5        -0.3887
     22 C3         -4.7930   -9.0690   10.2340 C.3       1 8P5         0.1075
     23 H1         -3.1030   -8.3114   10.8873 H         1 8P5         0.2100
     24 H2         -4.4567   -8.1787    8.3044 H         1 8P5         0.0623
     25 H3         -6.9651   -7.3847    9.8274 H         1 8P5         0.0353
     26 H4         -4.5670   -5.9920    9.0160 H         1 8P5         0.2099
     27 H5         -7.2992   -7.2272    7.0393 H         1 8P5         0.0561
     28 H6         -5.6377   -6.6048    7.3196 H         1 8P5         0.0561
     29 H7         -8.1708   -8.9608    8.4436 H         1 8P5         0.0337
     30 H8         -5.2459   -9.4514    7.0885 H         1 8P5         0.0545
     31 H9         -7.2634   -4.9694    7.5689 H         1 8P5         0.2094
     32 H10        -9.9273  -11.4475    6.3414 H         1 8P5         0.0520
     33 H11        -9.4364   -9.9189    5.5359 H         1 8P5         0.0520
     34 H12       -10.0042  -12.4222    4.3441 H         1 8P5         0.0286
     35 H13        -8.2300  -12.1783    4.2053 H         1 8P5         0.0286
     36 H14        -8.7227   -9.8543    3.3167 H         1 8P5         0.0316
     37 H15       -10.4539  -10.3288    3.2476 H         1 8P5         0.0316
     38 H16        -8.1777  -11.9327    1.9934 H         1 8P5         0.0957
     39 H17        -9.1706  -10.7307    1.1013 H         1 8P5         0.0957
     40 H18        -7.5796  -11.9525    6.6855 H         1 8P5         0.1851
     41 H19        -7.1000  -11.3167    8.8576 H         1 8P5         0.0358
     42 H20        -4.4627  -10.9605    9.2682 H         1 8P5         0.0624
     43 H21        -6.4965  -10.8525   11.2704 H         1 8P5         0.2099
     44 H22        -5.3347   -8.8155   11.1572 H         1 8P5         0.0645
@<TRIPOS>BOND
     1   22    1 1  
     2    3    2 1  
     3    2    4 1  
     4    2   22 1  
     5    3    5 1  
     6    7    3 1  
     7    5   10 1  
     8   18    6 3  
     9    8    7 1  
    10   19    7 1  
    11    9    8 1  
    12    8   19 1  
    13    9   15 2  
    14   16    9 am 
    15   12   11 1  
    16   11   16 1  
    17   13   12 1  
    18   14   13 1  
    19   17   14 1  
    20   17   18 2  
    21   19   20 1  
    22   20   21 1  
    23   20   22 1  
    24    1   23 1  
    25    2   24 1  
    26    3   25 1  
    27    4   26 1  
    28    5   27 1  
    29    5   28 1  
    30    7   29 1  
    31    8   30 1  
    32   10   31 1  
    33   11   32 1  
    34   11   33 1  
    35   12   34 1  
    36   12   35 1  
    37   13   36 1  
    38   13   37 1  
    39   14   38 1  
    40   14   39 1  
    41   16   40 1  
    42   19   41 1  
    43   20   42 1  
    44   21   43 1  
    45   22   44 1  
@<TRIPOS>SUBSTRUCTURE
     1 8P5         1

