### 
### Created by X-TOOL on Mon Sep 10 21:13:33 2018
### 

@<TRIPOS>MOLECULE
5n7v_ligand
   59    63     1     0     0
SMALL
GAST_HUCK


@<TRIPOS>ATOM
      1 C4         36.2030   43.2240   37.9060 C.ar      1 8PT         0.1403
      2 C5         36.6270   42.3890   38.9060 C.ar      1 8PT         0.0919
      3 C6         36.2810   42.6830   40.1790 C.ar      1 8PT         0.1210
      4 C8         37.3430   41.6700   36.9960 C.2       1 8PT         0.1021
      5 C2         35.1080   44.5340   39.4800 C.ar      1 8PT         0.1704
      6 CAU        38.4230   41.4770   42.7350 C.3       1 8PT        -0.0295
      7 CAV        38.0290   41.3730   44.2210 C.3       1 8PT        -0.0509
      8 CAW        36.8060   40.4660   44.5450 C.3       1 8PT        -0.0529
      9 CAX        35.8020   40.3210   43.3930 C.3       1 8PT        -0.0509
     10 CAY        36.6200   39.8240   42.2620 C.3       1 8PT        -0.0295
     11 CAK        37.4100   40.9790   41.6560 C.3       1 8PT         0.0408
     12 N6         36.5380   42.0460   41.3310 N.pl3     1 8PT        -0.3002
     13 N1         35.5400   43.7360   40.4250 N.ar      1 8PT        -0.2537
     14 N7         37.3310   41.4320   38.3370 N.2       1 8PT        -0.3042
     15 N9         36.6390   42.7670   36.7220 N.pl3     1 8PT        -0.2417
     16 N3         35.4360   44.3030   38.1850 N.ar      1 8PT        -0.2618
     17 N2         34.3740   45.5380   39.9560 N.pl3     1 8PT        -0.2600
     18 CAM        34.1920   45.6190   41.3170 C.ar      1 8PT         0.0539
     19 CAR        34.2640   46.8980   41.8980 C.ar      1 8PT        -0.0322
     20 CAS        34.5260   48.0390   41.1560 C.3       1 8PT        -0.0361
     21 CAQ        34.0790   47.0390   43.2580 C.ar      1 8PT        -0.0516
     22 CAN        33.9390   44.5030   42.1390 C.ar      1 8PT        -0.0554
     23 CAO        33.7480   44.6650   43.5020 C.ar      1 8PT        -0.0600
     24 CAP        33.8200   45.9440   44.0630 C.ar      1 8PT         0.0224
     25 NAT        33.6290   46.1490   45.3740 N.pl3     1 8PT        -0.3116
     26 CAZ        32.6370   47.1600   45.7840 C.3       1 8PT         0.0481
     27 CBA        32.6840   47.2030   47.3090 C.3       1 8PT         0.0670
     28 OBB        32.4510   45.8650   47.8090 O.3       1 8PT        -0.3759
     29 CBC        33.5630   44.9930   47.6190 C.3       1 8PT         0.0670
     30 CBD        34.3960   45.3910   46.3920 C.3       1 8PT         0.0481
     31 H1         37.8530   41.0541   36.2567 H         1 8PT         0.1308
     32 H2         39.3480   40.8965   42.6035 H         1 8PT         0.0288
     33 H3         38.6232   42.5383   42.5262 H         1 8PT         0.0288
     34 H4         37.7990   42.3873   44.5792 H         1 8PT         0.0266
     35 H5         38.8955   40.9774   44.7712 H         1 8PT         0.0266
     36 H6         36.2783   40.8955   45.4093 H         1 8PT         0.0265
     37 H7         37.1794   39.4643   44.8041 H         1 8PT         0.0265
     38 H8         35.3456   41.2914   43.1481 H         1 8PT         0.0266
     39 H9         35.0129   39.5994   43.6510 H         1 8PT         0.0266
     40 H10        35.9605   39.3899   41.4961 H         1 8PT         0.0288
     41 H11        37.3170   39.0542   42.6247 H         1 8PT         0.0288
     42 H12        37.9430   40.6418   40.7548 H         1 8PT         0.0561
     43 H13        35.9975   42.4010   42.1327 H         1 8PT         0.1859
     44 H14        36.4653   43.1790   35.7941 H         1 8PT         0.2376
     45 H15        33.9546   46.2340   39.3231 H         1 8PT         0.2111
     46 H16        34.5334   48.9152   41.8211 H         1 8PT         0.0367
     47 H17        33.7459   48.1660   40.3909 H         1 8PT         0.0367
     48 H18        35.5066   47.9414   40.6672 H         1 8PT         0.0367
     49 H19        34.1376   48.0254   43.7037 H         1 8PT         0.0426
     50 H20        33.8935   43.5117   41.7027 H         1 8PT         0.0486
     51 H21        33.5439   43.8052   44.1298 H         1 8PT         0.0432
     52 H22        31.6327   46.8709   45.4408 H         1 8PT         0.0532
     53 H23        32.8985   48.1433   45.3659 H         1 8PT         0.0532
     54 H24        31.9049   47.8818   47.6861 H         1 8PT         0.0579
     55 H25        33.6711   47.5573   47.6408 H         1 8PT         0.0579
     56 H26        33.1914   43.9671   47.4796 H         1 8PT         0.0579
     57 H27        34.2035   45.0328   48.5124 H         1 8PT         0.0579
     58 H28        35.2365   46.0150   46.7299 H         1 8PT         0.0532
     59 H29        34.7846   44.4748   45.9235 H         1 8PT         0.0532
@<TRIPOS>BOND
     1    2    1 ar 
     2    1   15 1  
     3    1   16 ar 
     4    3    2 ar 
     5    2   14 1  
     6   12    3 1  
     7    3   13 ar 
     8   14    4 2  
     9    4   15 1  
    10   13    5 ar 
    11    5   16 ar 
    12    5   17 1  
    13    6    7 1  
    14   11    6 1  
    15    7    8 1  
    16    9    8 1  
    17   10    9 1  
    18   11   10 1  
    19   11   12 1  
    20   17   18 1  
    21   18   19 ar 
    22   18   22 ar 
    23   19   20 1  
    24   19   21 ar 
    25   21   24 ar 
    26   22   23 ar 
    27   23   24 ar 
    28   24   25 1  
    29   25   26 1  
    30   25   30 1  
    31   26   27 1  
    32   27   28 1  
    33   28   29 1  
    34   29   30 1  
    35    4   31 1  
    36    6   32 1  
    37    6   33 1  
    38    7   34 1  
    39    7   35 1  
    40    8   36 1  
    41    8   37 1  
    42    9   38 1  
    43    9   39 1  
    44   10   40 1  
    45   10   41 1  
    46   11   42 1  
    47   12   43 1  
    48   15   44 1  
    49   17   45 1  
    50   20   46 1  
    51   20   47 1  
    52   20   48 1  
    53   21   49 1  
    54   22   50 1  
    55   23   51 1  
    56   26   52 1  
    57   26   53 1  
    58   27   54 1  
    59   27   55 1  
    60   29   56 1  
    61   29   57 1  
    62   30   58 1  
    63   30   59 1  
@<TRIPOS>SUBSTRUCTURE
     1 8PT         1

