### 
### Created by X-TOOL on Mon Sep 10 21:13:33 2018
### 

@<TRIPOS>MOLECULE
5n84_ligand
   49    52     1     0     0
SMALL
GAST_HUCK


@<TRIPOS>ATOM
      1 OAZ        40.7220   38.1560   38.3590 O.2       1 8Q5        -0.3874
      2 CAU        39.7260   38.2670   37.6810 C.2       1 8Q5         0.2010
      3 NAV        39.3880   37.3260   36.7770 N.am      1 8Q5        -0.2840
      4 CAW        40.1460   36.0750   36.5860 C.3       1 8Q5         0.0415
      5 CAY        39.8290   35.4370   35.2240 C.3       1 8Q5        -0.0279
      6 CAX        41.2470   35.9220   35.5140 C.3       1 8Q5        -0.0279
      7 CAR        38.9340   39.5460   37.9080 C.ar      1 8Q5         0.0443
      8 CAQ        38.0180   40.0750   36.9620 C.ar      1 8Q5        -0.0469
      9 CAP        37.3230   41.2770   37.2280 C.ar      1 8Q5        -0.0528
     10 CAO        37.5210   41.9610   38.4080 C.ar      1 8Q5         0.0046
     11 CAT        38.4230   41.4500   39.3490 C.ar      1 8Q5        -0.0528
     12 CAS        39.1320   40.2600   39.1100 C.ar      1 8Q5        -0.0469
     13 CAN        36.7340   43.1960   38.6070 C.2       1 8Q5         0.1031
     14 NAD        36.1750   43.4530   39.8070 N.pl3     1 8Q5        -0.1982
     15 CAC        36.1610   42.8470   41.0320 C.2       1 8Q5         0.0784
     16 CAB        35.4680   43.4040   42.1310 C.2       1 8Q5         0.0131
     17 NAA        34.7830   44.5600   42.0130 N.2       1 8Q5        -0.2940
     18 CAF        34.7610   45.2200   40.8250 C.2       1 8Q5         0.1699
     19 CAE        35.4960   44.6280   39.6520 C.2       1 8Q5         0.2027
     20 NAL        35.6210   45.0750   38.3690 N.2       1 8Q5        -0.3160
     21 CAM        36.3900   44.1790   37.7010 C.2       1 8Q5        -0.0059
     22 NAG        34.1170   46.4090   40.6700 N.pl3     1 8Q5        -0.2965
     23 CAH        33.5470   47.1520   41.7940 C.3       1 8Q5         0.0317
     24 CAI        34.5740   48.0650   42.5100 C.3       1 8Q5        -0.0264
     25 CAJ        35.0580   49.2210   41.6210 C.3       1 8Q5        -0.0608
     26 CAK        34.0460   48.6010   43.8430 C.3       1 8Q5        -0.0608
     27 H1         38.5820   37.4841   36.2065 H         1 8Q5         0.1845
     28 H2         40.2140   35.5032   37.5232 H         1 8Q5         0.0555
     29 H3         39.2026   35.9763   34.4982 H         1 8Q5         0.0288
     30 H4         39.6207   34.3589   35.1585 H         1 8Q5         0.0288
     31 H5         42.0583   35.1935   35.6592 H         1 8Q5         0.0288
     32 H6         41.6401   36.8109   34.9989 H         1 8Q5         0.0288
     33 H7         37.8497   39.5528   36.0271 H         1 8Q5         0.0654
     34 H8         36.6256   41.6655   36.4947 H         1 8Q5         0.0593
     35 H9         38.5777   41.9826   40.2804 H         1 8Q5         0.0593
     36 H10        39.8322   39.8897   39.8500 H         1 8Q5         0.0654
     37 H11        36.6985   41.9093   41.1651 H         1 8Q5         0.1052
     38 H12        35.4875   42.8902   43.0910 H         1 8Q5         0.0670
     39 H13        36.6800   44.2262   36.6524 H         1 8Q5         0.0575
     40 H14        34.0272   46.8020   39.7221 H         1 8Q5         0.1842
     41 H15        33.1522   46.4308   42.5248 H         1 8Q5         0.0524
     42 H16        32.7257   47.7792   41.4172 H         1 8Q5         0.0524
     43 H17        35.4509   47.4403   42.7353 H         1 8Q5         0.0315
     44 H18        35.7820   49.8337   42.1782 H         1 8Q5         0.0233
     45 H19        34.1993   49.8433   41.3288 H         1 8Q5         0.0233
     46 H20        35.5393   48.8137   40.7196 H         1 8Q5         0.0233
     47 H21        33.7042   47.7615   44.4662 H         1 8Q5         0.0233
     48 H22        33.2050   49.2849   43.6560 H         1 8Q5         0.0233
     49 H23        34.8493   49.1417   44.3649 H         1 8Q5         0.0233
@<TRIPOS>BOND
     1    1    2 2  
     2    2    3 am 
     3    2    7 1  
     4    3    4 1  
     5    4    5 1  
     6    4    6 1  
     7    5    6 1  
     8    7    8 ar 
     9    7   12 ar 
    10    8    9 ar 
    11    9   10 ar 
    12   10   11 ar 
    13   10   13 1  
    14   11   12 ar 
    15   13   14 1  
    16   13   21 2  
    17   14   15 1  
    18   14   19 1  
    19   15   16 2  
    20   16   17 1  
    21   17   18 2  
    22   18   19 1  
    23   18   22 1  
    24   19   20 2  
    25   20   21 1  
    26   22   23 1  
    27   23   24 1  
    28   24   25 1  
    29   24   26 1  
    30    3   27 1  
    31    4   28 1  
    32    5   29 1  
    33    5   30 1  
    34    6   31 1  
    35    6   32 1  
    36    8   33 1  
    37    9   34 1  
    38   11   35 1  
    39   12   36 1  
    40   15   37 1  
    41   16   38 1  
    42   21   39 1  
    43   22   40 1  
    44   23   41 1  
    45   23   42 1  
    46   24   43 1  
    47   25   44 1  
    48   25   45 1  
    49   25   46 1  
    50   26   47 1  
    51   26   48 1  
    52   26   49 1  
@<TRIPOS>SUBSTRUCTURE
     1 8Q5         1

