### 
### Created by X-TOOL on Mon Sep 10 21:13:33 2018
### 

@<TRIPOS>MOLECULE
5n87_ligand
   80    85     1     0     0
SMALL
GAST_HUCK


@<TRIPOS>ATOM
      1 CBK        32.4680   47.7980   45.1110 C.3       1 N66         0.0649
      2 CBL        33.1570   48.5310   46.2110 C.3       1 N66        -0.0123
      3 NBM        33.0650   47.6170   47.3730 N.4       1 N66         0.2358
      4 CBP        33.7910   48.1560   48.5430 C.3       1 N66        -0.0430
      5 CBN        33.5020   46.2230   47.0340 C.3       1 N66        -0.0123
      6 CBO        34.2090   46.0380   45.7070 C.3       1 N66         0.0649
      7 NBJ        33.3870   46.7240   44.6610 N.pl3     1 N66        -0.3064
      8 CAV        33.5120   46.4570   43.3450 C.ar      1 N66         0.0207
      9 CAW        33.6820   47.5170   42.4580 C.ar      1 N66        -0.0239
     10 CAX        33.8070   47.2790   41.0910 C.ar      1 N66         0.1051
     11 OBH        33.9730   48.2720   40.1600 O.3       1 N66        -0.3278
     12 CBI        33.9580   49.6390   40.6080 C.3       1 N66         0.0569
     13 CAU        33.4740   45.1470   42.8460 C.ar      1 N66        -0.0640
     14 CAT        33.5940   44.8980   41.4770 C.ar      1 N66        -0.0565
     15 CAS        33.7770   45.9680   40.5930 C.ar      1 N66         0.0838
     16 NAR        33.9000   45.8450   39.2570 N.pl3     1 N66        -0.2523
     17 C2         34.7050   44.9150   38.7010 C.ar      1 N66         0.2016
     18 N3         35.3050   43.9240   39.4100 N.ar      1 N66        -0.2214
     19 C4         36.1040   43.0070   38.8430 C.ar      1 N66         0.1837
     20 N1         34.8900   44.9810   37.3720 N.ar      1 N66        -0.2545
     21 C6         35.7170   44.0420   36.7270 C.ar      1 N66         0.0229
     22 C5         36.3240   43.0410   37.4730 C.ar      1 N66         0.0525
     23 CAG        37.1560   42.1040   36.8410 C.2       1 N66        -0.0479
     24 CAH        37.4070   40.8230   37.6610 C.2       1 N66        -0.0296
     25 CAI        37.2890   40.9630   39.0490 C.2       1 N66         0.0950
     26 NAJ        36.6640   42.0280   39.5620 N.pl3     1 N66        -0.2066
     27 CAK        36.6780   41.9110   40.8930 C.2       1 N66         0.0405
     28 CAM        37.3210   40.7970   41.2200 C.2       1 N66        -0.0621
     29 CAL        37.6970   40.1940   40.0850 C.2       1 N66         0.0421
     30 CAN        38.3860   39.0130   40.0050 C.2       1 N66         0.1979
     31 OAO        38.9680   38.6780   38.9690 O.2       1 N66        -0.3946
     32 NAP        38.4130   38.2370   41.1290 N.am      1 N66        -0.2457
     33 CAQ        39.0810   37.0680   41.1210 C.ar      1 N66         0.0697
     34 CAY        38.3580   35.8620   41.0280 C.ar      1 N66        -0.0277
     35 CBD        36.9640   35.8110   40.9250 C.3       1 N66        -0.0277
     36 CBE        36.3410   35.5330   42.3040 C.3       1 N66        -0.0577
     37 CAZ        39.0580   34.6550   41.0350 C.ar      1 N66        -0.0802
     38 CBA        40.4480   34.6520   41.1360 C.ar      1 N66        -0.0903
     39 CBB        41.1510   35.8530   41.2400 C.ar      1 N66        -0.0802
     40 CBC        40.4820   37.0760   41.2350 C.ar      1 N66        -0.0277
     41 CBF        41.2340   38.2320   41.3360 C.3       1 N66        -0.0277
     42 CBG        41.2560   38.5830   42.8290 C.3       1 N66        -0.0577
     43 H1         32.2519   48.4833   44.2782 H         1 N66         0.0563
     44 H2         31.5283   47.3608   45.4794 H         1 N66         0.0563
     45 H3         32.6488   49.4832   46.4230 H         1 N66         0.0834
     46 H4         34.2078   48.7262   45.9509 H         1 N66         0.0834
     47 H5         32.0915   47.5638   47.6290 H         1 N66         0.2032
     48 H6         33.7020   47.4538   49.3851 H         1 N66         0.0778
     49 H7         33.3586   49.1265   48.8277 H         1 N66         0.0778
     50 H8         34.8525   48.2885   48.2867 H         1 N66         0.0778
     51 H9         32.6061   45.5848   47.0267 H         1 N66         0.0834
     52 H10        34.1861   45.8856   47.8265 H         1 N66         0.0834
     53 H11        34.2959   44.9666   45.4737 H         1 N66         0.0563
     54 H12        35.2125   46.4865   45.7501 H         1 N66         0.0563
     55 H13        33.7173   48.5333   42.8334 H         1 N66         0.0410
     56 H14        34.1027   50.3085   39.7473 H         1 N66         0.0573
     57 H15        34.7687   49.7956   41.3347 H         1 N66         0.0573
     58 H16        32.9911   49.8582   41.0844 H         1 N66         0.0573
     59 H17        33.3499   44.3168   43.5318 H         1 N66         0.0398
     60 H18        33.5457   43.8824   41.1012 H         1 N66         0.0476
     61 H19        33.3658   46.4771   38.6438 H         1 N66         0.2127
     62 H20        35.8785   44.1001   35.6567 H         1 N66         0.0909
     63 H21        37.5877   42.2680   35.8548 H         1 N66         0.0600
     64 H22        37.6592   39.8730   37.1921 H         1 N66         0.0613
     65 H23        36.2341   42.6151   41.5952 H         1 N66         0.0809
     66 H24        37.5092   40.4376   42.2306 H         1 N66         0.0360
     67 H25        37.9375   38.5366   41.9561 H         1 N66         0.2195
     68 H26        36.6799   35.0079   40.2290 H         1 N66         0.0392
     69 H27        36.5919   36.7740   40.5453 H         1 N66         0.0392
     70 H28        35.2456   35.4952   42.2106 H         1 N66         0.0248
     71 H29        36.6219   36.3356   43.0018 H         1 N66         0.0248
     72 H30        36.7099   34.5695   42.6855 H         1 N66         0.0248
     73 H31        38.5193   33.7172   40.9617 H         1 N66         0.0460
     74 H32        40.9863   33.7111   41.1338 H         1 N66         0.0454
     75 H33        42.2314   35.8347   41.3258 H         1 N66         0.0460
     76 H34        40.7688   39.0440   40.7579 H         1 N66         0.0392
     77 H35        42.2558   38.0584   40.9677 H         1 N66         0.0392
     78 H36        41.8429   39.5008   42.9812 H         1 N66         0.0248
     79 H37        41.7140   37.7572   43.3931 H         1 N66         0.0248
     80 H38        40.2270   38.7428   43.1833 H         1 N66         0.0248
@<TRIPOS>BOND
     1    1    2 1  
     2    1    7 1  
     3    2    3 1  
     4    3    4 1  
     5    3    5 1  
     6    5    6 1  
     7    6    7 1  
     8    7    8 1  
     9    8    9 ar 
    10    8   13 ar 
    11    9   10 ar 
    12   10   11 1  
    13   10   15 ar 
    14   11   12 1  
    15   13   14 ar 
    16   14   15 ar 
    17   15   16 1  
    18   16   17 1  
    19   17   18 ar 
    20   17   20 ar 
    21   18   19 ar 
    22   19   22 ar 
    23   19   26 1  
    24   20   21 ar 
    25   21   22 ar 
    26   22   23 1  
    27   23   24 2  
    28   24   25 1  
    29   25   26 1  
    30   25   29 2  
    31   26   27 1  
    32   27   28 2  
    33   28   29 1  
    34   29   30 1  
    35   30   31 2  
    36   30   32 am 
    37   32   33 1  
    38   33   34 ar 
    39   33   40 ar 
    40   34   35 1  
    41   34   37 ar 
    42   35   36 1  
    43   37   38 ar 
    44   38   39 ar 
    45   39   40 ar 
    46   40   41 1  
    47   41   42 1  
    48    1   43 1  
    49    1   44 1  
    50    2   45 1  
    51    2   46 1  
    52    3   47 1  
    53    4   48 1  
    54    4   49 1  
    55    4   50 1  
    56    5   51 1  
    57    5   52 1  
    58    6   53 1  
    59    6   54 1  
    60    9   55 1  
    61   12   56 1  
    62   12   57 1  
    63   12   58 1  
    64   13   59 1  
    65   14   60 1  
    66   16   61 1  
    67   21   62 1  
    68   23   63 1  
    69   24   64 1  
    70   27   65 1  
    71   28   66 1  
    72   32   67 1  
    73   35   68 1  
    74   35   69 1  
    75   36   70 1  
    76   36   71 1  
    77   36   72 1  
    78   37   73 1  
    79   38   74 1  
    80   39   75 1  
    81   41   76 1  
    82   41   77 1  
    83   42   78 1  
    84   42   79 1  
    85   42   80 1  
@<TRIPOS>SUBSTRUCTURE
     1 N66         1

