### 
### Created by X-TOOL on Mon Sep 10 21:13:32 2018
### 

@<TRIPOS>MOLECULE
5n8v_ligand
   74    79     1     0     0
SMALL
GAST_HUCK


@<TRIPOS>ATOM
      1 CAA        11.3460   -2.5700   -7.6490 C.3       1 KZZ         0.0592
      2 OAZ        10.0880   -3.2640   -7.7660 O.3       1 KZZ        -0.3225
      3 CBD         8.9130   -2.5530   -7.9110 C.ar      1 KZZ         0.0947
      4 CAK         8.8540   -1.1600   -8.0260 C.ar      1 KZZ        -0.0428
      5 CAJ         7.6260   -0.5240   -8.1700 C.ar      1 KZZ        -0.0683
      6 CBK         7.7210   -3.3010   -7.9510 C.ar      1 KZZ         0.0119
      7 CAP         7.7740   -4.7020   -7.8390 C.ar      1 KZZ        -0.0558
      8 CAG         6.6130   -5.4690   -7.8680 C.ar      1 KZZ        -0.0649
      9 CAF         5.3820   -4.8420   -8.0120 C.ar      1 KZZ        -0.0652
     10 CAO         5.3110   -3.4530   -8.1260 C.ar      1 KZZ        -0.0590
     11 CBJ         6.4700   -2.6510   -8.0980 C.ar      1 KZZ        -0.0148
     12 CBC         6.4190   -1.2300   -8.2020 C.ar      1 KZZ        -0.0020
     13 CAV         5.2160   -0.4470   -8.3400 C.3       1 KZZ        -0.0018
     14 NBL         4.6190    0.0330   -7.0490 N.4       1 KZZ         0.2533
     15 CAS         4.3440   -1.0520   -6.1020 C.3       1 KZZ        -0.0182
     16 CAR         3.6590   -0.4890   -4.9850 C.3       1 KZZ         0.0456
     17 CAW         5.2690    1.0640   -6.4350 C.3       1 KZZ        -0.0121
     18 CBF         4.8600    1.5000   -5.2040 C.2       1 KZZ         0.0299
     19 CBG         4.0510    0.7100   -4.4840 C.2       1 KZZ         0.0806
     20 NBM         3.7820    1.3410   -3.3320 N.pl3     1 KZZ        -0.2010
     21 CAT         2.9210    0.8290   -2.2250 C.3       1 KZZ         0.1089
     22 CAQ         1.4380    1.1750   -2.4240 C.3       1 KZZ        -0.0054
     23 NAC         1.2060    2.6200   -2.5750 N.4       1 KZZ         0.2206
     24 NAX         4.3730    2.4390   -3.3050 N.2       1 KZZ        -0.2091
     25 CBE         5.0550    2.6080   -4.4410 C.2       1 KZZ         0.1031
     26 CBA         5.8190    3.7150   -4.7110 C.2       1 KZZ         0.2070
     27 OAB         6.4330    3.8220   -5.7700 O.2       1 KZZ        -0.3874
     28 NAY         5.9100    4.6620   -3.7230 N.am      1 KZZ        -0.2747
     29 CAU         6.7350    5.9020   -3.8360 C.3       1 KZZ         0.0662
     30 CBB         7.9810    5.8220   -3.1090 C.ar      1 KZZ        -0.0104
     31 CBI         8.7550    6.9710   -2.7880 C.ar      1 KZZ        -0.0102
     32 CAN         8.3660    8.2770   -3.1450 C.ar      1 KZZ        -0.0547
     33 CAE         9.1460    9.3860   -2.8060 C.ar      1 KZZ        -0.0625
     34 CAD        10.3320    9.2210   -2.0990 C.ar      1 KZZ        -0.0629
     35 CAL        10.7360    7.9420   -1.7290 C.ar      1 KZZ        -0.0569
     36 CBH         9.9610    6.8290   -2.0680 C.ar      1 KZZ        -0.0242
     37 CAM        10.4100    5.5670   -1.6750 C.ar      1 KZZ        -0.0631
     38 CAH         9.6610    4.4430   -1.9950 C.ar      1 KZZ        -0.0706
     39 CAI         8.4690    4.5670   -2.6990 C.ar      1 KZZ        -0.0588
     40 H1         12.1600   -3.3021   -7.5422 H         1 KZZ         0.0578
     41 H2         11.3230   -1.9158   -6.7650 H         1 KZZ         0.0578
     42 H3         11.5150   -1.9627   -8.5504 H         1 KZZ         0.0578
     43 H4          9.7668   -0.5758   -8.0028 H         1 KZZ         0.0478
     44 H5          7.6033    0.5560   -8.2606 H         1 KZZ         0.0499
     45 H6          8.7345   -5.1922   -7.7283 H         1 KZZ         0.0617
     46 H7          6.6691   -6.5479   -7.7789 H         1 KZZ         0.0589
     47 H8          4.4738   -5.4333   -8.0359 H         1 KZZ         0.0598
     48 H9          4.3423   -2.9798   -8.2387 H         1 KZZ         0.0605
     49 H10         4.4646   -1.0639   -8.8546 H         1 KZZ         0.0962
     50 H11         5.4511    0.4339   -8.9554 H         1 KZZ         0.0962
     51 H12         3.7184    0.4056   -7.3062 H         1 KZZ         0.2055
     52 H13         5.2883   -1.5088   -5.7710 H         1 KZZ         0.0839
     53 H14         3.7148   -1.8167   -6.5808 H         1 KZZ         0.0839
     54 H15         3.7371   -1.2172   -4.1643 H         1 KZZ         0.0501
     55 H16         2.6049   -0.3808   -5.2802 H         1 KZZ         0.0501
     56 H17         5.2055    1.9273   -7.1137 H         1 KZZ         0.0886
     57 H18         6.3200    0.7573   -6.3290 H         1 KZZ         0.0886
     58 H19         3.2626    1.2730   -1.2784 H         1 KZZ         0.0689
     59 H20         3.0242   -0.2650   -2.1752 H         1 KZZ         0.0689
     60 H21         0.8732    0.8176   -1.5503 H         1 KZZ         0.0842
     61 H22         1.0761    0.6644   -3.3286 H         1 KZZ         0.0842
     62 H23         0.2207    2.7906   -2.7021 H         1 KZZ         0.1995
     63 H24         1.7121    2.9595   -3.3779 H         1 KZZ         0.1995
     64 H25         1.5262    3.0999   -1.7484 H         1 KZZ         0.1995
     65 H26         5.3946    4.5138   -2.8789 H         1 KZZ         0.1873
     66 H27         6.1526    6.7472   -3.4405 H         1 KZZ         0.0696
     67 H28         6.9602    6.0771   -4.8984 H         1 KZZ         0.0696
     68 H29         7.4429    8.4248   -3.6938 H         1 KZZ         0.0628
     69 H30         8.8248   10.3800   -3.0957 H         1 KZZ         0.0601
     70 H31        10.9369   10.0819   -1.8382 H         1 KZZ         0.0616
     71 H32        11.6576    7.8077   -1.1743 H         1 KZZ         0.0609
     72 H33        11.3377    5.4654   -1.1234 H         1 KZZ         0.0542
     73 H34        10.0083    3.4613   -1.6936 H         1 KZZ         0.0595
     74 H35         7.9011    3.6752   -2.9382 H         1 KZZ         0.0530
@<TRIPOS>BOND
     1    1    2 1  
     2    2    3 1  
     3    3    4 ar 
     4    3    6 ar 
     5    4    5 ar 
     6    5   12 ar 
     7    6    7 ar 
     8    6   11 ar 
     9    7    8 ar 
    10    8    9 ar 
    11    9   10 ar 
    12   10   11 ar 
    13   11   12 ar 
    14   12   13 1  
    15   13   14 1  
    16   14   15 1  
    17   14   17 1  
    18   15   16 1  
    19   16   19 1  
    20   17   18 1  
    21   18   19 2  
    22   18   25 1  
    23   19   20 1  
    24   20   21 1  
    25   20   24 1  
    26   21   22 1  
    27   22   23 1  
    28   24   25 2  
    29   25   26 1  
    30   26   27 2  
    31   26   28 am 
    32   28   29 1  
    33   29   30 1  
    34   30   31 ar 
    35   30   39 ar 
    36   31   32 ar 
    37   31   36 ar 
    38   32   33 ar 
    39   33   34 ar 
    40   34   35 ar 
    41   35   36 ar 
    42   36   37 ar 
    43   37   38 ar 
    44   38   39 ar 
    45    1   40 1  
    46    1   41 1  
    47    1   42 1  
    48    4   43 1  
    49    5   44 1  
    50    7   45 1  
    51    8   46 1  
    52    9   47 1  
    53   10   48 1  
    54   13   49 1  
    55   13   50 1  
    56   14   51 1  
    57   15   52 1  
    58   15   53 1  
    59   16   54 1  
    60   16   55 1  
    61   17   56 1  
    62   17   57 1  
    63   21   58 1  
    64   21   59 1  
    65   22   60 1  
    66   22   61 1  
    67   23   62 1  
    68   23   63 1  
    69   23   64 1  
    70   28   65 1  
    71   29   66 1  
    72   29   67 1  
    73   32   68 1  
    74   33   69 1  
    75   34   70 1  
    76   35   71 1  
    77   37   72 1  
    78   38   73 1  
    79   39   74 1  
@<TRIPOS>SUBSTRUCTURE
     1 KZZ         1

