### 
### Created by X-TOOL on Mon Sep 10 21:13:34 2018
### 

@<TRIPOS>MOLECULE
5n93_ligand
   44    45     1     0     0
SMALL
GAST_HUCK


@<TRIPOS>ATOM
      1 C1          1.6480   36.4300   49.3510 C.ar      1 8QE         0.0375
      2 C2          1.4070   34.0820   48.9950 C.ar      1 8QE        -0.0323
      3 C4          1.0740   34.3040   47.6690 C.ar      1 8QE         0.0680
      4 C6          1.0700   35.5940   47.1730 C.ar      1 8QE        -0.0323
      5 C8         -0.0660   33.1430   45.8270 C.ar      1 8QE         0.1117
      6 C11        -1.7490   32.9020   43.6300 C.ar      1 8QE         0.1418
      7 C13        -1.3940   34.2210   44.2260 C.ar      1 8QE         0.1229
      8 C15        -2.5750   32.7750   42.6790 C.1       1 8QE         0.0729
      9 N24        -3.3700   32.6020   41.8420 N.1       1 8QE        -0.3576
     10 C9         -1.1910   31.7110   44.2710 C.ar      1 8QE         0.0691
     11 N14        -1.4950   30.3580   43.7740 N.pl3     1 8QE        -0.3265
     12 C10        -0.3510   31.8830   45.3490 C.ar      1 8QE         0.0005
     13 N16        -1.9300   35.3290   43.6180 N.pl3     1 8QE        -0.3000
     14 C17        -1.4420   36.6700   43.8990 C.3       1 8QE         0.0431
     15 C20        -1.9450   37.0830   45.2750 C.3       1 8QE        -0.0393
     16 C19        -2.1590   37.4530   42.8000 C.3       1 8QE        -0.0393
     17 C18         0.0490   36.8140   43.7860 C.3       1 8QE        -0.0393
     18 N12        -0.5660   34.2650   45.2570 N.ar      1 8QE        -0.2717
     19 N7          0.8030   33.1390   46.9130 N.pl3     1 8QE        -0.2590
     20 C3          1.6820   35.1400   49.8420 C.ar      1 8QE        -0.0515
     21 C5          1.3400   36.6570   48.0120 C.ar      1 8QE        -0.0515
     22 C21         1.9760   37.5770   50.2600 C.2       1 8QE         0.1937
     23 O22         1.8860   37.4740   51.4710 O.2       1 8QE        -0.3904
     24 N23         2.4180   38.7760   49.6650 N.am      1 8QE        -0.3018
     25 H1          1.4526   33.0671   49.3732 H         1 8QE         0.0550
     26 H2          0.8549   35.7713   46.1254 H         1 8QE         0.0550
     27 H3         -1.0903   29.5345   44.2419 H         1 8QE         0.1796
     28 H4         -2.1123   30.2355   42.9586 H         1 8QE         0.1796
     29 H5          0.0911   31.0163   45.8270 H         1 8QE         0.0425
     30 H6         -2.6993   35.2072   42.9440 H         1 8QE         0.1851
     31 H7         -1.5863   38.0966   45.5075 H         1 8QE         0.0255
     32 H8         -1.5672   36.3782   46.0303 H         1 8QE         0.0255
     33 H9         -3.0449   37.0728   45.2816 H         1 8QE         0.0255
     34 H10        -1.8905   38.5172   42.8733 H         1 8QE         0.0255
     35 H11        -3.2467   37.3402   42.9194 H         1 8QE         0.0255
     36 H12        -1.8559   37.0653   41.8162 H         1 8QE         0.0255
     37 H13         0.3353   37.8516   44.0125 H         1 8QE         0.0255
     38 H14         0.3653   36.5613   42.7632 H         1 8QE         0.0255
     39 H15         0.5381   36.1346   44.4995 H         1 8QE         0.0255
     40 H16         1.2655   32.2571   47.1761 H         1 8QE         0.2164
     41 H17         1.9224   34.9580   50.8832 H         1 8QE         0.0640
     42 H18         1.3122   37.6702   47.6276 H         1 8QE         0.0640
     43 H19         2.6465   39.5636   50.2373 H         1 8QE         0.1805
     44 H20         2.5030   38.8390   48.6706 H         1 8QE         0.1805
@<TRIPOS>BOND
     1   20    1 ar 
     2   21    1 ar 
     3    1   22 1  
     4    3    2 ar 
     5    2   20 ar 
     6    3    4 ar 
     7   19    3 1  
     8    4   21 ar 
     9    5   12 ar 
    10   18    5 ar 
    11    5   19 1  
    12    7    6 ar 
    13    6    8 1  
    14    6   10 ar 
    15    7   13 1  
    16    7   18 ar 
    17    8    9 3  
    18   10   11 1  
    19   10   12 ar 
    20   13   14 1  
    21   14   15 1  
    22   14   16 1  
    23   14   17 1  
    24   22   23 2  
    25   22   24 am 
    26    2   25 1  
    27    4   26 1  
    28   11   27 1  
    29   11   28 1  
    30   12   29 1  
    31   13   30 1  
    32   15   31 1  
    33   15   32 1  
    34   15   33 1  
    35   16   34 1  
    36   16   35 1  
    37   16   36 1  
    38   17   37 1  
    39   17   38 1  
    40   17   39 1  
    41   19   40 1  
    42   20   41 1  
    43   21   42 1  
    44   24   43 1  
    45   24   44 1  
@<TRIPOS>SUBSTRUCTURE
     1 8QE         1

