### 
### Created by X-TOOL on Mon Sep 10 21:13:31 2018
### 

@<TRIPOS>MOLECULE
5n99_ligand
   85    89     1     0     0
SMALL
GAST_HUCK


@<TRIPOS>ATOM
      1 N          72.0670   49.5660   32.7000 N.am      1 ASN        -0.1008
      2 CA         71.1500   50.3880   31.8930 C.3       1 ASN         0.3045
      3 C          69.8380   50.6440   32.6500 C.2       1 ASN         0.2618
      4 O          69.2910   51.7470   32.5960 O.2       1 ASN        -0.3388
      5 CB         70.8390   49.6570   30.5990 C.3       1 ASN         0.1005
      6 CG         72.0170   49.3740   29.7160 C.2       1 ASN         0.1776
      7 OD1        73.1440   49.1740   30.1800 O.2       1 ASN        -0.3973
      8 ND2        71.7740   49.2820   28.4020 N.am      1 ASN        -0.3009
      9 N          69.3520   49.6070   33.3170 N.am      1 GLN        -0.2604
     10 CA         68.3020   49.6780   34.3180 C.3       1 GLN         0.1335
     11 C          68.9300   49.2180   35.6280 C.2       1 GLN         0.2067
     12 O          69.8210   48.3390   35.6380 O.2       1 GLN        -0.3942
     13 CB         67.1350   48.7320   33.9630 C.3       1 GLN         0.0047
     14 CG         66.3760   49.2720   32.7580 C.3       1 GLN         0.0413
     15 CD         64.9950   48.7190   32.5910 C.2       1 GLN         0.1737
     16 OE1        64.1970   48.6290   33.5400 O.2       1 GLN        -0.3973
     17 NE2        64.6600   48.4490   31.3400 N.am      1 GLN        -0.3009
     18 N          68.4460   49.7100   36.7770 N.am      1 DPR        -0.2498
     19 CA         69.0120   49.2150   38.0390 C.3       1 DPR         0.1338
     20 CB         68.1290   49.8380   39.1290 C.3       1 DPR        -0.0104
     21 CG         67.4370   50.9980   38.4660 C.3       1 DPR        -0.0281
     22 CD         67.3750   50.7170   36.9840 C.3       1 DPR         0.0369
     23 C          70.4590   49.6680   38.1820 C.2       1 DPR         0.2042
     24 O          70.7630   50.8490   38.0020 O.2       1 DPR        -0.3944
     25 N          71.3600   48.7020   38.4690 N.am      1 TRP        -0.2627
     26 CA         72.7690   49.0390   38.6250 C.3       1 TRP         0.1352
     27 C          73.4800   49.1100   37.2530 C.2       1 TRP         0.2052
     28 O          74.6930   49.3780   37.2060 O.2       1 TRP        -0.3942
     29 CB         73.4580   47.9990   39.5030 C.3       1 TRP         0.0042
     30 CG         73.1090   48.0710   40.9660 C.2       1 TRP        -0.0418
     31 CD1        71.8860   48.3150   41.5280 C.2       1 TRP         0.0167
     32 CD2        74.0080   47.8150   42.0530 C.ar      1 TRP        -0.0214
     33 NE1        71.9720   48.2050   42.9080 N.pl3     1 TRP        -0.2890
     34 CE2        73.2690   47.9420   43.2530 C.ar      1 TRP         0.0603
     35 CE3        75.3770   47.5230   42.1270 C.ar      1 TRP        -0.0747
     36 CZ2        73.8480   47.7440   44.5200 C.ar      1 TRP        -0.0443
     37 CZ3        75.9560   47.3200   43.3770 C.ar      1 TRP        -0.0792
     38 CH2        75.2000   47.4480   44.5600 C.ar      1 TRP        -0.0768
     39 N          72.7490   48.8690   36.1590 N.am      1 GLN        -0.2635
     40 CA         73.2860   48.9840   34.8060 C.3       1 GLN         0.1347
     41 C          72.3070   49.8560   33.9970 C.2       1 GLN         0.2292
     42 O          71.7830   50.8140   34.5530 O.2       1 GLN        -0.3943
     43 CB         73.5110   47.5880   34.1970 C.3       1 GLN         0.0045
     44 CG         74.5260   46.7650   35.0370 C.3       1 GLN         0.0412
     45 CD         74.7340   45.3770   34.5100 C.2       1 GLN         0.1737
     46 OE1        75.8750   44.9200   34.3400 O.2       1 GLN        -0.3973
     47 NE2        73.6540   44.7020   34.2790 N.am      1 GLN        -0.3009
     48 OXT        72.0900   49.5580   32.8280 O.3       1 GLN        -0.2095
     49 H1         70.1267   50.2696   30.0269 H         1 ASN         0.0542
     50 H2         70.3710   48.6956   30.8574 H         1 ASN         0.0542
     51 H3         72.5233   49.0946   27.7669 H         1 ASN         0.1814
     52 H4         70.8433   49.4007   28.0561 H         1 ASN         0.1814
     53 H5         69.7378   48.7066   33.1157 H         1 GLN         0.1890
     54 H6         67.9298   50.7093   34.4069 H         1 GLN         0.0803
     55 H7         66.4512   48.6587   34.8215 H         1 GLN         0.0337
     56 H8         67.5336   47.7347   33.7255 H         1 GLN         0.0337
     57 H9         66.9534   49.0315   31.8531 H         1 GLN         0.0504
     58 H10        66.2975   50.3641   32.8634 H         1 GLN         0.0504
     59 H11        63.7554   48.0759   31.1340 H         1 GLN         0.1814
     60 H12        65.3114   48.6180   30.6003 H         1 GLN         0.1814
     61 H13        68.9652   48.1169   38.0834 H         1 DPR         0.0802
     62 H14        68.7450   50.1871   39.9708 H         1 DPR         0.0313
     63 H15        67.3921   49.1066   39.4924 H         1 DPR         0.0313
     64 H16        68.0028   51.9238   38.6473 H         1 DPR         0.0287
     65 H17        66.4190   51.1055   38.8687 H         1 DPR         0.0287
     66 H18        66.3928   50.3100   36.7018 H         1 DPR         0.0524
     67 H19        67.5750   51.6289   36.4023 H         1 DPR         0.0524
     68 H20        71.0590   47.7542   38.5745 H         1 TRP         0.1884
     69 H21        72.8431   50.0226   39.1119 H         1 TRP         0.0815
     70 H22        74.5451   48.1350   39.4043 H         1 TRP         0.0397
     71 H23        73.1782   47.0012   39.1340 H         1 TRP         0.0397
     72 H24        70.9803   48.5591   40.9747 H         1 TRP         0.0795
     73 H25        71.1862   48.3052   43.5664 H         1 TRP         0.2216
     74 H26        75.9754   47.4563   41.2256 H         1 TRP         0.0540
     75 H27        73.2598   47.8201   45.4274 H         1 TRP         0.0541
     76 H28        77.0061   47.0590   43.4416 H         1 TRP         0.0510
     77 H29        75.6864   47.3121   45.5192 H         1 TRP         0.0530
     78 H30        71.7931   48.5983   36.2727 H         1 GLN         0.1883
     79 H31        74.2586   49.4962   34.8463 H         1 GLN         0.0801
     80 H32        73.9002   47.7012   33.1744 H         1 GLN         0.0337
     81 H33        72.5515   47.0509   34.1669 H         1 GLN         0.0337
     82 H34        74.1519   46.6955   36.0691 H         1 GLN         0.0504
     83 H35        75.4925   47.2902   35.0319 H         1 GLN         0.0504
     84 H36        73.7138   43.7682   33.9262 H         1 GLN         0.1814
     85 H37        72.7598   45.1143   34.4534 H         1 GLN         0.1814
@<TRIPOS>BOND
     1    1    2 1  
     2    1   41 am 
     3    1   48 1  
     4    2    3 1  
     5    2    5 1  
     6    2   48 1  
     7    3    4 2  
     8    3    9 am 
     9    5    6 1  
    10    6    7 2  
    11    6    8 am 
    12    9   10 1  
    13   10   11 1  
    14   10   13 1  
    15   11   12 2  
    16   11   18 am 
    17   13   14 1  
    18   14   15 1  
    19   15   16 2  
    20   15   17 am 
    21   18   19 1  
    22   18   22 1  
    23   19   20 1  
    24   19   23 1  
    25   20   21 1  
    26   21   22 1  
    27   23   24 2  
    28   23   25 am 
    29   25   26 1  
    30   26   27 1  
    31   26   29 1  
    32   27   28 2  
    33   27   39 am 
    34   29   30 1  
    35   30   31 2  
    36   30   32 1  
    37   31   33 1  
    38   32   34 ar 
    39   32   35 ar 
    40   33   34 1  
    41   34   36 ar 
    42   35   37 ar 
    43   36   38 ar 
    44   37   38 ar 
    45   39   40 1  
    46   40   41 1  
    47   40   43 1  
    48   41   42 2  
    49   43   44 1  
    50   44   45 1  
    51   45   46 2  
    52   45   47 am 
    53    5   49 1  
    54    5   50 1  
    55    8   51 1  
    56    8   52 1  
    57    9   53 1  
    58   10   54 1  
    59   13   55 1  
    60   13   56 1  
    61   14   57 1  
    62   14   58 1  
    63   17   59 1  
    64   17   60 1  
    65   19   61 1  
    66   20   62 1  
    67   20   63 1  
    68   21   64 1  
    69   21   65 1  
    70   22   66 1  
    71   22   67 1  
    72   25   68 1  
    73   26   69 1  
    74   29   70 1  
    75   29   71 1  
    76   31   72 1  
    77   33   73 1  
    78   35   74 1  
    79   36   75 1  
    80   37   76 1  
    81   38   77 1  
    82   39   78 1  
    83   40   79 1  
    84   43   80 1  
    85   43   81 1  
    86   44   82 1  
    87   44   83 1  
    88   47   84 1  
    89   47   85 1  
@<TRIPOS>SUBSTRUCTURE
     1 ASN         1

