### 
### Created by X-TOOL on Wed Jan  1 15:39:35 2020
### 

@<TRIPOS>MOLECULE
5n9k_ligand
   40    43     1     0     0
SMALL
GAST_HUCK


@<TRIPOS>ATOM
      1 CAA       -16.9480   25.4840   46.0870 C.3       1 8QK         0.0594
      2 CAF       -16.9200   18.3640   46.6320 C.2       1 8QK         0.0132
      3 CAG       -17.0930   15.7350   49.2700 C.ar      1 8QK        -0.0316
      4 CAH       -17.0300   21.7860   47.5960 C.ar      1 8QK        -0.0551
      5 CAI       -16.8170   20.7990   45.4060 C.ar      1 8QK        -0.0551
      6 CAJ       -16.9910   23.0530   47.0350 C.ar      1 8QK        -0.0333
      7 CAK       -16.7650   22.0720   44.8430 C.ar      1 8QK        -0.0333
      8 CAL       -16.9540   14.6540   48.4100 C.ar      1 8QK        -0.0634
      9 CAM       -16.4650   14.1320   43.7460 C.ar      1 8QK        -0.0218
     10 CAQ       -17.0910   17.0030   48.7010 C.ar      1 8QK         0.1054
     11 CAR       -16.3930   12.7560   43.6270 C.ar      1 8QK         0.0605
     12 CAS       -16.9350   20.6630   46.7840 C.ar      1 8QK         0.0117
     13 CAT       -16.4720   12.0160   44.7910 C.ar      1 8QK         0.1036
     14 CAU       -16.8520   23.1990   45.6580 C.ar      1 8QK         0.0899
     15 CAV       -16.6290   12.6140   46.0160 C.ar      1 8QK         0.0625
     16 CAW       -16.9780   17.1440   47.3170 C.ar      1 8QK         0.0743
     17 CAX       -16.6200   14.6870   44.9460 C.ar      1 8QK         0.1164
     18 CAY       -16.8350   14.8240   47.0910 C.ar      1 8QK         0.0083
     19 CAZ       -16.8420   16.0550   46.5760 C.ar      1 8QK         0.1373
     20 CBA       -16.6990   13.9550   46.0770 C.ar      1 8QK         0.0123
     21 NAN       -16.9850   19.4740   47.3670 N.2       1 8QK        -0.3145
     22 OAB       -17.2270   18.1180   49.4690 O.3       1 8QK        -0.3264
     23 OAC       -16.3930   10.6590   44.7340 O.3       1 8QK        -0.3384
     24 OAO       -16.8210   24.4450   45.1040 O.3       1 8QK        -0.3217
     25 OAP       -16.7120   15.9510   45.2680 O.3       1 8QK        -0.2562
     26 CL1       -16.1950   12.0250   42.1100 Cl        1 8QK        -0.0823
     27 CL2       -16.6910   11.5590   47.4290 Cl        1 8QK        -0.0845
     28 H1        -16.9171   26.4648   45.5899 H         1 8QK         0.0578
     29 H2        -16.1191   25.4114   46.8065 H         1 8QK         0.0578
     30 H3        -17.9050   25.3718   46.6176 H         1 8QK         0.0578
     31 H4        -16.8260   18.4040   45.5478 H         1 8QK         0.0993
     32 H5        -17.1986   15.5959   50.3398 H         1 8QK         0.0495
     33 H6        -17.1347   21.6715   48.6688 H         1 8QK         0.0580
     34 H7        -16.7658   19.9202   44.7734 H         1 8QK         0.0580
     35 H8        -17.0687   23.9293   47.6683 H         1 8QK         0.0542
     36 H9        -16.6568   22.1861   43.7705 H         1 8QK         0.0542
     37 H10       -16.9418   13.6499   48.8183 H         1 8QK         0.0628
     38 H11       -16.3953   14.7576   42.8635 H         1 8QK         0.0546
     39 H12       -16.4703   18.6793   49.3472 H         1 8QK         0.2532
     40 H13       -15.6479   10.3645   45.2447 H         1 8QK         0.2456
@<TRIPOS>BOND
     1   24    1 1  
     2   16    2 1  
     3    2   21 2  
     4    8    3 ar 
     5    3   10 ar 
     6    4    6 ar 
     7   12    4 ar 
     8    5    7 ar 
     9   12    5 ar 
    10    6   14 ar 
    11    7   14 ar 
    12   18    8 ar 
    13    9   11 ar 
    14   17    9 ar 
    15   16   10 ar 
    16   10   22 1  
    17   13   11 ar 
    18   11   26 1  
    19   21   12 1  
    20   15   13 ar 
    21   13   23 1  
    22   14   24 1  
    23   20   15 ar 
    24   15   27 1  
    25   19   16 ar 
    26   20   17 ar 
    27   17   25 1  
    28   18   19 ar 
    29   18   20 1  
    30   19   25 1  
    31    1   28 1  
    32    1   29 1  
    33    1   30 1  
    34    2   31 1  
    35    3   32 1  
    36    4   33 1  
    37    5   34 1  
    38    6   35 1  
    39    7   36 1  
    40    8   37 1  
    41    9   38 1  
    42   22   39 1  
    43   23   40 1  
@<TRIPOS>SUBSTRUCTURE
     1 8QK         1

