### 
### Created by X-TOOL on Wed Jan  1 15:39:35 2020
### 

@<TRIPOS>MOLECULE
5n9l_ligand
   41    44     1     0     0
SMALL
GAST_HUCK


@<TRIPOS>ATOM
      1 CAA       -15.8220   14.5360   37.6700 C.3       1 8QH        -0.0361
      2 CAF       -16.4200   12.9210   43.4060 C.2       1 8QH         0.0552
      3 CAG       -15.9580   12.4510   38.8960 C.ar      1 8QH        -0.0688
      4 CAH       -16.0610   14.5730   40.0280 C.ar      1 8QH        -0.0688
      5 CAI       -16.0840   11.7710   40.1080 C.ar      1 8QH        -0.0427
      6 CAJ       -16.1880   13.8910   41.2220 C.ar      1 8QH        -0.0427
      7 CAK       -17.0730   16.0060   48.1250 C.ar      1 8QH        -0.0480
      8 CAL       -16.3760   11.7080   46.8160 C.3       1 8QH         0.0197
      9 CAM       -17.1970   12.8350   47.3600 C.3       1 8QH        -0.0228
     10 CAP       -16.5300   11.5280   45.4670 C.2       1 8QH         0.1108
     11 CAQ       -16.5640   12.7310   44.7640 C.2       1 8QH         0.0699
     12 CAR       -15.9480   13.8440   38.8600 C.ar      1 8QH        -0.0564
     13 CAS       -16.9700   17.3950   48.1030 C.ar      1 8QH         0.0828
     14 CAT       -16.1910   12.4970   41.2880 C.ar      1 8QH         0.0623
     15 CAU       -16.6770   18.0540   46.9220 C.ar      1 8QH         0.0678
     16 CAV       -16.4920   17.2940   45.7840 C.ar      1 8QH         0.0738
     17 CAW       -16.8420   14.0170   46.7160 C.2       1 8QH        -0.0344
     18 CAX       -16.6750   13.8980   45.3970 C.2       1 8QH         0.1054
     19 CAY       -16.8850   15.3260   46.9920 C.ar      1 8QH        -0.0216
     20 CAZ       -16.6030   15.9720   45.8500 C.ar      1 8QH         0.1194
     21 NAN       -16.3170   11.9480   42.5010 N.pl3     1 8QH        -0.2665
     22 OAB       -16.3520   10.4390   44.9190 O.2       1 8QH        -0.3997
     23 OAC       -17.1480   18.1750   49.2020 O.3       1 8QH        -0.3411
     24 OAO       -16.4670   15.0900   44.9020 O.3       1 8QH        -0.2732
     25 CL1       -16.5430   19.7640   46.8510 Cl        1 8QH        -0.0863
     26 CL2       -16.1260   18.0560   44.2680 Cl        1 8QH        -0.0792
     27 H1        -15.7429   13.8218   36.8372 H         1 8QH         0.0371
     28 H2        -14.9179   15.1616   37.7036 H         1 8QH         0.0371
     29 H3        -16.7050   15.1752   37.5222 H         1 8QH         0.0371
     30 H4        -16.3879   13.9476   43.0441 H         1 8QH         0.1169
     31 H5        -15.8670   11.8899   37.9730 H         1 8QH         0.0531
     32 H6        -16.0502   15.6568   40.0077 H         1 8QH         0.0531
     33 H7        -16.0983   10.6873   40.1288 H         1 8QH         0.0528
     34 H8        -16.2889   14.4583   42.1402 H         1 8QH         0.0528
     35 H9        -17.3022   15.4855   49.0478 H         1 8QH         0.0421
     36 H10       -16.6728   10.7808   47.3281 H         1 8QH         0.0490
     37 H11       -15.3158   11.9173   47.0216 H         1 8QH         0.0490
     38 H12       -17.0129   12.9356   48.4398 H         1 8QH         0.0368
     39 H13       -18.2637   12.6289   47.1875 H         1 8QH         0.0368
     40 H14       -16.3320   10.9381   42.7029 H         1 8QH         0.2227
     41 H15       -16.3548   18.6703   49.3692 H         1 8QH         0.2448
@<TRIPOS>BOND
     1   12    1 1  
     2   11    2 2  
     3    2   21 1  
     4    5    3 ar 
     5    3   12 ar 
     6    6    4 ar 
     7    4   12 ar 
     8   14    5 ar 
     9   14    6 ar 
    10    7   13 ar 
    11   19    7 ar 
    12    9    8 1  
    13    8   10 1  
    14   17    9 1  
    15   11   10 1  
    16   10   22 2  
    17   18   11 1  
    18   13   15 ar 
    19   13   23 1  
    20   21   14 1  
    21   15   16 ar 
    22   15   25 1  
    23   16   20 ar 
    24   16   26 1  
    25   17   18 2  
    26   17   19 1  
    27   18   24 1  
    28   19   20 ar 
    29   20   24 1  
    30    1   27 1  
    31    1   28 1  
    32    1   29 1  
    33    2   30 1  
    34    3   31 1  
    35    4   32 1  
    36    5   33 1  
    37    6   34 1  
    38    7   35 1  
    39    8   36 1  
    40    8   37 1  
    41    9   38 1  
    42    9   39 1  
    43   21   40 1  
    44   23   41 1  
@<TRIPOS>SUBSTRUCTURE
     1 8QH         1

