### 
### Created by X-TOOL on Wed Jan  1 15:39:35 2020
### 

@<TRIPOS>MOLECULE
5n9n_ligand
   42    45     1     0     0
SMALL
GAST_HUCK


@<TRIPOS>ATOM
      1 CAA       -16.8340   24.2070   43.5340 C.3       1 8QK         0.0571
      2 CAF       -16.7340   18.2510   46.6140 C.2       1 8QK         0.0545
      3 CAG       -17.4240   15.7180   49.0710 C.3       1 8QK         0.0196
      4 CAH       -16.6740   20.5960   45.3840 C.ar      1 8QK        -0.0443
      5 CAI       -17.1390   21.6390   47.5070 C.ar      1 8QK        -0.0443
      6 CAJ       -16.7260   21.8420   44.7640 C.ar      1 8QK        -0.0411
      7 CAK       -17.1830   22.8790   46.8890 C.ar      1 8QK        -0.0411
      8 CAL       -16.5750   14.6570   48.4840 C.3       1 8QK        -0.0229
      9 CAM       -16.4030   14.0440   43.7300 C.ar      1 8QK        -0.0276
     10 CAQ       -17.0520   16.9680   48.6560 C.2       1 8QK         0.1106
     11 CAR       -16.3070   12.6740   43.5930 C.ar      1 8QK         0.0548
     12 CAS       -16.8450   20.5050   46.7640 C.ar      1 8QK         0.0586
     13 CAT       -16.3080   11.9260   44.7510 C.ar      1 8QK         0.0966
     14 CAU       -16.9890   22.9860   45.5170 C.ar      1 8QK         0.0801
     15 CAV       -16.4050   12.5140   45.9980 C.ar      1 8QK         0.0521
     16 CAW       -16.7720   17.0410   47.2880 C.2       1 8QK         0.0697
     17 CAX       -16.4930   14.5780   44.9440 C.ar      1 8QK         0.1056
     18 CAY       -16.6490   14.7060   47.0870 C.2       1 8QK        -0.0343
     19 CAZ       -16.6420   15.9360   46.5560 C.2       1 8QK         0.1051
     20 CBA       -16.4940   13.8460   46.0720 C.ar      1 8QK        -0.0089
     21 NAN       -16.8760   19.3330   47.3740 N.pl3     1 8QK        -0.2686
     22 OAB       -17.2810   17.9760   49.3250 O.2       1 8QK        -0.3999
     23 OAC       -16.2160   10.5740   44.6630 O.3       1 8QK        -0.3401
     24 OAO       -17.0440   24.2260   44.9500 O.3       1 8QK        -0.3279
     25 OAP       -16.5890   15.8320   45.2760 O.3       1 8QK        -0.2738
     26 CL1       -16.1780   11.9500   42.0630 Cl        1 8QK        -0.0869
     27 CL2       -16.4050   11.5180   47.3960 Cl        1 8QK        -0.0912
     28 H1        -16.8907   25.2329   43.1411 H         1 8QK         0.0573
     29 H2        -17.6082   23.5883   43.0567 H         1 8QK         0.0573
     30 H3        -15.8417   23.7853   43.3161 H         1 8QK         0.0573
     31 H4        -16.5972   18.3118   45.5353 H         1 8QK         0.1168
     32 H5        -17.3432   15.6703   50.1670 H         1 8QK         0.0490
     33 H6        -18.4679   15.5419   48.7722 H         1 8QK         0.0490
     34 H7        -16.5014   19.7017   44.7962 H         1 8QK         0.0519
     35 H8        -17.3342   21.5555   48.5700 H         1 8QK         0.0519
     36 H9        -16.5620   21.9226   43.6955 H         1 8QK         0.0518
     37 H10       -17.3696   23.7693   47.4786 H         1 8QK         0.0518
     38 H11       -16.9252   13.6746   48.8335 H         1 8QK         0.0368
     39 H12       -15.5321   14.8081   48.7995 H         1 8QK         0.0368
     40 H13       -16.4050   14.6808   42.8528 H         1 8QK         0.0536
     41 H14       -17.0045   19.2608   48.3934 H         1 8QK         0.2218
     42 H15       -15.4402   10.2797   45.1256 H         1 8QK         0.2453
@<TRIPOS>BOND
     1   24    1 1  
     2   16    2 2  
     3    2   21 1  
     4    8    3 1  
     5    3   10 1  
     6    4    6 ar 
     7   12    4 ar 
     8    5    7 ar 
     9   12    5 ar 
    10    6   14 ar 
    11    7   14 ar 
    12   18    8 1  
    13    9   11 ar 
    14   17    9 ar 
    15   16   10 1  
    16   10   22 2  
    17   13   11 ar 
    18   11   26 1  
    19   21   12 1  
    20   15   13 ar 
    21   13   23 1  
    22   14   24 1  
    23   20   15 ar 
    24   15   27 1  
    25   19   16 1  
    26   20   17 ar 
    27   17   25 1  
    28   18   19 2  
    29   18   20 1  
    30   19   25 1  
    31    1   28 1  
    32    1   29 1  
    33    1   30 1  
    34    2   31 1  
    35    3   32 1  
    36    3   33 1  
    37    4   34 1  
    38    5   35 1  
    39    6   36 1  
    40    7   37 1  
    41    8   38 1  
    42    8   39 1  
    43    9   40 1  
    44   21   41 1  
    45   23   42 1  
@<TRIPOS>SUBSTRUCTURE
     1 8QK         1

