### 
### Created by X-TOOL on Mon Sep 10 21:13:30 2018
### 

@<TRIPOS>MOLECULE
5n9r_ligand
   54    57     1     0     0
SMALL
GAST_HUCK


@<TRIPOS>ATOM
      1 N          33.9110   14.3300   -6.8800 N.2       1 8RN        -0.3061
      2 C          34.6930   13.1220   -8.8790 C.2       1 8RN         0.1113
      3 O          33.1380   11.7510   -9.9050 O.2       1 8RN        -0.4039
      4 O2         26.3190   14.0790  -11.9850 O.2       1 8RN        -0.3967
      5 C12        27.5030   13.9810  -12.2200 C.2       1 8RN         0.1807
      6 C13        27.9440   13.8500  -13.6900 C.3       1 8RN         0.0496
      7 C14        27.8170   12.4130  -14.2680 C.3       1 8RN         0.0066
      8 C21        28.3060   12.4020  -15.7330 C.3       1 8RN        -0.0504
      9 C15        28.5080   11.3650  -13.3840 C.ar      1 8RN        -0.0380
     10 C20        27.7410   10.6900  -12.4380 C.ar      1 8RN        -0.0599
     11 C19        28.3120    9.7500  -11.6010 C.ar      1 8RN        -0.0685
     12 C18        29.6610    9.4530  -11.7000 C.ar      1 8RN        -0.0687
     13 C17        30.4400   10.1160  -12.6350 C.ar      1 8RN        -0.0685
     14 C16        29.8660   11.0670  -13.4600 C.ar      1 8RN        -0.0599
     15 N2         28.3650   13.9300  -11.1430 N.am      1 8RN        -0.2729
     16 C9         29.7470   14.4520  -11.1930 C.3       1 8RN         0.0366
     17 C8         30.6730   13.5630  -10.3450 C.3       1 8RN        -0.0007
     18 C10        27.8730   13.9330   -9.7410 C.3       1 8RN         0.0366
     19 C11        28.6990   12.9820   -8.8510 C.3       1 8RN        -0.0007
     20 C7         30.1870   13.3920   -8.8740 C.3       1 8RN         0.0987
     21 O1         30.3100   14.6750   -8.2550 O.3       1 8RN        -0.3856
     22 C6         31.0530   12.3510   -8.1190 C.3       1 8RN         0.0994
     23 N1         32.4330   12.8670   -8.0400 N.am      1 8RN        -0.1866
     24 C2         32.7340   13.7720   -7.0170 C.2       1 8RN         0.1257
     25 C3         33.3820   12.5150   -9.0030 C.2       1 8RN         0.2333
     26 S          36.0060   12.9600   -9.7780 S.3       1 8RN        -0.0284
     27 C4         36.9800   13.9520   -8.9400 C.2       1 8RN         0.0127
     28 C5         36.2430   14.4800   -7.8780 C.2       1 8RN         0.0209
     29 C1         34.9470   13.9910   -7.8550 C.2       1 8RN         0.0215
     30 BR         36.8550   15.7120   -6.5790 Br        1 8RN        -0.0693
     31 H1         28.9971   14.1592  -13.7630 H         1 8RN         0.0527
     32 H2         27.3213   14.5226  -14.2982 H         1 8RN         0.0527
     33 H3         26.7473   12.1571  -14.2810 H         1 8RN         0.0483
     34 H4         28.2160   11.3848  -16.1419 H         1 8RN         0.0256
     35 H5         29.3582   12.7206  -15.7708 H         1 8RN         0.0256
     36 H6         27.6921   13.0927  -16.3297 H         1 8RN         0.0256
     37 H7         26.6816   10.9047  -12.3569 H         1 8RN         0.0557
     38 H8         27.7008    9.2427  -10.8633 H         1 8RN         0.0599
     39 H9         30.1046    8.7070  -11.0506 H         1 8RN         0.0559
     40 H10        31.4968    9.8900  -12.7198 H         1 8RN         0.0599
     41 H11        30.4855   11.5902  -14.1794 H         1 8RN         0.0557
     42 H12        29.7639   15.4782  -10.7974 H         1 8RN         0.0523
     43 H13        30.0984   14.4550  -12.2354 H         1 8RN         0.0523
     44 H14        31.6752   14.0162  -10.3310 H         1 8RN         0.0313
     45 H15        30.7267   12.5688  -10.8126 H         1 8RN         0.0313
     46 H16        26.8216   13.6097   -9.7303 H         1 8RN         0.0523
     47 H17        27.9469   14.9539   -9.3383 H         1 8RN         0.0523
     48 H18        28.5993   11.9532   -9.2274 H         1 8RN         0.0313
     49 H19        28.3237   13.0326   -7.8182 H         1 8RN         0.0313
     50 H20        31.2216   14.9422   -8.2611 H         1 8RN         0.2103
     51 H21        31.0439   11.3949   -8.6629 H         1 8RN         0.0664
     52 H22        30.6537   12.2000   -7.1052 H         1 8RN         0.0664
     53 H23        31.9533   14.0245   -6.3010 H         1 8RN         0.1484
     54 H24        38.0233   14.1675   -9.1660 H         1 8RN         0.0881
@<TRIPOS>BOND
     1   24    1 2  
     2    1   29 1  
     3    2   25 1  
     4    2   26 1  
     5   29    2 2  
     6   25    3 2  
     7    5    4 2  
     8    5    6 1  
     9   15    5 am 
    10    6    7 1  
    11    7    8 1  
    12    7    9 1  
    13    9   10 ar 
    14    9   14 ar 
    15   10   11 ar 
    16   11   12 ar 
    17   13   12 ar 
    18   14   13 ar 
    19   16   15 1  
    20   18   15 1  
    21   17   16 1  
    22   20   17 1  
    23   19   18 1  
    24   20   19 1  
    25   20   21 1  
    26   22   20 1  
    27   23   22 1  
    28   23   24 1  
    29   23   25 am 
    30   26   27 1  
    31   27   28 2  
    32   28   29 1  
    33   28   30 1  
    34    6   31 1  
    35    6   32 1  
    36    7   33 1  
    37    8   34 1  
    38    8   35 1  
    39    8   36 1  
    40   10   37 1  
    41   11   38 1  
    42   12   39 1  
    43   13   40 1  
    44   14   41 1  
    45   16   42 1  
    46   16   43 1  
    47   17   44 1  
    48   17   45 1  
    49   18   46 1  
    50   18   47 1  
    51   19   48 1  
    52   19   49 1  
    53   21   50 1  
    54   22   51 1  
    55   22   52 1  
    56   24   53 1  
    57   27   54 1  
@<TRIPOS>SUBSTRUCTURE
     1 8RN         1

