### 
### Created by X-TOOL on Mon Sep 10 21:13:32 2018
### 

@<TRIPOS>MOLECULE
5n9s_ligand
   66    70     1     0     0
SMALL
GAST_HUCK


@<TRIPOS>ATOM
      1 C1         36.2710   43.6670   37.0410 C.2       1 8QW         0.1542
      2 C2         37.3930   41.9280   35.8720 C.2       1 8QW        -0.0509
      3 C4         37.6410   41.2630   37.0680 C.2       1 8QW         0.0160
      4 C6         37.1700   41.8330   38.2440 C.2       1 8QW         0.1054
      5 C12        34.5140   45.7430   40.7320 C.ar      1 8QW         0.0903
      6 C13        34.3750   44.8580   42.9930 C.ar      1 8QW        -0.0587
      7 C14        34.5420   44.6670   41.6270 C.ar      1 8QW        -0.0460
      8 C15        34.1110   46.1590   43.4800 C.ar      1 8QW         0.0670
      9 C16        34.2710   47.1110   41.2660 C.ar      1 8QW         0.1153
     10 F40        46.7940   34.6540   35.9290 F         1 8QW        -0.1890
     11 C36        45.5150   34.5540   36.2560 C.ar      1 8QW         0.1252
     12 C38        44.4840   34.7340   35.3140 C.ar      1 8QW        -0.0345
     13 C37        43.1640   34.6030   35.7190 C.ar      1 8QW        -0.0594
     14 C34        45.2600   34.1870   37.5370 C.ar      1 8QW        -0.0345
     15 C35        43.9490   34.0720   37.9380 C.ar      1 8QW        -0.0594
     16 C26        42.8910   34.2500   37.0400 C.ar      1 8QW        -0.0248
     17 C25        41.4810   34.1240   37.4890 C.3       1 8QW         0.0830
     18 C39        41.2430   33.2090   38.7200 C.3       1 8QW        -0.0357
     19 C24        40.9730   35.5270   37.8460 C.2       1 8QW         0.2177
     20 O33        41.3510   36.0550   38.8780 O.2       1 8QW        -0.3814
     21 N23        40.1340   36.1210   36.9900 N.am      1 8QW        -0.2321
     22 C20        39.5700   37.3820   37.1370 C.ar      1 8QW         0.0664
     23 C22        39.7240   38.2600   38.2580 C.ar      1 8QW        -0.0415
     24 C21        39.1160   39.5280   38.2310 C.ar      1 8QW        -0.0696
     25 C10        38.3550   39.9390   37.1270 C.ar      1 8QW        -0.0342
     26 C19        38.2230   39.0600   36.0420 C.ar      1 8QW        -0.0696
     27 C18        38.8470   37.7970   36.0170 C.ar      1 8QW        -0.0415
     28 N5         36.5430   43.0140   38.1840 N.pl3     1 8QW        -0.1448
     29 C3         36.6850   43.1180   35.8500 C.2       1 8QW        -0.0119
     30 N8         35.5700   44.7920   37.3850 N.2       1 8QW        -0.2943
     31 C9         35.4750   44.7050   38.7370 C.2       1 8QW         0.1579
     32 N7         36.0380   43.6040   39.3020 N.2       1 8QW        -0.1784
     33 N11        34.7830   45.6800   39.4000 N.pl3     1 8QW        -0.2635
     34 O31        34.2250   48.1350   40.3560 O.3       1 8QW        -0.3257
     35 C32        34.2440   49.5210   40.6880 C.3       1 8QW         0.0568
     36 C17        34.0630   47.2690   42.6230 C.ar      1 8QW        -0.0182
     37 S27        33.9080   46.4540   45.0510 S.o2      1 8QW        -0.0134
     38 C30        35.3880   46.8460   45.6860 C.3       1 8QW         0.0579
     39 O29        32.9150   47.4730   45.0860 O.2       1 8QW        -0.1713
     40 O28        33.4830   45.3120   45.8280 O.2       1 8QW        -0.1713
     41 H1         37.7614   41.5063   34.9380 H         1 8QW         0.0670
     42 H2         37.3086   41.3275   39.1986 H         1 8QW         0.1246
     43 H3         34.4462   44.0200   43.6770 H         1 8QW         0.0511
     44 H4         34.6972   43.6639   41.2464 H         1 8QW         0.0496
     45 H5         44.7195   34.9725   34.2831 H         1 8QW         0.0587
     46 H6         42.3551   34.7728   35.0177 H         1 8QW         0.0551
     47 H7         46.0707   33.9889   38.2288 H         1 8QW         0.0587
     48 H8         43.7307   33.8381   38.9737 H         1 8QW         0.0551
     49 H9         40.8937   33.7226   36.6500 H         1 8QW         0.0690
     50 H10        41.5979   32.1924   38.4952 H         1 8QW         0.0277
     51 H11        40.1683   33.1791   38.9524 H         1 8QW         0.0277
     52 H12        41.7942   33.6069   39.5847 H         1 8QW         0.0277
     53 H13        39.8897   35.6089   36.1665 H         1 8QW         0.2266
     54 H14        40.3041   37.9500   39.1197 H         1 8QW         0.0504
     55 H15        39.2373   40.1969   39.0753 H         1 8QW         0.0566
     56 H16        37.6202   39.3628   35.1935 H         1 8QW         0.0566
     57 H17        38.7672   37.1592   35.1442 H         1 8QW         0.0504
     58 H18        36.4598   43.6108   34.9053 H         1 8QW         0.0580
     59 H19        34.4242   46.4557   38.8251 H         1 8QW         0.2073
     60 H20        34.1969   50.1195   39.7663 H         1 8QW         0.0573
     61 H21        35.1718   49.7555   41.2303 H         1 8QW         0.0573
     62 H22        33.3780   49.7577   41.3235 H         1 8QW         0.0573
     63 H23        33.8619   48.2546   43.0271 H         1 8QW         0.0524
     64 H24        35.2823   47.0537   46.7610 H         1 8QW         0.0466
     65 H25        35.7806   47.7386   45.1770 H         1 8QW         0.0466
     66 H26        36.0832   46.0059   45.5415 H         1 8QW         0.0466
@<TRIPOS>BOND
     1   28    1 1  
     2    1   29 1  
     3   30    1 2  
     4    3    2 1  
     5   29    2 2  
     6    4    3 2  
     7    3   25 1  
     8   28    4 1  
     9    5    7 ar 
    10    5    9 ar 
    11   33    5 1  
    12    7    6 ar 
    13    6    8 ar 
    14   36    8 ar 
    15    8   37 1  
    16    9   34 1  
    17    9   36 ar 
    18   11   10 1  
    19   12   11 ar 
    20   14   11 ar 
    21   13   12 ar 
    22   16   13 ar 
    23   15   14 ar 
    24   16   15 ar 
    25   17   16 1  
    26   17   18 1  
    27   19   17 1  
    28   19   20 2  
    29   21   19 am 
    30   22   21 1  
    31   23   22 ar 
    32   27   22 ar 
    33   24   23 ar 
    34   25   24 ar 
    35   25   26 ar 
    36   26   27 ar 
    37   32   28 1  
    38   31   30 1  
    39   31   32 2  
    40   31   33 1  
    41   34   35 1  
    42   37   38 1  
    43   37   39 2  
    44   37   40 2  
    45    2   41 1  
    46    4   42 1  
    47    6   43 1  
    48    7   44 1  
    49   12   45 1  
    50   13   46 1  
    51   14   47 1  
    52   15   48 1  
    53   17   49 1  
    54   18   50 1  
    55   18   51 1  
    56   18   52 1  
    57   21   53 1  
    58   23   54 1  
    59   24   55 1  
    60   26   56 1  
    61   27   57 1  
    62   29   58 1  
    63   33   59 1  
    64   35   60 1  
    65   35   61 1  
    66   35   62 1  
    67   36   63 1  
    68   38   64 1  
    69   38   65 1  
    70   38   66 1  
@<TRIPOS>SUBSTRUCTURE
     1 8QW         1

