### 
### Created by X-TOOL on Mon Sep 10 21:13:31 2018
### 

@<TRIPOS>MOLECULE
5n9t_ligand
   73    77     1     0     0
SMALL
GAST_HUCK


@<TRIPOS>ATOM
      1 N          33.7560   14.2340   -6.9230 N.2       1 8QQ        -0.3160
      2 C          34.4450   12.8700   -8.8590 C.2       1 8QQ         0.1311
      3 O          32.7880   11.5670   -9.9060 O.2       1 8QQ        -0.3797
      4 F2         28.0460   11.3930  -16.2310 F         1 8QQ        -0.1681
      5 C17        28.2950   12.6310  -15.7900 C.3       1 8QQ         0.4045
      6 F          29.5600   12.9820  -16.0290 F         1 8QQ        -0.1681
      7 F1         27.5400   13.5410  -16.3810 F         1 8QQ        -0.1681
      8 C15        27.9240   12.6470  -14.2680 C.3       1 8QQ         0.1048
      9 C16        28.6530   11.6140  -13.4290 C.ar      1 8QQ        -0.0292
     10 C28        27.8780   10.8260  -12.5750 C.ar      1 8QQ        -0.0596
     11 C27        28.4660    9.8950  -11.7310 C.ar      1 8QQ        -0.0685
     12 C26        29.8250    9.7060  -11.7240 C.ar      1 8QQ        -0.0687
     13 C25        30.6040   10.4940  -12.5630 C.ar      1 8QQ        -0.0685
     14 C24        30.0350   11.4340  -13.3840 C.ar      1 8QQ        -0.0596
     15 C14        28.1080   14.0780  -13.7490 C.3       1 8QQ         0.0582
     16 C13        27.6010   14.1990  -12.3140 C.2       1 8QQ         0.1810
     17 O1         26.4340   14.0830  -12.1710 O.2       1 8QQ        -0.3967
     18 N4         28.3700   14.4310  -11.2190 N.am      1 8QQ        -0.2729
     19 C10        27.8140   14.4270   -9.8650 C.3       1 8QQ         0.0366
     20 C9         28.5410   13.3400   -9.0800 C.3       1 8QQ        -0.0008
     21 C11        29.8180   14.7130  -11.2240 C.3       1 8QQ         0.0366
     22 C12        30.5990   13.6920  -10.4330 C.3       1 8QQ        -0.0008
     23 C8         30.0510   13.5940   -8.9620 C.3       1 8QQ         0.0979
     24 O2         30.1830   14.8950   -8.3650 O.3       1 8QQ        -0.3856
     25 C7         30.7660   12.4750   -8.1580 C.3       1 8QQ         0.0970
     26 N1         32.1750   12.8390   -8.0710 N.am      1 8QQ        -0.1878
     27 C2         32.5490   13.7650   -7.0840 C.2       1 8QQ         0.1163
     28 C3         33.0950   12.3580   -9.0220 C.2       1 8QQ         0.2495
     29 N2         35.5510   12.6420   -9.5720 N.2       1 8QQ        -0.1917
     30 N3         36.4800   13.3340   -9.0410 N.pl3     1 8QQ        -0.2029
     31 C5         37.8540   13.3350   -9.5830 C.3       1 8QQ         0.0595
     32 C4         36.0630   14.0710   -7.9810 C.2       1 8QQ         0.1002
     33 C1         34.7350   13.7740   -7.8840 C.2       1 8QQ         0.0492
     34 C6         36.8340   15.0230   -7.1070 C.ar      1 8QQ        -0.0008
     35 C22        36.3230   16.2940   -6.8580 C.ar      1 8QQ        -0.0603
     36 C21        37.0100   17.2140   -6.0680 C.ar      1 8QQ        -0.0561
     37 C20        38.2410   16.8550   -5.5170 C.ar      1 8QQ         0.0003
     38 C23        39.0140   17.7810   -4.6160 C.3       1 8QQ        -0.0021
     39 N5         38.5060   17.5060   -3.2510 N.4       1 8QQ         0.2309
     40 C19        38.7740   15.5920   -5.7590 C.ar      1 8QQ        -0.0561
     41 C18        38.0830   14.6990   -6.5470 C.ar      1 8QQ        -0.0603
     42 H1         26.8539   12.4035  -14.1926 H         1 8QQ         0.0574
     43 H2         26.8004   10.9437  -12.5716 H         1 8QQ         0.0557
     44 H3         27.8421    9.3078  -11.0668 H         1 8QQ         0.0599
     45 H4         30.2794    8.9612  -11.0806 H         1 8QQ         0.0559
     46 H5         31.6801   10.3634  -12.5686 H         1 8QQ         0.0599
     47 H6         30.6719   12.0487  -14.0098 H         1 8QQ         0.0557
     48 H7         27.5442   14.7707  -14.3911 H         1 8QQ         0.0530
     49 H8         29.1763   14.3384  -13.7780 H         1 8QQ         0.0530
     50 H9         26.7365   14.2086   -9.9010 H         1 8QQ         0.0523
     51 H10        27.9741   15.4058   -9.3893 H         1 8QQ         0.0523
     52 H11        28.3862   12.3771   -9.5887 H         1 8QQ         0.0313
     53 H12        28.1132   13.2929   -8.0677 H         1 8QQ         0.0313
     54 H13        29.9871   15.7070  -10.7843 H         1 8QQ         0.0523
     55 H14        30.1770   14.7060  -12.2637 H         1 8QQ         0.0523
     56 H15        31.6578   13.9890  -10.4052 H         1 8QQ         0.0313
     57 H16        30.5063   12.7098  -10.9194 H         1 8QQ         0.0313
     58 H17        31.0982   15.1498   -8.3628 H         1 8QQ         0.2103
     59 H18        30.6573   11.5107   -8.6760 H         1 8QQ         0.0654
     60 H19        30.3332   12.4004   -7.1495 H         1 8QQ         0.0654
     61 H20        31.7754   14.1174   -6.4033 H         1 8QQ         0.1422
     62 H21        38.4877   13.9968   -8.9744 H         1 8QQ         0.0601
     63 H22        37.8381   13.6962  -10.6219 H         1 8QQ         0.0601
     64 H23        38.2595   12.3128   -9.5563 H         1 8QQ         0.0601
     65 H24        35.3686   16.5745   -7.2886 H         1 8QQ         0.0590
     66 H25        36.5929   18.1974   -5.8836 H         1 8QQ         0.0557
     67 H26        38.8309   18.8300   -4.8919 H         1 8QQ         0.0979
     68 H27        40.0915   17.5685   -4.6769 H         1 8QQ         0.0979
     69 H28        38.9844   18.0969   -2.5891 H         1 8QQ         0.2008
     70 H29        38.6717   16.5391   -3.0193 H         1 8QQ         0.2008
     71 H30        37.5165   17.6951   -3.2163 H         1 8QQ         0.2008
     72 H31        39.7290   15.3127   -5.3289 H         1 8QQ         0.0557
     73 H32        38.5120   13.7225   -6.7405 H         1 8QQ         0.0590
@<TRIPOS>BOND
     1   27    1 2  
     2    1   33 1  
     3    2   28 1  
     4    2   29 2  
     5   33    2 1  
     6   28    3 2  
     7    5    4 1  
     8    5    6 1  
     9    5    7 1  
    10    8    5 1  
    11    8    9 1  
    12   15    8 1  
    13    9   10 ar 
    14    9   14 ar 
    15   10   11 ar 
    16   11   12 ar 
    17   13   12 ar 
    18   14   13 ar 
    19   16   15 1  
    20   16   17 2  
    21   18   16 am 
    22   19   18 1  
    23   21   18 1  
    24   20   19 1  
    25   23   20 1  
    26   22   21 1  
    27   23   22 1  
    28   23   24 1  
    29   25   23 1  
    30   26   25 1  
    31   26   27 1  
    32   26   28 am 
    33   29   30 1  
    34   30   31 1  
    35   30   32 1  
    36   32   33 2  
    37   32   34 1  
    38   34   35 ar 
    39   34   41 ar 
    40   35   36 ar 
    41   36   37 ar 
    42   37   38 1  
    43   37   40 ar 
    44   38   39 1  
    45   40   41 ar 
    46    8   42 1  
    47   10   43 1  
    48   11   44 1  
    49   12   45 1  
    50   13   46 1  
    51   14   47 1  
    52   15   48 1  
    53   15   49 1  
    54   19   50 1  
    55   19   51 1  
    56   20   52 1  
    57   20   53 1  
    58   21   54 1  
    59   21   55 1  
    60   22   56 1  
    61   22   57 1  
    62   24   58 1  
    63   25   59 1  
    64   25   60 1  
    65   27   61 1  
    66   31   62 1  
    67   31   63 1  
    68   31   64 1  
    69   35   65 1  
    70   36   66 1  
    71   38   67 1  
    72   38   68 1  
    73   39   69 1  
    74   39   70 1  
    75   39   71 1  
    76   40   72 1  
    77   41   73 1  
@<TRIPOS>SUBSTRUCTURE
     1 8QQ         1

