### 
### Created by X-TOOL on Mon Sep 10 21:13:33 2018
### 

@<TRIPOS>MOLECULE
5na0_ligand
  106   111     1     0     0
SMALL
GAST_HUCK


@<TRIPOS>ATOM
      1 O46        32.0350   48.0550   49.0450 O.2       1 8QZ        -0.3943
      2 C45        32.8930   48.3000   48.1920 C.2       1 8QZ         0.2046
      3 C47        34.2760   48.8260   48.6190 C.3       1 8QZ         0.1364
      4 O48        35.0870   47.9720   49.4520 O.3       1 8QZ        -0.3627
      5 C49        36.2280   47.2430   48.9730 C.3       1 8QZ         0.0395
      6 N44        32.5430   48.0790   46.8550 N.am      1 8QZ        -0.2676
      7 C43        33.4300   47.0770   46.2020 C.3       1 8QZ         0.0533
      8 C42        34.4700   47.6890   45.2570 C.3       1 8QZ         0.0451
      9 C51        32.5020   49.3290   46.0590 C.3       1 8QZ         0.0533
     10 C52        32.5040   48.9760   44.5710 C.3       1 8QZ         0.0451
     11 N41        33.8560   48.5090   44.1790 N.pl3     1 8QZ        -0.3127
     12 C40        33.8610   47.9530   42.8600 C.ar      1 8QZ         0.0205
     13 C39        34.0370   46.6090   42.5370 C.ar      1 8QZ        -0.0640
     14 C38        34.0680   46.1650   41.2110 C.ar      1 8QZ        -0.0565
     15 C53        33.7170   48.8540   41.8170 C.ar      1 8QZ        -0.0239
     16 C54        33.7370   48.4580   40.4920 C.ar      1 8QZ         0.1051
     17 O55        33.5790   49.3840   39.5000 O.3       1 8QZ        -0.3278
     18 C56        34.3850   50.5600   39.3990 C.3       1 8QZ         0.0569
     19 C37        33.8920   47.0370   40.1370 C.ar      1 8QZ         0.0838
     20 N36        34.0130   46.7070   38.8070 N.pl3     1 8QZ        -0.2523
     21 C35        34.8090   45.7040   38.3070 C.ar      1 8QZ         0.2016
     22 N1         35.0400   45.6920   36.9660 N.ar      1 8QZ        -0.2545
     23 N34        35.3980   44.7620   39.0830 N.ar      1 8QZ        -0.2214
     24 C4         36.2080   43.8040   38.5680 C.ar      1 8QZ         0.1837
     25 N5         36.6970   42.8740   39.3890 N.pl3     1 8QZ        -0.2067
     26 C33        36.3540   42.8090   40.6530 C.2       1 8QZ         0.0405
     27 C32        37.0070   41.7090   41.1550 C.2       1 8QZ        -0.0623
     28 C9         37.7390   41.0800   40.1560 C.2       1 8QZ         0.0397
     29 C6         37.4760   41.8950   38.9270 C.2       1 8QZ         0.0946
     30 C7         37.9760   41.7650   37.4940 C.2       1 8QZ        -0.0297
     31 C8         37.3040   42.7230   36.4900 C.2       1 8QZ        -0.0480
     32 C3         36.4300   43.8030   37.1050 C.ar      1 8QZ         0.0525
     33 C2         35.8030   44.7770   36.3540 C.ar      1 8QZ         0.0229
     34 C10        38.5750   39.8200   40.2860 C.2       1 8QZ         0.1869
     35 O11        39.2100   39.4890   39.2860 O.2       1 8QZ        -0.4001
     36 N12        38.5200   39.1580   41.5020 N.am      1 8QZ        -0.2668
     37 C13        39.2610   38.0320   41.6930 C.2       1 8QZ         0.0752
     38 C29        40.6660   38.0380   42.1270 C.2       1 8QZ         0.0213
     39 C30        41.3740   39.1370   42.8440 C.3       1 8QZ        -0.0219
     40 C31        41.4920   40.3090   41.9160 C.3       1 8QZ        -0.0573
     41 N28        41.1750   36.8200   41.8520 N.2       1 8QZ        -0.2479
     42 N17        40.1840   36.0720   41.1770 N.pl3     1 8QZ        -0.2259
     43 C14        39.0250   36.7480   41.0080 C.2       1 8QZ         0.0762
     44 C15        37.7530   36.2730   40.3510 C.3       1 8QZ        -0.0036
     45 C16        36.5620   36.8040   41.1270 C.3       1 8QZ        -0.0552
     46 C18        40.6290   34.7040   40.8120 C.3       1 8QZ         0.0846
     47 C19        41.4090   34.5550   39.4850 C.3       1 8QZ         0.0754
     48 O20        42.3040   35.6390   39.1740 O.3       1 8QZ        -0.3748
     49 C21        43.6720   35.5160   39.5940 C.3       1 8QZ         0.0711
     50 C22        44.5500   34.6680   38.6480 C.3       1 8QZ         0.0711
     51 O23        44.7620   35.2560   37.3440 O.3       1 8QZ        -0.3752
     52 C24        43.8820   34.8100   36.2790 C.3       1 8QZ         0.0711
     53 C25        42.8380   35.8590   35.8380 C.3       1 8QZ         0.0706
     54 O26        41.4500   35.5750   36.1500 O.3       1 8QZ        -0.3807
     55 C27        40.5030   36.4220   35.4700 C.3       1 8QZ         0.0365
     56 H1         34.1157   49.7654   49.1683 H         1 8QZ         0.0804
     57 H2         34.8479   49.0305   47.7019 H         1 8QZ         0.0804
     58 H3         36.6709   46.6699   49.8009 H         1 8QZ         0.0526
     59 H4         36.9730   47.9479   48.5753 H         1 8QZ         0.0526
     60 H5         35.9141   46.5529   48.1761 H         1 8QZ         0.0526
     61 H6         32.8019   46.3838   45.6232 H         1 8QZ         0.0541
     62 H7         33.9616   46.5208   46.9882 H         1 8QZ         0.0541
     63 H8         35.0468   46.8747   44.7941 H         1 8QZ         0.0530
     64 H9         35.1452   48.3288   45.8441 H         1 8QZ         0.0530
     65 H10        33.3839   49.9435   46.2928 H         1 8QZ         0.0541
     66 H11        31.5884   49.8910   46.3028 H         1 8QZ         0.0541
     67 H12        32.2378   49.8660   43.9820 H         1 8QZ         0.0530
     68 H13        31.7707   48.1782   44.3818 H         1 8QZ         0.0530
     69 H14        34.1533   45.8865   43.3367 H         1 8QZ         0.0398
     70 H15        34.2337   45.1123   41.0124 H         1 8QZ         0.0476
     71 H16        33.5842   49.9049   42.0475 H         1 8QZ         0.0410
     72 H17        34.0699   51.1464   38.5233 H         1 8QZ         0.0573
     73 H18        35.4408   50.2724   39.2871 H         1 8QZ         0.0573
     74 H19        34.2646   51.1663   40.3088 H         1 8QZ         0.0573
     75 H20        33.4626   47.2559   38.1312 H         1 8QZ         0.2127
     76 H21        35.6911   43.4846   41.1916 H         1 8QZ         0.0809
     77 H22        36.9575   41.3769   42.1910 H         1 8QZ         0.0360
     78 H23        38.7427   41.0559   37.2034 H         1 8QZ         0.0613
     79 H24        37.4454   42.6322   35.4191 H         1 8QZ         0.0599
     80 H25        35.9272   44.8011   35.2774 H         1 8QZ         0.0909
     81 H26        37.9380   39.5062   42.2369 H         1 8QZ         0.2056
     82 H27        42.3766   38.7989   43.1446 H         1 8QZ         0.0394
     83 H28        40.8015   39.4269   43.7374 H         1 8QZ         0.0394
     84 H29        42.0127   41.1314   42.4284 H         1 8QZ         0.0248
     85 H30        40.4874   40.6417   41.6159 H         1 8QZ         0.0248
     86 H31        42.0625   40.0137   41.0231 H         1 8QZ         0.0248
     87 H32        37.7291   35.1733   40.3476 H         1 8QZ         0.0420
     88 H33        37.7127   36.6438   39.3162 H         1 8QZ         0.0420
     89 H34        35.6317   36.4601   40.6514 H         1 8QZ         0.0250
     90 H35        36.5872   37.9037   41.1303 H         1 8QZ         0.0250
     91 H36        36.6036   36.4331   42.1617 H         1 8QZ         0.0250
     92 H37        39.7329   34.0696   40.7442 H         1 8QZ         0.0639
     93 H38        41.2772   34.3378   41.6218 H         1 8QZ         0.0639
     94 H39        40.6773   34.4730   38.6677 H         1 8QZ         0.0587
     95 H40        42.0017   33.6300   39.5408 H         1 8QZ         0.0587
     96 H41        43.6867   35.0488   40.5897 H         1 8QZ         0.0583
     97 H42        44.1061   36.5248   39.6559 H         1 8QZ         0.0583
     98 H43        44.0634   33.6912   38.5101 H         1 8QZ         0.0583
     99 H44        45.5310   34.5250   39.1247 H         1 8QZ         0.0583
    100 H45        43.3456   33.9150   36.6271 H         1 8QZ         0.0583
    101 H46        44.5001   34.5510   35.4067 H         1 8QZ         0.0583
    102 H47        42.9175   35.9684   34.7464 H         1 8QZ         0.0582
    103 H48        43.0991   36.8116   36.3220 H         1 8QZ         0.0582
    104 H49        39.4813   36.1389   35.7632 H         1 8QZ         0.0524
    105 H50        40.6188   36.3024   34.3827 H         1 8QZ         0.0524
    106 H51        40.6859   37.4712   35.7451 H         1 8QZ         0.0524
@<TRIPOS>BOND
     1    1    2 2  
     2    2    3 1  
     3    2    6 am 
     4    3    4 1  
     5    4    5 1  
     6    6    7 1  
     7    6    9 1  
     8    7    8 1  
     9    8   11 1  
    10    9   10 1  
    11   10   11 1  
    12   11   12 1  
    13   12   13 ar 
    14   12   15 ar 
    15   13   14 ar 
    16   14   19 ar 
    17   15   16 ar 
    18   16   17 1  
    19   16   19 ar 
    20   17   18 1  
    21   19   20 1  
    22   20   21 1  
    23   21   22 ar 
    24   21   23 ar 
    25   22   33 ar 
    26   23   24 ar 
    27   24   25 1  
    28   24   32 ar 
    29   25   26 1  
    30   25   29 1  
    31   26   27 2  
    32   27   28 1  
    33   28   29 2  
    34   28   34 1  
    35   29   30 1  
    36   30   31 2  
    37   31   32 1  
    38   32   33 ar 
    39   34   35 2  
    40   34   36 am 
    41   36   37 1  
    42   37   38 1  
    43   37   43 2  
    44   38   39 1  
    45   38   41 2  
    46   39   40 1  
    47   41   42 1  
    48   42   43 1  
    49   42   46 1  
    50   43   44 1  
    51   44   45 1  
    52   46   47 1  
    53   47   48 1  
    54   48   49 1  
    55   49   50 1  
    56   50   51 1  
    57   51   52 1  
    58   52   53 1  
    59   53   54 1  
    60   54   55 1  
    61    3   56 1  
    62    3   57 1  
    63    5   58 1  
    64    5   59 1  
    65    5   60 1  
    66    7   61 1  
    67    7   62 1  
    68    8   63 1  
    69    8   64 1  
    70    9   65 1  
    71    9   66 1  
    72   10   67 1  
    73   10   68 1  
    74   13   69 1  
    75   14   70 1  
    76   15   71 1  
    77   18   72 1  
    78   18   73 1  
    79   18   74 1  
    80   20   75 1  
    81   26   76 1  
    82   27   77 1  
    83   30   78 1  
    84   31   79 1  
    85   33   80 1  
    86   36   81 1  
    87   39   82 1  
    88   39   83 1  
    89   40   84 1  
    90   40   85 1  
    91   40   86 1  
    92   44   87 1  
    93   44   88 1  
    94   45   89 1  
    95   45   90 1  
    96   45   91 1  
    97   46   92 1  
    98   46   93 1  
    99   47   94 1  
   100   47   95 1  
   101   49   96 1  
   102   49   97 1  
   103   50   98 1  
   104   50   99 1  
   105   52  100 1  
   106   52  101 1  
   107   53  102 1  
   108   53  103 1  
   109   55  104 1  
   110   55  105 1  
   111   55  106 1  
@<TRIPOS>SUBSTRUCTURE
     1 8QZ         1

