### 
### Created by X-TOOL on Mon Sep 10 21:13:33 2018
### 

@<TRIPOS>MOLECULE
5nad_ligand
   64    68     1     0     0
SMALL
GAST_HUCK


@<TRIPOS>ATOM
      1 C1         -0.1130   37.3980   45.9350 C.2       1 8RH         0.1956
      2 C2          0.9170   35.9700   47.5120 C.2       1 8RH         0.1109
      3 C3          0.6830   37.2490   47.0390 C.2       1 8RH         0.0223
      4 C8         -0.8640   33.9200   45.2810 C.2       1 8RH         0.1092
      5 C9         -0.3500   32.9010   46.0780 C.2       1 8RH        -0.0100
      6 C11         0.9480   35.0940   49.6750 C.3       1 8RH         0.0358
      7 C12         1.7040   35.0720   50.9840 C.3       1 8RH         0.0629
      8 C13         0.9880   35.8700   52.0500 C.3       1 8RH         0.3920
      9 O18        -0.3980   38.6430   45.5170 O.3       1 8RH        -0.2481
     10 C20        -0.5460   39.3580   41.9570 C.ar      1 8RH         0.1855
     11 F36         0.3460   39.5120   40.9670 F         1 8RH        -0.1937
     12 C22        -1.9770   39.4820   41.7650 C.ar      1 8RH         0.1123
     13 O37        -2.3860   39.7670   40.4890 O.3       1 8RH        -0.3285
     14 C38        -1.5750   40.4850   39.5310 C.3       1 8RH         0.0563
     15 C24        -2.8460   39.3040   42.8620 C.ar      1 8RH        -0.0456
     16 C23        -2.4130   39.0080   44.1470 C.ar      1 8RH        -0.0416
     17 C19        -1.0610   38.8940   44.3580 C.ar      1 8RH         0.1402
     18 C21        -0.1110   39.0660   43.2960 C.ar      1 8RH         0.1896
     19 F35         1.1670   38.9400   43.6370 F         1 8RH        -0.1927
     20 N5         -0.6650   36.3400   45.3150 N.2       1 8RH        -0.1526
     21 N6         -0.4090   35.0720   45.7730 N.pl3     1 8RH        -0.1475
     22 N7          0.4020   33.5030   47.0510 N.2       1 8RH        -0.3232
     23 C4          0.3650   34.8540   46.8430 C.2       1 8RH         0.1922
     24 N10         1.7170   35.8180   48.6580 N.pl3     1 8RH        -0.3095
     25 F16         1.7580   35.8700   53.1300 F         1 8RH        -0.1707
     26 F15        -0.1470   35.2480   52.3250 F         1 8RH        -0.1707
     27 F14         0.7640   37.1030   51.5910 F         1 8RH        -0.1707
     28 C17        -1.7010   33.9490   44.0340 C.ar      1 8RH        -0.0032
     29 C28        -2.0340   32.7460   43.4530 C.ar      1 8RH        -0.0600
     30 C29        -2.7720   32.6660   42.2780 C.ar      1 8RH        -0.0534
     31 C27        -3.1970   33.7960   41.6320 C.ar      1 8RH         0.0452
     32 C25        -2.8340   35.0970   42.2010 C.ar      1 8RH        -0.0312
     33 C30        -3.2440   36.3810   41.5160 C.3       1 8RH        -0.0289
     34 C26        -2.0790   35.1120   43.3730 C.ar      1 8RH        -0.0525
     35 C31        -3.9760   33.7400   40.3770 C.2       1 8RH         0.1962
     36 O33        -5.1560   33.9930   40.3800 O.2       1 8RH        -0.3913
     37 N32        -3.3330   33.4630   39.2150 N.am      1 8RH        -0.2852
     38 C34        -4.2650   33.1200   38.1240 C.3       1 8RH         0.0413
     39 C42        -4.8820   31.7310   38.2120 C.3       1 8RH        -0.0279
     40 C41        -3.7880   32.0310   37.1680 C.3       1 8RH        -0.0279
     41 H1          1.1209   38.1154   47.5324 H         1 8RH         0.0494
     42 H2         -0.5142   31.8319   45.9520 H         1 8RH         0.0558
     43 H3         -0.0202   35.5946   49.8230 H         1 8RH         0.0524
     44 H4          0.7789   34.0614   49.3357 H         1 8RH         0.0524
     45 H5          2.7041   35.5022   50.8266 H         1 8RH         0.0372
     46 H6          1.8021   34.0301   51.3228 H         1 8RH         0.0372
     47 H7         -2.1270   40.5843   38.5847 H         1 8RH         0.0572
     48 H8         -0.6406   39.9322   39.3542 H         1 8RH         0.0572
     49 H9         -1.3405   41.4848   39.9253 H         1 8RH         0.0572
     50 H10        -3.9119   39.4040   42.6917 H         1 8RH         0.0474
     51 H11        -3.1193   38.8712   44.9578 H         1 8RH         0.0484
     52 H12         2.6831   36.1587   48.7654 H         1 8RH         0.1823
     53 H13        -1.7088   31.8281   43.9292 H         1 8RH         0.0536
     54 H14        -3.0151   31.6931   41.8663 H         1 8RH         0.0636
     55 H15        -2.8776   37.2399   42.0974 H         1 8RH         0.0402
     56 H16        -4.3409   36.4259   41.4474 H         1 8RH         0.0402
     57 H17        -2.8118   36.4114   40.5049 H         1 8RH         0.0402
     58 H18        -1.7750   36.0676   43.7847 H         1 8RH         0.0523
     59 H19        -2.3389   33.4885   39.1098 H         1 8RH         0.1843
     60 H20        -4.8360   33.9931   37.7751 H         1 8RH         0.0555
     61 H21        -5.9211   31.5685   37.8897 H         1 8RH         0.0288
     62 H22        -4.6593   31.0829   39.0724 H         1 8RH         0.0288
     63 H23        -2.7832   31.5983   37.2825 H         1 8RH         0.0288
     64 H24        -4.0450   32.0838   36.0998 H         1 8RH         0.0288
@<TRIPOS>BOND
     1    1    3 1  
     2    1    9 1  
     3   20    1 2  
     4    3    2 2  
     5    2   23 1  
     6    2   24 1  
     7    4    5 2  
     8   21    4 1  
     9    4   28 1  
    10    5   22 1  
    11    6    7 1  
    12   24    6 1  
    13    7    8 1  
    14    8   25 1  
    15    8   26 1  
    16    8   27 1  
    17    9   17 1  
    18   10   11 1  
    19   10   12 ar 
    20   18   10 ar 
    21   12   13 1  
    22   15   12 ar 
    23   13   14 1  
    24   16   15 ar 
    25   17   16 ar 
    26   17   18 ar 
    27   18   19 1  
    28   20   21 1  
    29   21   23 1  
    30   22   23 2  
    31   28   29 ar 
    32   28   34 ar 
    33   29   30 ar 
    34   30   31 ar 
    35   31   32 ar 
    36   31   35 1  
    37   32   33 1  
    38   32   34 ar 
    39   35   36 2  
    40   35   37 am 
    41   37   38 1  
    42   38   39 1  
    43   38   40 1  
    44   39   40 1  
    45    3   41 1  
    46    5   42 1  
    47    6   43 1  
    48    6   44 1  
    49    7   45 1  
    50    7   46 1  
    51   14   47 1  
    52   14   48 1  
    53   14   49 1  
    54   15   50 1  
    55   16   51 1  
    56   24   52 1  
    57   29   53 1  
    58   30   54 1  
    59   33   55 1  
    60   33   56 1  
    61   33   57 1  
    62   34   58 1  
    63   37   59 1  
    64   38   60 1  
    65   39   61 1  
    66   39   62 1  
    67   40   63 1  
    68   40   64 1  
@<TRIPOS>SUBSTRUCTURE
     1 8RH         1

