### 
### Created by X-TOOL on Mon Sep 10 21:13:30 2018
### 

@<TRIPOS>MOLECULE
5nai_ligand
   44    47     1     0     0
SMALL
GAST_HUCK


@<TRIPOS>ATOM
      1 C24        15.8760  -13.4310   18.2960 C.2       1 93W         0.0166
      2 C19        17.3110  -15.3470   17.3060 C.3       1 93W        -0.0014
      3 C20        16.3800  -14.1400   17.2240 C.2       1 93W        -0.0424
      4 C21        15.8310  -13.5300   16.0760 C.ar      1 93W        -0.0214
      5 C16        19.1810  -14.0480   18.4190 C.2       1 93W         0.0612
      6 O11        22.1480  -16.3070   13.4430 O.3       1 93W        -0.3160
      7 C12        20.2830  -15.1500   15.3140 C.2       1 93W         0.2105
      8 C10        21.1880  -15.4390   12.9710 C.ar      1 93W         0.1430
      9 C01        20.9970  -14.5680    8.8780 C.ar      1 93W        -0.0571
     10 C02        21.9540  -15.4660    9.3180 C.ar      1 93W        -0.0567
     11 C03        22.0380  -15.7700   10.6700 C.ar      1 93W        -0.0441
     12 C04        21.1540  -15.1530   11.5940 C.ar      1 93W         0.0383
     13 C05        20.2050  -14.2700   11.1600 C.ar      1 93W         0.0220
     14 C06        20.1270  -13.9720    9.7820 C.ar      1 93W        -0.0475
     15 C07        19.3370  -13.6820   12.1150 C.ar      1 93W         0.1160
     16 N08        19.4100  -13.9700   13.3990 N.ar      1 93W        -0.2813
     17 C09        20.3330  -14.7980   13.8480 C.ar      1 93W         0.1403
     18 O13        21.0370  -15.9050   15.8380 O.2       1 93W        -0.3909
     19 N14        19.1120  -14.6340   15.9800 N.am      1 93W        -0.2713
     20 C15        18.8160  -15.0330   17.3210 C.3       1 93W         0.0978
     21 O17        18.9310  -14.3840   19.5980 O.co2     1 93W        -0.5665
     22 O18        19.7340  -12.9540   18.1760 O.co2     1 93W        -0.5665
     23 C22        15.0390  -12.4820   16.5240 C.ar      1 93W         0.0603
     24 N23        15.0970  -12.4520   17.8650 N.pl3     1 93W        -0.2891
     25 C25        14.3530  -11.6510   15.6220 C.ar      1 93W        -0.0443
     26 C26        14.4700  -11.8940   14.2700 C.ar      1 93W        -0.0768
     27 C27        15.2620  -12.9490   13.8130 C.ar      1 93W        -0.0792
     28 C28        15.9500  -13.7710   14.6960 C.ar      1 93W        -0.0747
     29 CL1        18.1060  -12.5210   11.6170 Cl        1 93W        -0.0455
     30 H1         16.0883  -13.6458   19.3423 H         1 93W         0.0795
     31 H2         17.1090  -15.9885   16.4355 H         1 93W         0.0390
     32 H3         17.0717  -15.8954   18.2290 H         1 93W         0.0390
     33 H4         22.0507  -16.4044   14.3830 H         1 93W         0.2571
     34 H5         20.9262  -14.3288    7.8231 H         1 93W         0.0646
     35 H6         22.6335  -15.9289    8.6115 H         1 93W         0.0632
     36 H7         22.7792  -16.4791   11.0205 H         1 93W         0.0661
     37 H8         19.3807  -13.2711    9.4260 H         1 93W         0.0641
     38 H9         18.5066  -13.9966   15.5034 H         1 93W         0.1864
     39 H10        19.3722  -15.9584   17.5313 H         1 93W         0.0740
     40 H11        14.6101  -11.7717   18.4658 H         1 93W         0.2216
     41 H12        13.7416  -10.8321   15.9835 H         1 93W         0.0541
     42 H13        13.9458  -11.2644   13.5601 H         1 93W         0.0530
     43 H14        15.3416  -13.1302   12.7472 H         1 93W         0.0510
     44 H15        16.5670  -14.5829   14.3282 H         1 93W         0.0540
@<TRIPOS>BOND
     1    3    1 2  
     2    1   24 1  
     3    2    3 1  
     4   20    2 1  
     5    3    4 1  
     6    4   23 ar 
     7    4   28 ar 
     8   20    5 1  
     9    5   21 ar 
    10    5   22 ar 
    11    8    6 1  
    12    7   17 1  
    13    7   18 2  
    14   19    7 am 
    15    8   12 ar 
    16   17    8 ar 
    17   10    9 ar 
    18   14    9 ar 
    19   11   10 ar 
    20   12   11 ar 
    21   12   13 ar 
    22   13   14 ar 
    23   15   13 ar 
    24   16   15 ar 
    25   15   29 1  
    26   17   16 ar 
    27   19   20 1  
    28   23   24 1  
    29   23   25 ar 
    30   25   26 ar 
    31   26   27 ar 
    32   27   28 ar 
    33    1   30 1  
    34    2   31 1  
    35    2   32 1  
    36    6   33 1  
    37    9   34 1  
    38   10   35 1  
    39   11   36 1  
    40   14   37 1  
    41   19   38 1  
    42   20   39 1  
    43   24   40 1  
    44   25   41 1  
    45   26   42 1  
    46   27   43 1  
    47   28   44 1  
@<TRIPOS>SUBSTRUCTURE
     1 93W         1

