### 
### Created by X-TOOL on Wed Jan  1 15:39:35 2020
### 

@<TRIPOS>MOLECULE
5nap_ligand
   56    59     1     0     0
SMALL
GAST_HUCK


@<TRIPOS>ATOM
      1 OAC       167.2470   26.8000  183.8860 O.2       1 DZ7        -0.3348
      2 CAU       167.1890   28.0300  184.0320 C.2       1 DZ7         0.1649
      3 CAZ       166.1980   28.7380  184.6740 C.ar      1 DZ7         0.0163
      4 CAK       165.1080   28.2450  185.2680 C.ar      1 DZ7        -0.0250
      5 CAY       164.1810   29.0810  185.8780 C.ar      1 DZ7         0.1249
      6 OAS       163.0100   28.7200  186.5230 O.3       1 DZ7        -0.3239
      7 CAB       162.5790   27.3420  186.3880 C.3       1 DZ7         0.0571
      8 CAX       164.4660   30.4120  185.8730 C.ar      1 DZ7         0.1237
      9 OAR       163.4770   31.0830  186.4780 O.3       1 DZ7        -0.3223
     10 CAA       163.6510   32.5040  186.5190 C.3       1 DZ7         0.0579
     11 CAJ       165.6400   30.9100  185.2170 C.ar      1 DZ7        -0.0333
     12 CAW       166.4990   30.0710  184.5980 C.ar      1 DZ7        -0.0407
     13 CAP       167.7090   30.1910  183.9360 C.2       1 DZ7        -0.0625
     14 CAT       168.1240   28.8920  183.5930 C.2       1 DZ7         0.0073
     15 CAD       169.2800   28.5480  182.9430 C.3       1 DZ7        -0.0122
     16 CBA       170.4850   29.3000  182.3290 C.3       1 DZ7        -0.0217
     17 CAM       170.5700   28.8190  180.8560 C.3       1 DZ7        -0.0076
     18 CAO       171.8650   29.2160  180.2700 C.3       1 DZ7        -0.0301
     19 CAL       170.4940   30.7760  182.4070 C.3       1 DZ7        -0.0076
     20 CAN       171.8230   31.1850  181.7310 C.3       1 DZ7        -0.0301
     21 NBB       171.9240   30.7020  180.3100 N.4       1 DZ7         0.2472
     22 CAQ       173.1110   31.2850  179.5820 C.3       1 DZ7         0.0019
     23 CAV       173.1090   30.9590  178.1690 C.ar      1 DZ7         0.0014
     24 CAH       172.2730   31.7050  177.3020 C.ar      1 DZ7        -0.0553
     25 CAF       172.1920   31.4350  175.9260 C.ar      1 DZ7        -0.0684
     26 CAE       172.9510   30.3760  175.4230 C.ar      1 DZ7        -0.0687
     27 CAG       173.8060   29.6560  176.2800 C.ar      1 DZ7        -0.0684
     28 CAI       173.8900   29.9310  177.6460 C.ar      1 DZ7        -0.0553
     29 H1        164.9437   27.1735  185.2743 H         1 DZ7         0.0578
     30 H2        161.6426   27.1944  186.9460 H         1 DZ7         0.0573
     31 H3        163.3548   26.6740  186.7905 H         1 DZ7         0.0573
     32 H4        162.4126   27.1123  185.3252 H         1 DZ7         0.0573
     33 H5        162.7934   32.9637  187.0319 H         1 DZ7         0.0575
     34 H6        163.7172   32.8951  185.4930 H         1 DZ7         0.0575
     35 H7        164.5759   32.7446  187.0636 H         1 DZ7         0.0575
     36 H8        165.8411   31.9752  185.2179 H         1 DZ7         0.0522
     37 H9        168.2397   31.1174  183.7213 H         1 DZ7         0.0482
     38 H10       168.9061   27.9639  182.0892 H         1 DZ7         0.0435
     39 H11       169.7650   27.8738  183.6643 H         1 DZ7         0.0435
     40 H12       171.3855   28.9602  182.8615 H         1 DZ7         0.0328
     41 H13       169.7531   29.2737  180.2764 H         1 DZ7         0.0321
     42 H14       170.4763   27.7235  180.8244 H         1 DZ7         0.0321
     43 H15       171.9331   28.8633  179.2303 H         1 DZ7         0.0815
     44 H16       172.6918   28.7894  180.8569 H         1 DZ7         0.0815
     45 H17       170.4701   31.1112  183.4544 H         1 DZ7         0.0321
     46 H18       169.6350   31.2002  181.8665 H         1 DZ7         0.0321
     47 H19       172.6570   30.7586  182.3077 H         1 DZ7         0.0815
     48 H20       171.8971   32.2825  181.7357 H         1 DZ7         0.0815
     49 H21       171.1053   31.0374  179.8270 H         1 DZ7         0.2048
     50 H22       174.0321   30.8888  180.0344 H         1 DZ7         0.0980
     51 H23       173.0899   32.3793  179.6918 H         1 DZ7         0.0980
     52 H24       171.6762   32.5107  177.7141 H         1 DZ7         0.0558
     53 H25       171.5607   32.0294  175.2754 H         1 DZ7         0.0599
     54 H26       172.8822   30.1086  174.3747 H         1 DZ7         0.0559
     55 H27       174.4182   28.8632  175.8657 H         1 DZ7         0.0599
     56 H28       174.5494   29.3565  178.2865 H         1 DZ7         0.0558
@<TRIPOS>BOND
     1    1    2 2  
     2    2    3 1  
     3    2   14 1  
     4    3    4 ar 
     5    3   12 ar 
     6    4    5 ar 
     7    5    6 1  
     8    5    8 ar 
     9    6    7 1  
    10    8    9 1  
    11    8   11 ar 
    12    9   10 1  
    13   11   12 ar 
    14   12   13 1  
    15   13   14 2  
    16   14   15 1  
    17   15   16 1  
    18   16   17 1  
    19   16   19 1  
    20   17   18 1  
    21   18   21 1  
    22   19   20 1  
    23   20   21 1  
    24   21   22 1  
    25   22   23 1  
    26   23   24 ar 
    27   23   28 ar 
    28   24   25 ar 
    29   25   26 ar 
    30   26   27 ar 
    31   27   28 ar 
    32    4   29 1  
    33    7   30 1  
    34    7   31 1  
    35    7   32 1  
    36   10   33 1  
    37   10   34 1  
    38   10   35 1  
    39   11   36 1  
    40   13   37 1  
    41   15   38 1  
    42   15   39 1  
    43   16   40 1  
    44   17   41 1  
    45   17   42 1  
    46   18   43 1  
    47   18   44 1  
    48   19   45 1  
    49   19   46 1  
    50   20   47 1  
    51   20   48 1  
    52   21   49 1  
    53   22   50 1  
    54   22   51 1  
    55   24   52 1  
    56   25   53 1  
    57   26   54 1  
    58   27   55 1  
    59   28   56 1  
@<TRIPOS>SUBSTRUCTURE
     1 DZ7         1

