### 
### Created by X-TOOL on Mon Sep 10 21:13:31 2018
### 

@<TRIPOS>MOLECULE
5nar_ligand
   54    57     1     0     0
SMALL
GAST_HUCK


@<TRIPOS>ATOM
      1 C4          2.0420  -12.4620   -4.1230 C.3       1 8RW        -0.0283
      2 C14        -4.6910   -6.1620   -4.0570 C.ar      1 8RW        -0.0792
      3 C5          1.2560  -11.2240   -3.7950 C.3       1 8RW         0.0375
      4 C6         -0.6380  -10.3360   -5.2420 C.2       1 8RW         0.2808
      5 C11        -2.3710   -7.5440   -4.7650 C.ar      1 8RW         0.0032
      6 C7         -1.1750   -8.0090   -5.3440 C.2       1 8RW         0.0611
      7 C8         -0.9320   -7.2190   -6.3670 C.2       1 8RW         0.0611
      8 C9         -2.0320   -5.2490   -7.5580 C.2       1 8RW         0.3224
      9 C10        -2.8710   -6.4880   -5.5410 C.ar      1 8RW         0.0901
     10 C12        -3.1150   -7.9480   -3.6530 C.ar      1 8RW        -0.0759
     11 C13        -4.2710   -7.2510   -3.3290 C.ar      1 8RW        -0.0818
     12 N1          0.1200  -11.3240   -4.7070 N.am      1 8RW        -0.2342
     13 N2         -0.3930   -9.1030   -4.9290 N.am      1 8RW        -0.2435
     14 C3          1.0520  -13.4870   -4.4230 C.3       1 8RW        -0.0101
     15 N3         -1.9580   -6.2740   -6.5400 N.am      1 8RW        -0.1802
     16 O1         -2.0130  -12.7650   -3.5680 O.2       1 8RW        -0.3823
     17 C1         -1.4770  -13.2340   -4.5400 C.2       1 8RW         0.2290
     18 C2         -0.1330  -12.7270   -4.9500 C.3       1 8RW         0.1401
     19 N4         -0.9110   -5.1000   -8.2630 N.am      1 8RW        -0.2735
     20 O2         -3.0380   -4.6330   -7.7450 O.2       1 8RW        -0.3726
     21 C15        -4.0290   -5.7970   -5.2230 C.ar      1 8RW        -0.0421
     22 O3         -1.5480  -10.5750   -6.0320 O.2       1 8RW        -0.3947
     23 N5         -2.0230  -14.2150   -5.2770 N.am      1 8RW        -0.2345
     24 C16        -3.2440  -14.8070   -5.0980 C.ar      1 8RW         0.0571
     25 C17        -3.6480  -15.2010   -3.8290 C.ar      1 8RW        -0.0523
     26 C18        -4.8480  -15.8980   -3.6860 C.ar      1 8RW        -0.0837
     27 C19        -5.6040  -16.2270   -4.8000 C.ar      1 8RW        -0.0481
     28 C20        -5.1450  -15.8380   -6.0540 C.ar      1 8RW         0.0869
     29 O4         -5.8630  -16.1940   -7.2010 O.3       1 8RW        -0.2297
     30 C21        -6.7440  -15.3040   -7.6280 C.3       1 8RW         0.5462
     31 F1         -7.5080  -14.9150   -6.6540 F         1 8RW        -0.1400
     32 F2         -7.5190  -15.7160   -8.5890 F         1 8RW        -0.1400
     33 F3         -6.1370  -14.2170   -8.0240 F         1 8RW        -0.1400
     34 C22        -3.9430  -15.1730   -6.2080 C.ar      1 8RW        -0.0138
     35 H1          2.6589  -12.7640   -3.2638 H         1 8RW         0.0287
     36 H2          2.6889  -12.2862   -4.9951 H         1 8RW         0.0287
     37 H3         -5.5440   -5.5848   -3.7189 H         1 8RW         0.0516
     38 H4          1.8445  -10.3154   -3.9903 H         1 8RW         0.0521
     39 H5          0.9257  -11.2285   -2.7458 H         1 8RW         0.0521
     40 H6         -0.0483   -7.2882   -6.9996 H         1 8RW         0.0693
     41 H7         -2.7945   -8.7921   -3.0531 H         1 8RW         0.0537
     42 H8         -4.8596   -7.5741   -2.4780 H         1 8RW         0.0490
     43 H9          0.4041   -8.9163   -4.3548 H         1 8RW         0.2116
     44 H10         0.7826  -14.0446   -3.5139 H         1 8RW         0.0313
     45 H11         1.4340  -14.1856   -5.1820 H         1 8RW         0.0313
     46 H12        -0.1154  -12.8550   -6.0424 H         1 8RW         0.0805
     47 H13        -0.8650   -4.4151   -8.9902 H         1 8RW         0.1830
     48 H14        -0.1158   -5.6731   -8.0648 H         1 8RW         0.1830
     49 H15        -4.4038   -5.0030   -5.8587 H         1 8RW         0.0534
     50 H16        -1.4754  -14.5510   -6.0434 H         1 8RW         0.2255
     51 H17        -3.0396  -14.9702   -2.9620 H         1 8RW         0.0414
     52 H18        -5.1910  -16.1838   -2.6982 H         1 8RW         0.0551
     53 H19        -6.5331  -16.7757   -4.6962 H         1 8RW         0.0418
     54 H20        -3.5625  -14.9462   -7.1974 H         1 8RW         0.0419
@<TRIPOS>BOND
     1    1    3 1  
     2   14    1 1  
     3   11    2 ar 
     4   21    2 ar 
     5   12    3 1  
     6   12    4 am 
     7    4   13 am 
     8    4   22 2  
     9    6    5 1  
    10    5    9 ar 
    11    5   10 ar 
    12    6    7 2  
    13   13    6 1  
    14    7   15 1  
    15   15    8 am 
    16    8   19 am 
    17    8   20 2  
    18   15    9 1  
    19    9   21 ar 
    20   10   11 ar 
    21   18   12 1  
    22   18   14 1  
    23   17   16 2  
    24   17   18 1  
    25   17   23 am 
    26   23   24 1  
    27   24   25 ar 
    28   24   34 ar 
    29   25   26 ar 
    30   26   27 ar 
    31   27   28 ar 
    32   28   29 1  
    33   28   34 ar 
    34   29   30 1  
    35   30   31 1  
    36   30   32 1  
    37   30   33 1  
    38    1   35 1  
    39    1   36 1  
    40    2   37 1  
    41    3   38 1  
    42    3   39 1  
    43    7   40 1  
    44   10   41 1  
    45   11   42 1  
    46   13   43 1  
    47   14   44 1  
    48   14   45 1  
    49   18   46 1  
    50   19   47 1  
    51   19   48 1  
    52   21   49 1  
    53   23   50 1  
    54   25   51 1  
    55   26   52 1  
    56   27   53 1  
    57   34   54 1  
@<TRIPOS>SUBSTRUCTURE
     1 8RW         1

