### 
### Created by X-TOOL on Mon Aug  2 16:12:09 2021
### 

@<TRIPOS>MOLECULE
5nat_ligand
   53    56     1     0     0
SMALL
GAST_HUCK


@<TRIPOS>ATOM
      1 C2          7.4340   -9.8460   10.5760 C.3       1 MOL         0.5462
      2 C41         0.4210   -8.4030    4.7250 C.ar      1 MOL         0.0036
      3 C42         0.7850   -9.7140    4.3860 C.ar      1 MOL        -0.0727
      4 C44         1.5540   -9.9100    3.2250 C.ar      1 MOL        -0.0793
      5 C46         1.9400   -8.8290    2.4150 C.ar      1 MOL        -0.0771
      6 C48         1.5850   -7.5200    2.7650 C.ar      1 MOL        -0.0451
      7 C50         0.5610   -4.8680    3.8880 C.3       1 MOL         0.0336
      8 C12         4.6100  -13.3560   10.2550 C.ar      1 MOL        -0.0837
      9 C14         5.7420  -12.6570   10.6620 C.ar      1 MOL        -0.0481
     10 C18         1.0400  -10.7910    9.8960 C.2       1 MOL         0.2290
     11 C20        -0.1940   -9.9690   10.1970 C.3       1 MOL         0.1401
     12 C23        -2.2250  -10.2500    8.8190 C.3       1 MOL         0.0376
     13 C26        -2.5750  -10.4620   10.3070 C.3       1 MOL        -0.0283
     14 C29        -1.2210  -10.8470   10.9490 C.3       1 MOL        -0.0101
     15 F1          8.4780   -9.3010   11.2470 F         1 MOL        -0.1400
     16 F3          7.8430  -10.6290    9.5320 F         1 MOL        -0.1400
     17 F4          6.6310   -8.8500   10.1390 F         1 MOL        -0.1400
     18 O5          6.7410  -10.6270   11.5270 O.3       1 MOL        -0.2297
     19 C6          5.6310  -11.3430   11.1110 C.ar      1 MOL         0.0869
     20 C7          4.3980  -10.7020   11.1490 C.ar      1 MOL        -0.0138
     21 C9          3.2710  -11.3850   10.7260 C.ar      1 MOL         0.0571
     22 C10         3.3690  -12.7170   10.2830 C.ar      1 MOL        -0.0523
     23 N16         2.0360  -10.6990   10.7960 N.am      1 MOL        -0.2345
     24 O19         1.0950  -11.4770    8.8760 O.2       1 MOL        -0.3823
     25 N22        -0.9080   -9.6440    8.9740 N.am      1 MOL        -0.2340
     26 C32        -0.3240   -8.8460    8.0280 C.2       1 MOL         0.2817
     27 O33         0.7780   -8.3800    8.2810 O.2       1 MOL        -0.3943
     28 N34        -0.9180   -8.4750    6.8530 N.am      1 MOL        -0.2411
     29 C36        -0.3640   -7.7410    5.8360 C.2       1 MOL         0.0612
     30 C37        -0.3400   -6.4220    5.5860 C.2       1 MOL         0.0302
     31 N39         0.3500   -6.1940    4.4770 N.pl3     1 MOL        -0.2868
     32 C40         0.8100   -7.3370    3.9290 C.ar      1 MOL         0.0604
     33 H1          0.4821  -10.5531    5.0017 H         1 MOL         0.0547
     34 H2          1.8547  -10.9145    2.9498 H         1 MOL         0.0504
     35 H3          2.5157   -9.0089    1.5143 H         1 MOL         0.0531
     36 H4          1.8958   -6.6753    2.1609 H         1 MOL         0.0538
     37 H5          0.0893   -4.1048    4.5245 H         1 MOL         0.0551
     38 H6          0.1119   -4.8369    2.8843 H         1 MOL         0.0551
     39 H7          1.6400   -4.6674    3.8134 H         1 MOL         0.0551
     40 H8          4.6906  -14.3839    9.9203 H         1 MOL         0.0551
     41 H9          6.7136  -13.1365   10.6296 H         1 MOL         0.0418
     42 H10         0.0753   -9.0666   10.7655 H         1 MOL         0.0805
     43 H11        -2.9342   -9.5719    8.3218 H         1 MOL         0.0521
     44 H12        -2.1784  -11.2006    8.2675 H         1 MOL         0.0521
     45 H13        -3.3101  -11.2716   10.4259 H         1 MOL         0.0287
     46 H14        -2.9720   -9.5379   10.7525 H         1 MOL         0.0287
     47 H15        -1.2185  -10.6187   12.0250 H         1 MOL         0.0313
     48 H16        -1.0065  -11.9156   10.8003 H         1 MOL         0.0313
     49 H17         4.3203   -9.6811   11.5051 H         1 MOL         0.0419
     50 H18         2.4796  -13.2477    9.9630 H         1 MOL         0.0414
     51 H19         1.8910  -10.0952   11.5798 H         1 MOL         0.2255
     52 H20        -1.8634   -8.7729    6.7208 H         1 MOL         0.2126
     53 H21        -0.8142   -5.6574    6.1995 H         1 MOL         0.0652
@<TRIPOS>BOND
     1    1   15 1  
     2    1   16 1  
     3    1   17 1  
     4   18    1 1  
     5    2    3 ar 
     6   29    2 1  
     7    2   32 ar 
     8    3    4 ar 
     9    4    5 ar 
    10    6    5 ar 
    11   32    6 ar 
    12   31    7 1  
    13    8    9 ar 
    14   22    8 ar 
    15   19    9 ar 
    16   11   10 1  
    17   10   23 am 
    18   10   24 2  
    19   11   14 1  
    20   25   11 1  
    21   12   13 1  
    22   25   12 1  
    23   13   14 1  
    24   19   18 1  
    25   20   19 ar 
    26   21   20 ar 
    27   21   22 ar 
    28   23   21 1  
    29   26   25 am 
    30   26   27 2  
    31   28   26 am 
    32   29   28 1  
    33   30   29 2  
    34   30   31 1  
    35   31   32 1  
    36    3   33 1  
    37    4   34 1  
    38    5   35 1  
    39    6   36 1  
    40    7   37 1  
    41    7   38 1  
    42    7   39 1  
    43    8   40 1  
    44    9   41 1  
    45   11   42 1  
    46   12   43 1  
    47   12   44 1  
    48   13   45 1  
    49   13   46 1  
    50   14   47 1  
    51   14   48 1  
    52   20   49 1  
    53   22   50 1  
    54   23   51 1  
    55   28   52 1  
    56   30   53 1  
@<TRIPOS>SUBSTRUCTURE
     1 MOL         1

