### 
### Created by X-TOOL on Wed Jan  1 15:39:36 2020
### 

@<TRIPOS>MOLECULE
5nau_ligand
   52    55     1     0     0
SMALL
GAST_HUCK


@<TRIPOS>ATOM
      1 OAC       111.7250  123.6330  183.7230 O.2       1 DZ0        -0.3325
      2 CAU       111.7780  124.8350  183.7770 C.2       1 DZ0         0.1710
      3 CAZ       110.8730  125.6170  184.3210 C.ar      1 DZ0         0.0234
      4 CAK       109.7530  125.2740  184.9040 C.ar      1 DZ0        -0.0575
      5 CAY       108.9240  126.2370  185.4080 C.ar      1 DZ0        -0.0306
      6 CAX       109.3190  127.5430  185.2950 C.ar      1 DZ0         0.0933
      7 OAR       108.5490  128.5530  185.7850 O.3       1 DZ0        -0.3187
      8 CAA       107.2640  128.3250  186.3820 C.3       1 DZ0         0.0605
      9 CAJ       110.5120  127.8140  184.6750 C.ar      1 DZ0        -0.0267
     10 CAW       111.2730  126.8530  184.1970 C.ar      1 DZ0        -0.0312
     11 CAP       112.4520  126.8380  183.5750 C.2       1 DZ0        -0.0545
     12 CAT       112.7500  125.5760  183.3200 C.2       1 DZ0         0.0137
     13 CAD       113.8370  125.1360  182.7160 C.3       1 DZ0        -0.0089
     14 CBA       115.0140  125.9020  182.1440 C.3       1 DZ0        -0.0207
     15 CAM       115.2080  125.2410  180.8140 C.3       1 DZ0        -0.0074
     16 CAO       116.3950  125.8150  180.1350 C.3       1 DZ0        -0.0301
     17 CAL       114.8490  127.3610  181.9720 C.3       1 DZ0        -0.0074
     18 CAN       116.0340  127.9390  181.1700 C.3       1 DZ0        -0.0301
     19 NBB       116.2440  127.2370  179.8960 N.4       1 DZ0         0.2472
     20 CAQ       117.4500  127.7060  179.2000 C.3       1 DZ0         0.0019
     21 CAV       117.4240  127.4570  177.8400 C.ar      1 DZ0         0.0014
     22 CAH       116.6360  128.2250  177.0060 C.ar      1 DZ0        -0.0553
     23 CAF       116.5770  128.0090  175.6500 C.ar      1 DZ0        -0.0684
     24 CAE       117.3280  126.9940  175.1150 C.ar      1 DZ0        -0.0687
     25 CAG       118.1240  126.2380  175.9470 C.ar      1 DZ0        -0.0684
     26 CAI       118.1880  126.4530  177.3030 C.ar      1 DZ0        -0.0553
     27 H1        109.4828  124.2275  184.9872 H         1 DZ0         0.0639
     28 H2        107.9847  125.9752  185.8816 H         1 DZ0         0.0524
     29 H3        106.8328  129.2851  186.7019 H         1 DZ0         0.0580
     30 H4        107.3770  127.6649  187.2546 H         1 DZ0         0.0580
     31 H5        106.5972  127.8504  185.6471 H         1 DZ0         0.0580
     32 H6        110.8355  128.8439  184.5765 H         1 DZ0         0.0546
     33 H7        113.0585  127.7067  183.3231 H         1 DZ0         0.0493
     34 H8        113.4538  124.5572  181.8627 H         1 DZ0         0.0450
     35 H9        114.2923  124.4526  183.4479 H         1 DZ0         0.0450
     36 H10       115.8929  125.7413  182.7856 H         1 DZ0         0.0330
     37 H11       114.3163  125.4053  180.1912 H         1 DZ0         0.0321
     38 H12       115.3585  124.1614  180.9614 H         1 DZ0         0.0321
     39 H13       116.5347  125.3049  179.1705 H         1 DZ0         0.0815
     40 H14       117.2802  125.6524  180.7675 H         1 DZ0         0.0815
     41 H15       114.8102  127.8416  182.9607 H         1 DZ0         0.0321
     42 H16       113.9123  127.5597  181.4307 H         1 DZ0         0.0321
     43 H17       116.9474  127.8510  181.7765 H         1 DZ0         0.0815
     44 H18       115.8342  129.0001  180.9598 H         1 DZ0         0.0815
     45 H19       115.4421  127.3949  179.3060 H         1 DZ0         0.2048
     46 H20       118.3239  127.1966  179.6323 H         1 DZ0         0.0980
     47 H21       117.5440  128.7909  179.3553 H         1 DZ0         0.0980
     48 H22       116.0440  129.0252  177.4352 H         1 DZ0         0.0558
     49 H23       115.9506  128.6274  175.0173 H         1 DZ0         0.0599
     50 H24       117.2957  126.7892  174.0510 H         1 DZ0         0.0559
     51 H25       118.7225  125.4436  175.5160 H         1 DZ0         0.0599
     52 H26       118.8267  125.8439  177.9324 H         1 DZ0         0.0558
@<TRIPOS>BOND
     1    1    2 2  
     2    2    3 1  
     3    2   12 1  
     4    3    4 ar 
     5    3   10 ar 
     6    4    5 ar 
     7    5    6 ar 
     8    6    7 1  
     9    6    9 ar 
    10    7    8 1  
    11    9   10 ar 
    12   10   11 1  
    13   11   12 2  
    14   12   13 1  
    15   13   14 1  
    16   14   15 1  
    17   14   17 1  
    18   15   16 1  
    19   16   19 1  
    20   17   18 1  
    21   18   19 1  
    22   19   20 1  
    23   20   21 1  
    24   21   22 ar 
    25   21   26 ar 
    26   22   23 ar 
    27   23   24 ar 
    28   24   25 ar 
    29   25   26 ar 
    30    4   27 1  
    31    5   28 1  
    32    8   29 1  
    33    8   30 1  
    34    8   31 1  
    35    9   32 1  
    36   11   33 1  
    37   13   34 1  
    38   13   35 1  
    39   14   36 1  
    40   15   37 1  
    41   15   38 1  
    42   16   39 1  
    43   16   40 1  
    44   17   41 1  
    45   17   42 1  
    46   18   43 1  
    47   18   44 1  
    48   19   45 1  
    49   20   46 1  
    50   20   47 1  
    51   22   48 1  
    52   23   49 1  
    53   24   50 1  
    54   25   51 1  
    55   26   52 1  
@<TRIPOS>SUBSTRUCTURE
     1 DZ0         1

