### 
### Created by X-TOOL on Mon Sep 10 21:13:30 2018
### 

@<TRIPOS>MOLECULE
5naw_ligand
   55    59     1     0     0
SMALL
GAST_HUCK


@<TRIPOS>ATOM
      1 C4         10.9750   10.3440    0.5710 C.3       1 8RZ        -0.0115
      2 C14         3.2660    8.6320    2.0710 C.ar      1 8RZ        -0.0818
      3 C5          9.7250    9.5870    0.3920 C.3       1 8RZ         0.0519
      4 C6         11.0570    8.9640    0.0870 C.3       1 8RZ        -0.0243
      5 C11         4.4180    6.2270    1.4250 C.ar      1 8RZ         0.0901
      6 C7          8.2040    8.5030    1.9610 C.2       1 8RZ         0.2810
      7 C8          6.5220    7.0230    1.0660 C.2       1 8RZ         0.0611
      8 C9          6.5060    5.7150    0.7750 C.2       1 8RZ         0.0611
      9 C10         4.9020    3.8680    0.7840 C.2       1 8RZ         0.3224
     10 C12         5.2150    7.3790    1.4600 C.ar      1 8RZ         0.0032
     11 C13         4.6150    8.6130    1.8300 C.ar      1 8RZ        -0.0759
     12 N1          9.1660    9.3970    1.6720 N.am      1 8RZ        -0.2309
     13 N2          7.6420    7.8720    0.9210 N.am      1 8RZ        -0.2435
     14 C3         11.1040   10.7140    2.0170 C.3       1 8RZ        -0.0069
     15 N3          5.2560    5.1600    0.9930 N.am      1 8RZ        -0.1802
     16 O1          8.3730   11.3080    3.6260 O.2       1 8RZ        -0.3823
     17 C1          9.3430   10.5880    3.8310 C.2       1 8RZ         0.2290
     18 C2         10.0250    9.8930    2.6960 C.3       1 8RZ         0.1407
     19 N4          5.7470    3.1450    0.0550 N.am      1 8RZ        -0.2735
     20 O2          3.8370    3.4640    1.2160 O.2       1 8RZ        -0.3726
     21 C15         2.5180    7.4610    2.1000 C.ar      1 8RZ        -0.0792
     22 C16         3.0750    6.2490    1.7360 C.ar      1 8RZ        -0.0421
     23 O3          7.8910    8.2540    3.1090 O.2       1 8RZ        -0.3947
     24 N5          9.8760   10.3890    5.0470 N.am      1 8RZ        -0.2345
     25 C17         9.5120   10.9740    6.2480 C.ar      1 8RZ         0.0571
     26 C18         9.1460   12.3220    6.3070 C.ar      1 8RZ        -0.0523
     27 C19         8.7770   12.8950    7.5120 C.ar      1 8RZ        -0.0837
     28 C20         8.8640   12.1520    8.6630 C.ar      1 8RZ        -0.0481
     29 C21         9.2540   10.8120    8.5950 C.ar      1 8RZ         0.0869
     30 O4          9.3460   10.0580    9.7950 O.3       1 8RZ        -0.2297
     31 C22         8.3350    9.2730   10.1120 C.3       1 8RZ         0.5462
     32 F1          8.5910    8.7520   11.2610 F         1 8RZ        -0.1400
     33 F2          8.1960    8.3230    9.2460 F         1 8RZ        -0.1400
     34 F3          7.2300    9.9870   10.1550 F         1 8RZ        -0.1400
     35 C23         9.6120   10.2330    7.3960 C.ar      1 8RZ        -0.0138
     36 H1         11.2958   11.1647   -0.0874 H         1 8RZ         0.0326
     37 H2          2.7715    9.5812    2.2428 H         1 8RZ         0.0490
     38 H3          8.9765    9.7649   -0.3942 H         1 8RZ         0.0560
     39 H4         11.4584    8.1740    0.7388 H         1 8RZ         0.0291
     40 H5         11.3452    8.7614   -0.9550 H         1 8RZ         0.0291
     41 H6          7.3685    5.1578    0.4123 H         1 8RZ         0.0693
     42 H7          5.2088    9.5155    1.9193 H         1 8RZ         0.0537
     43 H8          8.0294    8.0069    0.0090 H         1 8RZ         0.2116
     44 H9         10.9287   11.7900    2.1637 H         1 8RZ         0.0316
     45 H10        12.0995   10.4487    2.4024 H         1 8RZ         0.0316
     46 H11        10.5204    9.0194    3.1448 H         1 8RZ         0.0805
     47 H12         5.5462    2.1844   -0.1370 H         1 8RZ         0.1830
     48 H13         6.5832    3.5619   -0.3012 H         1 8RZ         0.1830
     49 H14         1.4809    7.4985    2.4131 H         1 8RZ         0.0516
     50 H15         2.4759    5.3464    1.6965 H         1 8RZ         0.0534
     51 H16        10.6316    9.7355    5.0909 H         1 8RZ         0.2255
     52 H17         9.1512   12.9219    5.4041 H         1 8RZ         0.0414
     53 H18         8.4233   13.9191    7.5463 H         1 8RZ         0.0551
     54 H19         8.6311   12.6030    9.6208 H         1 8RZ         0.0418
     55 H20         9.9665    9.2091    7.3622 H         1 8RZ         0.0419
@<TRIPOS>BOND
     1    1    3 1  
     2    1    4 1  
     3   14    1 1  
     4   11    2 ar 
     5    2   21 ar 
     6    3    4 1  
     7   12    3 1  
     8   10    5 ar 
     9    5   15 1  
    10    5   22 ar 
    11   12    6 am 
    12    6   13 am 
    13    6   23 2  
    14    7    8 2  
    15    7   10 1  
    16   13    7 1  
    17    8   15 1  
    18   15    9 am 
    19    9   19 am 
    20    9   20 2  
    21   10   11 ar 
    22   18   12 1  
    23   18   14 1  
    24   17   16 2  
    25   17   18 1  
    26   17   24 am 
    27   21   22 ar 
    28   24   25 1  
    29   25   26 ar 
    30   25   35 ar 
    31   26   27 ar 
    32   27   28 ar 
    33   28   29 ar 
    34   29   30 1  
    35   29   35 ar 
    36   30   31 1  
    37   31   32 1  
    38   31   33 1  
    39   31   34 1  
    40    1   36 1  
    41    2   37 1  
    42    3   38 1  
    43    4   39 1  
    44    4   40 1  
    45    8   41 1  
    46   11   42 1  
    47   13   43 1  
    48   14   44 1  
    49   14   45 1  
    50   18   46 1  
    51   19   47 1  
    52   19   48 1  
    53   21   49 1  
    54   22   50 1  
    55   24   51 1  
    56   26   52 1  
    57   27   53 1  
    58   28   54 1  
    59   35   55 1  
@<TRIPOS>SUBSTRUCTURE
     1 8RZ         1

