### 
### Created by X-TOOL on Mon Sep 10 21:13:34 2018
### 

@<TRIPOS>MOLECULE
5nb6_ligand
   57    60     1     0     0
SMALL
GAST_HUCK


@<TRIPOS>ATOM
      1 C6         -5.6120  -15.9830   -6.2650 C.ar      1 8S2         0.0869
      2 C7         -4.4010  -15.3380   -6.4390 C.ar      1 8S2        -0.0138
      3 C10        -4.1370  -15.2870   -4.0030 C.ar      1 8S2        -0.0523
      4 C20        -0.5050  -13.1300   -5.1910 C.3       1 8S2         0.1454
      5 C26         1.1980  -13.0860   -3.5080 C.3       1 8S2         0.0007
      6 C28         0.6900  -13.9980   -4.6650 C.3       1 8S2         0.0330
      7 F1         -6.6010  -14.3300   -8.2830 F         1 8S2        -0.1400
      8 C2         -7.2390  -15.4490   -7.9380 C.3       1 8S2         0.5462
      9 F3         -8.0780  -15.1240   -6.9130 F         1 8S2        -0.1400
     10 F4         -7.8230  -16.0160   -9.0360 F         1 8S2        -0.1400
     11 O5         -6.3020  -16.3730   -7.4190 O.3       1 8S2        -0.2297
     12 C9         -3.6750  -14.9970   -5.2930 C.ar      1 8S2         0.0571
     13 C12        -5.3710  -15.9200   -3.8520 C.ar      1 8S2        -0.0837
     14 C14        -6.0980  -16.2630   -4.9750 C.ar      1 8S2        -0.0481
     15 N16        -2.4500  -14.4100   -5.4830 N.am      1 8S2        -0.2345
     16 C18        -1.8400  -13.5360   -4.6520 C.2       1 8S2         0.2292
     17 O19        -2.3020  -12.9790   -3.6750 O.2       1 8S2        -0.3823
     18 N22        -0.1170  -11.7750   -4.8890 N.am      1 8S2        -0.2286
     19 C23         1.1040  -11.6530   -4.0970 C.3       1 8S2         0.0802
     20 N31         0.3660  -13.3460   -2.3210 N.4       1 8S2         0.2223
     21 C34        -0.8840  -10.7200   -5.3800 C.2       1 8S2         0.2810
     22 O35        -1.9320  -11.0080   -6.0410 O.2       1 8S2        -0.3947
     23 N36        -0.5350   -9.4460   -5.1920 N.am      1 8S2        -0.2435
     24 C38        -1.2490   -8.3180   -5.6080 C.2       1 8S2         0.0611
     25 C39        -1.0110   -7.5020   -6.6740 C.2       1 8S2         0.0611
     26 N41        -2.0590   -6.5180   -6.7300 N.am      1 8S2        -0.1802
     27 C42        -2.9680   -6.7160   -5.6840 C.ar      1 8S2         0.0901
     28 C43        -2.5600   -7.8340   -4.9550 C.ar      1 8S2         0.0032
     29 C44        -3.2940   -8.2400   -3.8290 C.ar      1 8S2        -0.0759
     30 C46        -4.4720   -7.5400   -3.4470 C.ar      1 8S2        -0.0818
     31 C48        -4.8960   -6.4000   -4.1770 C.ar      1 8S2        -0.0792
     32 C50        -4.1440   -5.9640   -5.3020 C.ar      1 8S2        -0.0421
     33 C52        -2.1530   -5.5470   -7.6640 C.2       1 8S2         0.3224
     34 O53        -3.0380   -4.6610   -7.7250 O.2       1 8S2        -0.3726
     35 N54        -1.1150   -5.4540   -8.5570 N.am      1 8S2        -0.2735
     36 H1         -4.0273  -15.1047   -7.4295 H         1 8S2         0.0419
     37 H2         -3.5443  -15.0234   -3.1345 H         1 8S2         0.0414
     38 H3         -0.5629  -13.2395   -6.2840 H         1 8S2         0.0807
     39 H4          2.2454  -13.3112   -3.2587 H         1 8S2         0.0872
     40 H5          1.4594  -14.1442   -5.4374 H         1 8S2         0.0368
     41 H6          0.3516  -14.9769   -4.2946 H         1 8S2         0.0368
     42 H7         -5.7555  -16.1405   -2.8628 H         1 8S2         0.0551
     43 H8         -7.0571  -16.7551   -4.8607 H         1 8S2         0.0418
     44 H9         -1.9593  -14.6529   -6.3198 H         1 8S2         0.2255
     45 H10         1.9744  -11.4136   -4.7256 H         1 8S2         0.0578
     46 H11         1.0024  -10.8943   -3.3071 H         1 8S2         0.0578
     47 H12         0.4992  -14.2986   -2.0194 H         1 8S2         0.1998
     48 H13        -0.6041  -13.1993   -2.5520 H         1 8S2         0.1998
     49 H14         0.6335  -12.7182   -1.5791 H         1 8S2         0.1998
     50 H15         0.3228   -9.2814   -4.7050 H         1 8S2         0.2116
     51 H16        -0.1723   -7.5814   -7.3640 H         1 8S2         0.0693
     52 H17        -2.9610   -9.0920   -3.2473 H         1 8S2         0.0537
     53 H18        -5.0484   -7.8794   -2.5940 H         1 8S2         0.0490
     54 H19        -5.7894   -5.8637   -3.8784 H         1 8S2         0.0516
     55 H20        -4.4453   -5.0862   -5.8622 H         1 8S2         0.0534
     56 H21        -1.1306   -4.7537   -9.2707 H         1 8S2         0.1830
     57 H22        -0.3430   -6.0866   -8.4940 H         1 8S2         0.1830
@<TRIPOS>BOND
     1    2    1 ar 
     2    1   11 1  
     3    1   14 ar 
     4   12    2 ar 
     5   12    3 ar 
     6    3   13 ar 
     7    4    6 1  
     8   16    4 1  
     9    4   18 1  
    10    6    5 1  
    11    5   19 1  
    12    5   20 1  
    13    8    7 1  
    14    8    9 1  
    15    8   10 1  
    16   11    8 1  
    17   15   12 1  
    18   13   14 ar 
    19   15   16 am 
    20   16   17 2  
    21   18   19 1  
    22   18   21 am 
    23   21   22 2  
    24   21   23 am 
    25   23   24 1  
    26   24   25 2  
    27   24   28 1  
    28   25   26 1  
    29   26   27 1  
    30   26   33 am 
    31   27   28 ar 
    32   27   32 ar 
    33   28   29 ar 
    34   29   30 ar 
    35   30   31 ar 
    36   31   32 ar 
    37   33   34 2  
    38   33   35 am 
    39    2   36 1  
    40    3   37 1  
    41    4   38 1  
    42    5   39 1  
    43    6   40 1  
    44    6   41 1  
    45   13   42 1  
    46   14   43 1  
    47   15   44 1  
    48   19   45 1  
    49   19   46 1  
    50   20   47 1  
    51   20   48 1  
    52   20   49 1  
    53   23   50 1  
    54   25   51 1  
    55   29   52 1  
    56   30   53 1  
    57   31   54 1  
    58   32   55 1  
    59   35   56 1  
    60   35   57 1  
@<TRIPOS>SUBSTRUCTURE
     1 8S2         1

