### 
### Created by X-TOOL on Mon Sep 10 21:13:30 2018
### 

@<TRIPOS>MOLECULE
5nb7_ligand
   50    54     1     0     0
SMALL
GAST_HUCK


@<TRIPOS>ATOM
      1 C4         10.8980   10.7360    1.3750 C.3       1 8NQ        -0.0112
      2 C14         4.3300    6.6170    1.6370 C.ar      1 8NQ         0.0278
      3 C5          9.6360   10.1210    1.0270 C.3       1 8NQ         0.0513
      4 C6         10.9090    9.6470    0.4740 C.3       1 8NQ        -0.0241
      5 C11         3.1490    9.0760    1.8770 C.ar      1 8NQ        -0.0700
      6 C7          8.0870    8.6800    2.1990 C.2       1 8NQ         0.2126
      7 C8          7.4290    8.2990    0.8890 C.3       1 8NQ         0.1577
      8 C9          5.0450    7.7890    1.4080 C.ar      1 8NQ         0.0984
      9 C10         4.4800    9.0570    1.5660 C.ar      1 8NQ        -0.0337
     10 C12         2.4010    7.9350    2.1070 C.ar      1 8NQ        -0.0720
     11 C13         2.9530    6.6740    1.9600 C.ar      1 8NQ        -0.0627
     12 N1          9.0720    9.5510    2.1820 N.am      1 8NQ        -0.2455
     13 N2          6.3090    7.4170    1.0960 N.pl3     1 8NQ        -0.1718
     14 C3         11.0670   10.7170    2.8490 C.3       1 8NQ        -0.0066
     15 N3          5.9450    3.3760    0.9240 N.am      1 8NQ        -0.3000
     16 O1          8.1170   11.1750    4.2590 O.2       1 8NQ        -0.3802
     17 C1          9.0460   10.4340    4.4920 C.2       1 8NQ         0.2337
     18 C2          9.8620    9.9120    3.3160 C.3       1 8NQ         0.1409
     19 C15         5.2450    5.5660    1.3780 C.2       1 8NQ         0.1352
     20 C16         4.9950    4.1500    1.4090 C.2       1 8NQ         0.2118
     21 O2          3.9400    3.7100    1.9020 O.2       1 8NQ        -0.3863
     22 N4          6.4290    6.0940    1.0640 N.2       1 8NQ        -0.1710
     23 O3          7.7530    8.1520    3.2440 O.2       1 8NQ        -0.3936
     24 N5          9.4440   10.0320    5.7390 N.am      1 8NQ        -0.2162
     25 C17         8.7330   10.2340    6.9600 C.ar      1 8NQ         0.1389
     26 C18         7.8150   11.2390    7.1200 C.ar      1 8NQ        -0.0135
     27 C19         7.1160   11.2920    8.3340 C.ar      1 8NQ        -0.0561
     28 C20         7.2900   10.3040    9.2490 C.ar      1 8NQ        -0.0388
     29 C21         8.2390    9.3520    9.0750 C.ar      1 8NQ         0.0720
     30 BR1         8.4880    7.9680   10.2790 Br        1 8NQ        -0.0244
     31 N6          8.9250    9.2850    7.9030 N.ar      1 8NQ        -0.2735
     32 H1         11.2165   11.7123    0.9809 H         1 8NQ         0.0326
     33 H2          8.8763   10.5729    0.3723 H         1 8NQ         0.0563
     34 H3         11.3179    8.6762    0.7907 H         1 8NQ         0.0291
     35 H4         11.1431    9.8148   -0.5876 H         1 8NQ         0.0291
     36 H5          2.6527   10.0371    1.9472 H         1 8NQ         0.0580
     37 H6          8.1690    7.7930    0.2515 H         1 8NQ         0.0867
     38 H7          7.0764    9.2123    0.3875 H         1 8NQ         0.0867
     39 H8          5.0590    9.9660    1.4496 H         1 8NQ         0.0563
     40 H9          1.3639    8.0302    2.4078 H         1 8NQ         0.0536
     41 H10         2.3603    5.7751    2.0860 H         1 8NQ         0.0589
     42 H11        11.0476   11.7358    3.2633 H         1 8NQ         0.0316
     43 H12        12.0078   10.2232    3.1337 H         1 8NQ         0.0316
     44 H13         5.8271    2.3830    0.9192 H         1 8NQ         0.1807
     45 H14         6.7837    3.7817    0.5608 H         1 8NQ         0.1807
     46 H15        10.2871    8.9696    3.6916 H         1 8NQ         0.0809
     47 H16        10.3180    9.5499    5.8002 H         1 8NQ         0.2312
     48 H17         7.6360   11.9663    6.3364 H         1 8NQ         0.0595
     49 H18         6.4418   12.1153    8.5406 H         1 8NQ         0.0690
     50 H19         6.6609   10.2762   10.1313 H         1 8NQ         0.0581
@<TRIPOS>BOND
     1    3    1 1  
     2    4    1 1  
     3   14    1 1  
     4    2    8 ar 
     5    2   11 ar 
     6   19    2 1  
     7    3    4 1  
     8   12    3 1  
     9    9    5 ar 
    10   10    5 ar 
    11    7    6 1  
    12    6   12 am 
    13    6   23 2  
    14   13    7 1  
    15    8    9 ar 
    16    8   13 1  
    17   11   10 ar 
    18   12   18 1  
    19   13   22 1  
    20   18   14 1  
    21   20   15 am 
    22   17   16 2  
    23   18   17 1  
    24   17   24 am 
    25   19   20 1  
    26   19   22 2  
    27   20   21 2  
    28   24   25 1  
    29   25   26 ar 
    30   25   31 ar 
    31   26   27 ar 
    32   27   28 ar 
    33   28   29 ar 
    34   29   30 1  
    35   29   31 ar 
    36    1   32 1  
    37    3   33 1  
    38    4   34 1  
    39    4   35 1  
    40    5   36 1  
    41    7   37 1  
    42    7   38 1  
    43    9   39 1  
    44   10   40 1  
    45   11   41 1  
    46   14   42 1  
    47   14   43 1  
    48   15   44 1  
    49   15   45 1  
    50   18   46 1  
    51   24   47 1  
    52   26   48 1  
    53   27   49 1  
    54   28   50 1  
@<TRIPOS>SUBSTRUCTURE
     1 8NQ         1

