### 
### Created by X-TOOL on Mon Sep 10 21:13:31 2018
### 

@<TRIPOS>MOLECULE
5nba_ligand
   54    57     1     0     0
SMALL
GAST_HUCK


@<TRIPOS>ATOM
      1 C4         10.8120   10.3710    0.5950 C.3       1 8S5         0.1253
      2 C14         2.1730    7.5260    2.1980 C.ar      1 8S5        -0.0792
      3 C5          9.3960   10.1080    0.4130 C.3       1 8S5         0.0686
      4 C6          8.1420    8.5160    1.9650 C.2       1 8S5         0.2809
      5 C11         4.8790    7.6240    1.5290 C.ar      1 8S5         0.0032
      6 C7          6.1960    7.3350    1.1270 C.2       1 8S5         0.0611
      7 C8          6.2980    5.9600    0.8730 C.2       1 8S5         0.0611
      8 C9          4.7510    4.0040    1.0560 C.2       1 8S5         0.3224
      9 C10         4.1720    6.4090    1.5500 C.ar      1 8S5         0.0901
     10 C12         4.1980    8.8130    1.8450 C.ar      1 8S5        -0.0759
     11 C13         2.8460    8.7460    2.1590 C.ar      1 8S5        -0.0818
     12 N1          9.0830    9.4310    1.6790 N.am      1 8S5        -0.2313
     13 N2          7.2580    8.2390    0.9800 N.am      1 8S5        -0.2435
     14 C3         10.9350   10.8580    1.9730 C.3       1 8S5         0.0212
     15 N3          5.0620    5.3830    1.1720 N.am      1 8S5        -0.1802
     16 O1          8.2050   11.2020    3.6650 O.2       1 8S5        -0.3823
     17 C1          9.2460   10.5940    3.8610 C.2       1 8S5         0.2291
     18 C2          9.9500    9.9470    2.7050 C.3       1 8S5         0.1428
     19 F1         11.6470    9.3060    0.2880 F         1 8S5        -0.2432
     20 N4          5.6450    3.2920    0.3710 N.am      1 8S5        -0.2735
     21 O2          3.7220    3.5450    1.4930 O.2       1 8S5        -0.3726
     22 C15         2.8090    6.3420    1.8720 C.ar      1 8S5        -0.0421
     23 O3          8.0320    8.0140    3.1080 O.2       1 8S5        -0.3947
     24 N5          9.8190   10.4370    5.0840 N.am      1 8S5        -0.2345
     25 C16         9.4120   11.0220    6.3230 C.ar      1 8S5         0.0571
     26 C17         9.0200   12.3490    6.4420 C.ar      1 8S5        -0.0523
     27 C18         8.6730   12.8620    7.6930 C.ar      1 8S5        -0.0837
     28 C19         8.7240   12.0660    8.8280 C.ar      1 8S5        -0.0481
     29 C20         9.1330   10.7420    8.7000 C.ar      1 8S5         0.0869
     30 O4          9.2420    9.9380    9.8690 O.3       1 8S5        -0.2297
     31 C21         8.2180    9.2000   10.1920 C.3       1 8S5         0.5462
     32 F2          8.5050    8.6470   11.3690 F         1 8S5        -0.1400
     33 F3          7.9360    8.2780    9.2890 F         1 8S5        -0.1400
     34 F4          7.1210    9.9020   10.3120 F         1 8S5        -0.1400
     35 C22         9.4860   10.2250    7.4610 C.ar      1 8S5        -0.0138
     36 H1         11.0958   11.1891   -0.0833 H         1 8S5         0.0673
     37 H2          1.1293    7.5048    2.4900 H         1 8S5         0.0516
     38 H3          9.2125    9.4547   -0.4527 H         1 8S5         0.0550
     39 H4          8.8218   11.0391    0.2980 H         1 8S5         0.0550
     40 H5          7.1809    5.4369    0.5086 H         1 8S5         0.0693
     41 H6          4.7180    9.7641    1.8437 H         1 8S5         0.0537
     42 H7          2.3047    9.6594    2.3777 H         1 8S5         0.0490
     43 H8          7.3672    8.7030    0.1009 H         1 8S5         0.2116
     44 H9         10.6413   11.9150    2.0537 H         1 8S5         0.0341
     45 H10        11.9590   10.7318    2.3543 H         1 8S5         0.0341
     46 H11        10.5159    9.1029    3.1260 H         1 8S5         0.0806
     47 H12         5.5072    2.3104    0.2389 H         1 8S5         0.1830
     48 H13         6.4537    3.7393   -0.0110 H         1 8S5         0.1830
     49 H14         2.2746    5.3989    1.8657 H         1 8S5         0.0534
     50 H15        10.6211    9.8410    5.1211 H         1 8S5         0.2255
     51 H16         8.9836   12.9852    5.5651 H         1 8S5         0.0414
     52 H17         8.3595   13.8961    7.7787 H         1 8S5         0.0551
     53 H18         8.4503   12.4679    9.7968 H         1 8S5         0.0418
     54 H19         9.8204    9.1971    7.3799 H         1 8S5         0.0419
@<TRIPOS>BOND
     1    1    3 1  
     2   14    1 1  
     3    1   19 1  
     4   11    2 ar 
     5   22    2 ar 
     6   12    3 1  
     7   12    4 am 
     8    4   13 am 
     9    4   23 2  
    10    6    5 1  
    11    5    9 ar 
    12    5   10 ar 
    13    6    7 2  
    14   13    6 1  
    15    7   15 1  
    16   15    8 am 
    17    8   20 am 
    18    8   21 2  
    19   15    9 1  
    20    9   22 ar 
    21   10   11 ar 
    22   18   12 1  
    23   18   14 1  
    24   17   16 2  
    25   17   18 1  
    26   17   24 am 
    27   24   25 1  
    28   25   26 ar 
    29   25   35 ar 
    30   26   27 ar 
    31   27   28 ar 
    32   28   29 ar 
    33   29   30 1  
    34   29   35 ar 
    35   30   31 1  
    36   31   32 1  
    37   31   33 1  
    38   31   34 1  
    39    1   36 1  
    40    2   37 1  
    41    3   38 1  
    42    3   39 1  
    43    7   40 1  
    44   10   41 1  
    45   11   42 1  
    46   13   43 1  
    47   14   44 1  
    48   14   45 1  
    49   18   46 1  
    50   20   47 1  
    51   20   48 1  
    52   22   49 1  
    53   24   50 1  
    54   26   51 1  
    55   27   52 1  
    56   28   53 1  
    57   35   54 1  
@<TRIPOS>SUBSTRUCTURE
     1 8S5         1

