### 
### Created by X-TOOL on Mon Sep 10 21:13:32 2018
### 

@<TRIPOS>MOLECULE
5nbw_ligand
   33    37     1     0     0
SMALL
GAST_HUCK


@<TRIPOS>ATOM
      1 CAM        13.1500  -32.0840    4.4880 C.ar      1 8SK        -0.0593
      2 CAN        13.0520  -33.3060    3.8150 C.ar      1 8SK        -0.0558
      3 CAF        12.4180  -34.4040    4.4330 C.ar      1 8SK         0.0192
      4 CAC        11.8910  -34.2590    5.7360 C.ar      1 8SK        -0.0063
      5 CAB        12.0030  -33.0280    6.4360 C.ar      1 8SK        -0.0060
      6 CAE        12.6420  -31.9450    5.7990 C.ar      1 8SK        -0.0241
      7 CAJ        12.7660  -30.7230    6.4670 C.ar      1 8SK        -0.0541
      8 CAI        12.2640  -30.5580    7.7620 C.ar      1 8SK        -0.0236
      9 CAS        12.4030  -29.3030    8.3850 C.ar      1 8SK        -0.0571
     10 CAU        11.9270  -29.1150    9.6880 C.ar      1 8SK        -0.0634
     11 CAT        11.3010  -30.1860   10.3510 C.ar      1 8SK        -0.0631
     12 CAR        11.1320  -31.4330    9.7370 C.ar      1 8SK        -0.0558
     13 CAH        11.6220  -31.6440    8.4260 C.ar      1 8SK        -0.0138
     14 CAD        11.4860  -32.8900    7.7640 C.ar      1 8SK        -0.0128
     15 CAK        10.8480  -34.0000    8.3710 C.ar      1 8SK        -0.0566
     16 CAO        10.7330  -35.2170    7.6790 C.ar      1 8SK        -0.0582
     17 CAG        11.2590  -35.3510    6.3590 C.ar      1 8SK        -0.0223
     18 CAP        11.1600  -36.5660    5.6570 C.ar      1 8SK        -0.0564
     19 CAQ        11.6760  -36.7220    4.3700 C.ar      1 8SK        -0.0243
     20 CAL        12.3010  -35.6420    3.7560 C.ar      1 8SK         0.1061
     21 OAA        12.7960  -35.8010    2.5050 O.3       1 8SK        -0.3250
     22 H1         13.6192  -31.2372    4.0002 H         1 8SK         0.0566
     23 H2         13.4636  -33.4094    2.8175 H         1 8SK         0.0626
     24 H3         13.2580  -29.8921    5.9745 H         1 8SK         0.0556
     25 H4         12.8776  -28.4840    7.8567 H         1 8SK         0.0606
     26 H5         12.0395  -28.1557   10.1801 H         1 8SK         0.0612
     27 H6         10.9402  -30.0423   11.3631 H         1 8SK         0.0601
     28 H7         10.6273  -32.2345   10.2642 H         1 8SK         0.0619
     29 H8         10.4468  -33.9096    9.3740 H         1 8SK         0.0586
     30 H9         10.2414  -36.0601    8.1507 H         1 8SK         0.0621
     31 H10        10.6674  -37.4074    6.1307 H         1 8SK         0.0629
     32 H11        11.5908  -37.6724    3.8556 H         1 8SK         0.0570
     33 H12        13.1910  -34.9868    2.2161 H         1 8SK         0.2535
@<TRIPOS>BOND
     1    1    2 ar 
     2    1    6 ar 
     3    2    3 ar 
     4    3    4 ar 
     5    3   20 ar 
     6    4    5 ar 
     7    4   17 ar 
     8    5    6 ar 
     9    5   14 ar 
    10    6    7 ar 
    11    7    8 ar 
    12    8    9 ar 
    13    8   13 ar 
    14    9   10 ar 
    15   10   11 ar 
    16   11   12 ar 
    17   12   13 ar 
    18   13   14 ar 
    19   14   15 ar 
    20   15   16 ar 
    21   16   17 ar 
    22   17   18 ar 
    23   18   19 ar 
    24   19   20 ar 
    25   20   21 1  
    26    1   22 1  
    27    2   23 1  
    28    7   24 1  
    29    9   25 1  
    30   10   26 1  
    31   11   27 1  
    32   12   28 1  
    33   15   29 1  
    34   16   30 1  
    35   18   31 1  
    36   19   32 1  
    37   21   33 1  
@<TRIPOS>SUBSTRUCTURE
     1 8SK         1

