### 
### Created by X-TOOL on Wed Jan  1 15:39:38 2020
### 

@<TRIPOS>MOLECULE
5ncq_ligand
   46    49     1     0     0
SMALL
GAST_HUCK


@<TRIPOS>ATOM
      1 FAA        20.3610   15.7120   14.3210 F         1 8T8        -0.1402
      2 CBA        20.4920   16.8030   15.0720 C.3       1 8T8         0.5446
      3 FAB        21.7460   16.8260   15.5160 F         1 8T8        -0.1402
      4 FAC        19.6990   16.6680   16.1340 F         1 8T8        -0.1402
      5 OAR        20.2760   17.9430   14.3130 O.3       1 8T8        -0.2347
      6 CAU        18.9950   18.4440   14.0970 C.ar      1 8T8         0.0831
      7 CAK        18.3720   19.1850   15.0820 C.ar      1 8T8        -0.0205
      8 CAI        18.3670   18.2120   12.8530 C.ar      1 8T8        -0.0505
      9 CAJ        17.0990   18.7170   12.6130 C.ar      1 8T8        -0.0841
     10 CAY        16.4140   19.4690   13.5850 C.ar      1 8T8        -0.0401
     11 CAX        17.0820   19.6900   14.8270 C.ar      1 8T8         0.0471
     12 NAQ        16.2260   20.4450   15.6390 N.pl3     1 8T8        -0.2821
     13 CAW        15.0690   20.7060   14.9340 C.2       1 8T8         0.0808
     14 CAV        15.1370   20.1340   13.6910 C.2       1 8T8        -0.0494
     15 CAM        13.9970   20.2670   12.7660 C.3       1 8T8        -0.0430
     16 CAL        12.7110   20.0680   13.5670 C.3       1 8T8        -0.0439
     17 CAN        12.5560   21.1250   14.6890 C.3       1 8T8         0.0019
     18 CAZ        13.8650   21.5070   15.4360 C.3       1 8T8         0.0289
     19 NAP        14.0650   22.9720   15.4770 N.4       1 8T8         0.2541
     20 CAO        15.4360   23.4490   15.1660 C.3       1 8T8         0.0031
     21 CAT        15.5020   24.2930   13.9220 C.ar      1 8T8         0.0042
     22 CAG        14.5890   25.3250   13.7010 C.ar      1 8T8        -0.0524
     23 CAE        14.6460   26.1030   12.5480 C.ar      1 8T8        -0.0588
     24 CAS        15.6280   25.8350   11.6160 C.ar      1 8T8         0.0056
     25 BR         15.7020   26.8960   10.0520 Br        1 8T8        -0.0561
     26 CAF        16.5490   24.8230   11.7940 C.ar      1 8T8        -0.0588
     27 CAH        16.4750   24.0570   12.9510 C.ar      1 8T8        -0.0524
     28 H1         18.8642   19.3736   16.0292 H         1 8T8         0.0436
     29 H2         18.8767   17.6393   12.0866 H         1 8T8         0.0454
     30 H3         16.6250   18.5287   11.6565 H         1 8T8         0.0499
     31 H4         16.4266   20.7536   16.6010 H         1 8T8         0.2199
     32 H5         14.0664   19.5043   11.9764 H         1 8T8         0.0320
     33 H6         14.0013   21.2681   12.3102 H         1 8T8         0.0320
     34 H7         12.7277   19.0668   14.0223 H         1 8T8         0.0280
     35 H8         11.8519   20.1462   12.8845 H         1 8T8         0.0280
     36 H9         11.8459   20.7301   15.4305 H         1 8T8         0.0343
     37 H10        12.1443   22.0399   14.2379 H         1 8T8         0.0343
     38 H11        13.7215   21.1987   16.4821 H         1 8T8         0.1023
     39 H12        13.8306   23.2897   16.4044 H         1 8T8         0.2046
     40 H13        13.4346   23.3884   14.8098 H         1 8T8         0.2046
     41 H14        16.0882   22.5738   15.0296 H         1 8T8         0.0986
     42 H15        15.7987   24.0479   16.0144 H         1 8T8         0.0986
     43 H16        13.8217   25.5244   14.4403 H         1 8T8         0.0566
     44 H17        13.9333   26.9034   12.3854 H         1 8T8         0.0626
     45 H18        17.3123   24.6301   11.0488 H         1 8T8         0.0626
     46 H19        17.1906   23.2569   13.1025 H         1 8T8         0.0566
@<TRIPOS>BOND
     1    1    2 1  
     2    2    3 1  
     3    2    4 1  
     4    2    5 1  
     5    5    6 1  
     6    6    7 ar 
     7    6    8 ar 
     8    7   11 ar 
     9    8    9 ar 
    10    9   10 ar 
    11   10   11 ar 
    12   10   14 1  
    13   11   12 1  
    14   12   13 1  
    15   13   14 2  
    16   13   18 1  
    17   14   15 1  
    18   15   16 1  
    19   16   17 1  
    20   17   18 1  
    21   18   19 1  
    22   19   20 1  
    23   20   21 1  
    24   21   22 ar 
    25   21   27 ar 
    26   22   23 ar 
    27   23   24 ar 
    28   24   25 1  
    29   24   26 ar 
    30   26   27 ar 
    31    7   28 1  
    32    8   29 1  
    33    9   30 1  
    34   12   31 1  
    35   15   32 1  
    36   15   33 1  
    37   16   34 1  
    38   16   35 1  
    39   17   36 1  
    40   17   37 1  
    41   18   38 1  
    42   19   39 1  
    43   19   40 1  
    44   20   41 1  
    45   20   42 1  
    46   22   43 1  
    47   23   44 1  
    48   26   45 1  
    49   27   46 1  
@<TRIPOS>SUBSTRUCTURE
     1 8T8         1

