### 
### Created by X-TOOL on Mon Sep 10 21:13:34 2018
### 

@<TRIPOS>MOLECULE
5ncy_ligand
   47    50     1     0     0
SMALL
GAST_HUCK


@<TRIPOS>ATOM
      1 C1         -3.4480  -49.9200   17.7840 C.3       1 8TK        -0.0029
      2 C2         -4.6390  -49.3530   18.5280 C.2       1 8TK         0.0936
      3 C3         -5.4080  -48.4710   17.9080 C.2       1 8TK         0.0153
      4 N6         -4.9620  -49.7370   19.8190 N.am      1 8TK        -0.1487
      5 C7         -4.2980  -50.5960   20.6980 C.2       1 8TK         0.2216
      6 C9         -4.7960  -50.8560   22.0030 C.2       1 8TK         0.0250
      7 C10        -6.0040  -50.2400   22.4070 C.2       1 8TK        -0.0337
      8 C11        -6.6430  -49.3650   21.5240 C.2       1 8TK        -0.0202
      9 C12        -6.6490  -50.4990   23.7530 C.3       1 8TK         0.0709
     10 C14        -7.6290  -51.6540   23.5560 C.3       1 8TK        -0.0297
     11 C16        -6.7330  -48.2470   24.8620 C.ar      1 8TK         0.1537
     12 C20        -4.7900  -47.2710   25.6730 C.ar      1 8TK         0.0658
     13 C27        -2.4870  -51.9970   24.7920 C.ar      1 8TK        -0.0750
     14 C30        -4.1660  -53.1610   22.8440 C.ar      1 8TK        -0.0725
     15 S4         -6.7180  -48.0340   19.0050 S.3       1 8TK        -0.0120
     16 C5         -6.1130  -49.1100   20.2740 C.2       1 8TK         0.1763
     17 O8         -3.2490  -51.1430   20.3800 O.2       1 8TK        -0.4116
     18 N15        -7.3700  -49.3120   24.2660 N.pl3     1 8TK        -0.2809
     19 C17        -7.4670  -47.1010   25.2730 C.ar      1 8TK         0.1776
     20 C18        -6.7510  -46.0680   25.9140 C.ar      1 8TK         0.1489
     21 N19        -5.4260  -46.1930   26.0670 N.ar      1 8TK        -0.2566
     22 N21        -5.4220  -48.2780   25.0830 N.ar      1 8TK        -0.2563
     23 N22        -7.3940  -44.9470   26.3620 N.pl3     1 8TK        -0.3103
     24 C23        -8.8720  -46.9650   25.0450 C.1       1 8TK         0.0901
     25 N24        -9.9800  -46.8170   24.9110 N.1       1 8TK        -0.3468
     26 C25        -4.0420  -51.7560   22.9270 C.ar      1 8TK        -0.0501
     27 C26        -3.2060  -51.1870   23.9180 C.ar      1 8TK        -0.0725
     28 C28        -2.6150  -53.3820   24.7090 C.ar      1 8TK        -0.0742
     29 C29        -3.4380  -53.9610   23.7350 C.ar      1 8TK        -0.0750
     30 H1         -3.3927  -49.4688   16.7823 H         1 8TK         0.0408
     31 H2         -3.5598  -51.0102   17.6894 H         1 8TK         0.0408
     32 H3         -2.5264  -49.6928   18.3398 H         1 8TK         0.0408
     33 H4         -5.2583  -48.0846   16.9009 H         1 8TK         0.0423
     34 H5         -7.5696  -48.8785   21.8250 H         1 8TK         0.0249
     35 H6         -5.8748  -50.7850   24.4801 H         1 8TK         0.0753
     36 H7         -8.1253  -51.8807   24.5111 H         1 8TK         0.0279
     37 H8         -7.0830  -52.5427   23.2066 H         1 8TK         0.0279
     38 H9         -8.3845  -51.3704   22.8085 H         1 8TK         0.0279
     39 H10        -3.7202  -47.3409   25.8336 H         1 8TK         0.1109
     40 H11        -1.8316  -51.5532   25.5326 H         1 8TK         0.0583
     41 H12        -4.8144  -53.6133   22.1023 H         1 8TK         0.0509
     42 H13        -8.3953  -49.2816   24.1727 H         1 8TK         0.1917
     43 H14        -6.8609  -44.1993   26.8285 H         1 8TK         0.1847
     44 H15        -8.4113  -44.8505   26.2328 H         1 8TK         0.1847
     45 H16        -3.1251  -50.1089   23.9968 H         1 8TK         0.0509
     46 H17        -2.0741  -54.0154   25.4028 H         1 8TK         0.0513
     47 H18        -3.5128  -55.0404   23.6695 H         1 8TK         0.0583
@<TRIPOS>BOND
     1    2    1 1  
     2    2    3 2  
     3    4    2 1  
     4   15    3 1  
     5    5    4 am 
     6    4   16 1  
     7    6    5 1  
     8    5   17 2  
     9    6    7 2  
    10   26    6 1  
    11    7    8 1  
    12    7    9 1  
    13    8   16 2  
    14    9   10 1  
    15    9   18 1  
    16   18   11 1  
    17   11   19 ar 
    18   11   22 ar 
    19   12   21 ar 
    20   22   12 ar 
    21   27   13 ar 
    22   13   28 ar 
    23   26   14 ar 
    24   14   29 ar 
    25   16   15 1  
    26   19   20 ar 
    27   19   24 1  
    28   20   21 ar 
    29   20   23 1  
    30   24   25 3  
    31   26   27 ar 
    32   28   29 ar 
    33    1   30 1  
    34    1   31 1  
    35    1   32 1  
    36    3   33 1  
    37    8   34 1  
    38    9   35 1  
    39   10   36 1  
    40   10   37 1  
    41   10   38 1  
    42   12   39 1  
    43   13   40 1  
    44   14   41 1  
    45   18   42 1  
    46   23   43 1  
    47   23   44 1  
    48   27   45 1  
    49   28   46 1  
    50   29   47 1  
@<TRIPOS>SUBSTRUCTURE
     1 8TK         1

