### 
### Created by X-TOOL on Mon Sep 10 21:13:34 2018
### 

@<TRIPOS>MOLECULE
5ncz_ligand
   61    64     1     0     0
SMALL
GAST_HUCK


@<TRIPOS>ATOM
      1 C1         -8.8400  -47.1890   25.1420 C.1       1 8TN         0.0901
      2 C2         -2.5950  -52.2880   24.9230 C.ar      1 8TN        -0.0744
      3 C3         -3.3100  -51.4600   24.0780 C.ar      1 8TN        -0.0629
      4 C7         -7.4370  -47.3360   25.3580 C.ar      1 8TN         0.1776
      5 C8         -4.1520  -51.9940   23.1230 C.ar      1 8TN        -0.0182
      6 C9         -3.5690  -54.2000   23.8490 C.ar      1 8TN        -0.0047
      7 C10        -6.7360  -46.3240   25.9880 C.ar      1 8TN         0.1489
      8 C11        -6.7370  -48.4690   24.9630 C.ar      1 8TN         0.1534
      9 C12        -6.6860  -49.6010   21.5850 C.2       1 8TN        -0.0592
     10 C13        -5.5140  -48.8520   18.1470 C.2       1 8TN        -0.0419
     11 C14        -4.8740  -51.1160   22.2040 C.3       1 8TN         0.1120
     12 C15        -6.0230  -50.4750   22.5300 C.2       1 8TN        -0.0192
     13 C16        -4.6730  -49.7100   18.7260 C.2       1 8TN         0.0388
     14 C19        -3.4790  -50.2610   18.0290 C.3       1 8TN        -0.0142
     15 C20        -7.6710  -51.8130   23.7040 C.3       1 8TN        -0.0325
     16 C21        -1.7310  -56.2340   22.3940 C.3       1 8TN        -0.0419
     17 C22        -3.6690  -57.5230   22.1900 C.3       1 8TN        -0.0419
     18 C24        -6.6930  -50.6560   23.8620 C.3       1 8TN         0.0682
     19 N25        -9.9770  -47.0180   24.9890 N.1       1 8TN        -0.3468
     20 N26        -5.4190  -46.4070   26.2080 N.ar      1 8TN        -0.2566
     21 N29        -7.4070  -45.1810   26.4330 N.pl3     1 8TN        -0.3103
     22 C4         -2.7270  -53.6580   24.8030 C.ar      1 8TN        -0.0618
     23 C5         -4.2790  -53.3670   23.0050 C.ar      1 8TN        -0.0498
     24 C6         -4.8260  -47.5200   25.7720 C.ar      1 8TN         0.0658
     25 C17        -6.1480  -49.4160   20.3780 C.3       1 8TN         0.1212
     26 C18        -4.2900  -50.9150   20.8540 C.2       1 8TN         0.2315
     27 C23        -3.6790  -55.6890   23.7000 C.3       1 8TN        -0.0001
     28 N27        -5.4130  -48.5580   25.1690 N.ar      1 8TN        -0.2563
     29 N28        -4.9920  -50.0590   20.0150 N.am      1 8TN        -0.2069
     30 N30        -7.4560  -49.4910   24.3220 N.pl3     1 8TN        -0.2836
     31 N31        -3.1850  -56.1660   22.4020 N.4       1 8TN         0.2428
     32 O32        -3.2470  -51.4930   20.5730 O.2       1 8TN        -0.3789
     33 S33        -6.8110  -48.3920   19.1590 S.3       1 8TN        -0.1222
     34 H1         -1.9363  -51.8660   25.6734 H         1 8TN         0.0583
     35 H2         -3.2089  -50.3843   24.1658 H         1 8TN         0.0507
     36 H3         -7.6140  -49.0999   21.8565 H         1 8TN         0.0303
     37 H4         -5.3866  -48.4817   17.1308 H         1 8TN         0.0155
     38 H5         -5.4611  -51.9733   21.8430 H         1 8TN         0.0837
     39 H6         -3.4230  -49.8442   17.0126 H         1 8TN         0.0403
     40 H7         -3.5607  -51.3565   17.9721 H         1 8TN         0.0403
     41 H8         -2.5708  -49.9895   18.5871 H         1 8TN         0.0403
     42 H9         -8.1905  -51.9868   24.6579 H         1 8TN         0.0274
     43 H10        -7.1213  -52.7209   23.4151 H         1 8TN         0.0274
     44 H11        -8.4075  -51.5668   22.9250 H         1 8TN         0.0274
     45 H12        -1.3862  -56.5932   21.4131 H         1 8TN         0.0778
     46 H13        -1.3920  -56.9270   23.1781 H         1 8TN         0.0778
     47 H14        -1.3160  -55.2333   22.5846 H         1 8TN         0.0778
     48 H15        -4.7690  -57.5238   22.1879 H         1 8TN         0.0778
     49 H16        -3.3034  -58.1732   22.9984 H         1 8TN         0.0778
     50 H17        -3.3003  -57.8970   21.2235 H         1 8TN         0.0778
     51 H18        -5.9299  -50.8997   24.6159 H         1 8TN         0.0710
     52 H19        -6.8849  -44.4272   26.9022 H         1 8TN         0.1847
     53 H20        -8.4234  -45.0927   26.2916 H         1 8TN         0.1847
     54 H21        -2.1669  -54.3125   25.4610 H         1 8TN         0.0504
     55 H22        -4.9345  -53.7886   22.2516 H         1 8TN         0.0503
     56 H23        -3.7548  -47.5895   25.9229 H         1 8TN         0.1109
     57 H24        -5.5739  -48.5702   20.7843 H         1 8TN         0.0832
     58 H25        -4.7361  -55.9758   23.8013 H         1 8TN         0.0979
     59 H26        -3.0913  -56.1670   24.4975 H         1 8TN         0.0979
     60 H27        -8.4742  -49.4253   24.1812 H         1 8TN         0.1912
     61 H28        -3.5084  -55.5550   21.6684 H         1 8TN         0.2042
@<TRIPOS>BOND
     1    4    1 1  
     2    1   19 3  
     3    2    3 ar 
     4   22    2 ar 
     5    5    3 ar 
     6    4    7 ar 
     7    8    4 ar 
     8    5   11 1  
     9   23    5 ar 
    10    6   22 ar 
    11    6   23 ar 
    12   27    6 1  
    13    7   20 ar 
    14    7   21 1  
    15    8   28 ar 
    16   30    8 1  
    17   12    9 2  
    18    9   25 1  
    19   13   10 2  
    20   33   10 1  
    21   11   12 1  
    22   11   26 1  
    23   12   18 1  
    24   13   14 1  
    25   29   13 1  
    26   18   15 1  
    27   31   16 1  
    28   31   17 1  
    29   18   30 1  
    30   24   20 ar 
    31   28   24 ar 
    32   29   25 1  
    33   25   33 1  
    34   26   29 am 
    35   26   32 2  
    36   27   31 1  
    37    2   34 1  
    38    3   35 1  
    39    9   36 1  
    40   10   37 1  
    41   11   38 1  
    42   14   39 1  
    43   14   40 1  
    44   14   41 1  
    45   15   42 1  
    46   15   43 1  
    47   15   44 1  
    48   16   45 1  
    49   16   46 1  
    50   16   47 1  
    51   17   48 1  
    52   17   49 1  
    53   17   50 1  
    54   18   51 1  
    55   21   52 1  
    56   21   53 1  
    57   22   54 1  
    58   23   55 1  
    59   24   56 1  
    60   25   57 1  
    61   27   58 1  
    62   27   59 1  
    63   30   60 1  
    64   31   61 1  
@<TRIPOS>SUBSTRUCTURE
     1 8TN         1

