### 
### Created by X-TOOL on Mon Sep 10 21:13:34 2018
### 

@<TRIPOS>MOLECULE
5ndd_ligand
   32    33     1     0     0
SMALL
GAST_HUCK


@<TRIPOS>ATOM
      1 C1         14.5090    6.7530   55.8070 C.ar      1 8TZ        -0.0328
      2 C2         14.1740    5.7880   54.8140 C.ar      1 8TZ         0.1187
      3 C3         15.1680    4.9430   54.2870 C.ar      1 8TZ        -0.0413
      4 C4         16.4850    5.0520   54.7420 C.ar      1 8TZ        -0.0635
      5 C5         16.8190    6.0070   55.7250 C.ar      1 8TZ         0.0009
      6 C6         15.8220    6.8540   56.2570 C.ar      1 8TZ        -0.0377
      7 C7         16.1890    7.8930   57.3290 C.3       1 8TZ        -0.0223
      8 C8         15.7670    9.2960   56.8530 C.3       1 8TZ        -0.0471
      9 C9         18.2360    6.1130   56.2070 C.3       1 8TZ         0.1593
     10 C10        18.9400    4.7790   56.0020 C.2       1 8TZ         0.1508
     11 O1         18.9170    7.1110   55.4810 O.3       1 8TZ        -0.3623
     12 N1         19.8230    4.4920   55.0170 N.pl3     1 8TZ        -0.2613
     13 C11        20.2210    3.2100   55.1820 C.2       1 8TZ         0.0256
     14 C12        19.5810    2.7070   56.2680 C.2       1 8TZ        -0.0361
     15 N2         18.7910    3.6740   56.7740 N.2       1 8TZ        -0.3350
     16 F1         12.8890    5.6830   54.3730 F         1 8TZ        -0.1908
     17 C13        16.2320   10.3790   57.9310 C.3       1 8TZ        -0.0636
     18 H1         13.7439    7.4063   56.2106 H         1 8TZ         0.0525
     19 H2         14.9131    4.2097   53.5304 H         1 8TZ         0.0530
     20 H3         17.2519    4.4009   54.3384 H         1 8TZ         0.0534
     21 H4         17.2756    7.8755   57.4993 H         1 8TZ         0.0412
     22 H5         15.6669    7.6520   58.2667 H         1 8TZ         0.0412
     23 H6         14.6732    9.3333   56.7424 H         1 8TZ         0.0283
     24 H7         16.2411    9.5139   55.8847 H         1 8TZ         0.0283
     25 H8         18.2399    6.3710   57.2763 H         1 8TZ         0.0969
     26 H9         19.8128    7.1711   55.7913 H         1 8TZ         0.2165
     27 H10        20.1356    5.1345   54.2751 H         1 8TZ         0.2373
     28 H11        20.9310    2.6748   54.5532 H         1 8TZ         0.0796
     29 H12        19.6875    1.6973   56.6619 H         1 8TZ         0.0410
     30 H13        15.9326   11.3827   57.5950 H         1 8TZ         0.0231
     31 H14        17.3258   10.3404   58.0413 H         1 8TZ         0.0231
     32 H15        15.7579   10.1598   58.8990 H         1 8TZ         0.0231
@<TRIPOS>BOND
     1    1    2 ar 
     2    1    6 ar 
     3    2    3 ar 
     4    2   16 1  
     5    3    4 ar 
     6    4    5 ar 
     7    5    6 ar 
     8    5    9 1  
     9    6    7 1  
    10    7    8 1  
    11    8   17 1  
    12    9   10 1  
    13    9   11 1  
    14   10   12 1  
    15   10   15 2  
    16   12   13 1  
    17   13   14 2  
    18   14   15 1  
    19    1   18 1  
    20    3   19 1  
    21    4   20 1  
    22    7   21 1  
    23    7   22 1  
    24    8   23 1  
    25    8   24 1  
    26    9   25 1  
    27   11   26 1  
    28   12   27 1  
    29   13   28 1  
    30   14   29 1  
    31   17   30 1  
    32   17   31 1  
    33   17   32 1  
@<TRIPOS>SUBSTRUCTURE
     1 8TZ         1

