### 
### Created by X-TOOL on Tue Oct 16 15:18:05 2018
### 

@<TRIPOS>MOLECULE
5ndf_ligand
   31    33     1     0     0
SMALL
GAST_HUCK


@<TRIPOS>ATOM
      1 C1         18.5010  -44.2570  -37.2030 C.ar      1 LU2        -0.0034
      2 O1         17.7390  -46.3130  -36.1150 O.3       1 LU2        -0.3350
      3 C2         18.3090  -45.1160  -36.0950 C.ar      1 LU2         0.0776
      4 O2         19.6400  -43.2050  -33.5220 O.3       1 LU2        -0.3325
      5 C3         18.6950  -44.7750  -34.8600 C.ar      1 LU2        -0.0085
      6 O3         20.1550  -41.0690  -34.5170 O.2       1 LU2        -0.4197
      7 C4         19.2640  -43.5570  -34.7640 C.ar      1 LU2         0.0938
      8 O4         19.3610  -42.0400  -38.1780 O.3       1 LU2        -0.2399
      9 C5         19.4770  -42.6810  -35.8520 C.ar      1 LU2         0.0795
     10 O5         21.3110  -38.6820  -41.8480 O.2       1 LU2        -0.4068
     11 C6         19.0940  -42.9860  -37.1320 C.ar      1 LU2         0.1289
     12 O6         20.4910  -36.3200  -41.0730 O.3       1 LU2        -0.3377
     13 C7         20.0160  -41.4500  -35.6360 C.2       1 LU2         0.1089
     14 C8         20.0820  -40.4510  -36.5370 C.2       1 LU2         0.0185
     15 C9         19.8420  -40.7610  -37.8330 C.2       1 LU2         0.1554
     16 C10        20.0020  -39.6610  -38.6870 C.2       1 LU2         0.0374
     17 C11        20.6320  -39.7610  -39.9100 C.2       1 LU2         0.0014
     18 C12        20.7460  -38.6190  -40.6630 C.2       1 LU2         0.1462
     19 C13        20.3060  -37.3790  -40.2460 C.2       1 LU2         0.1269
     20 C14        19.6920  -37.2340  -39.0230 C.2       1 LU2        -0.0301
     21 C15        19.5490  -38.3740  -38.2490 C.3       1 LU2         0.0194
     22 H1         18.1671  -44.6042  -38.1741 H         1 LU2         0.0400
     23 H2         18.2276  -46.8855  -36.6947 H         1 LU2         0.2495
     24 H3         20.0291  -42.3386  -33.5437 H         1 LU2         0.2504
     25 H4         18.5607  -45.4269  -34.0044 H         1 LU2         0.0403
     26 H5         20.0386  -36.4775  -41.8934 H         1 LU2         0.2430
     27 H6         20.3195  -39.4322  -36.2345 H         1 LU2         0.0511
     28 H7         21.0250  -40.7123  -40.2656 H         1 LU2         0.0590
     29 H8         19.3340  -36.2649  -38.6785 H         1 LU2         0.0582
     30 H9         20.0739  -38.1701  -37.3041 H         1 LU2         0.0641
     31 H10        18.4714  -38.4787  -38.0547 H         1 LU2         0.0641
@<TRIPOS>BOND
     1    1    3 ar 
     2   11    1 ar 
     3    3    2 1  
     4    3    5 ar 
     5    7    4 1  
     6    7    5 ar 
     7   13    6 2  
     8    9    7 ar 
     9    8   11 1  
    10   15    8 1  
    11   11    9 ar 
    12   13    9 1  
    13   18   10 2  
    14   19   12 1  
    15   14   13 1  
    16   15   14 2  
    17   16   15 1  
    18   17   16 2  
    19   16   21 1  
    20   18   17 1  
    21   18   19 1  
    22   19   20 2  
    23   20   21 1  
    24    1   22 1  
    25    2   23 1  
    26    4   24 1  
    27    5   25 1  
    28   12   26 1  
    29   14   27 1  
    30   17   28 1  
    31   20   29 1  
    32   21   30 1  
    33   21   31 1  
@<TRIPOS>SUBSTRUCTURE
     1 LU2         1

