### 
### Created by X-TOOL on Mon Sep 10 21:13:31 2018
### 

@<TRIPOS>MOLECULE
5ne3_ligand
   30    30     1     0     0
SMALL
GAST_HUCK


@<TRIPOS>ATOM
      1 OAC       154.9220  162.7150  289.3250 O.2       1 NXL        -0.3828
      2 CAN       156.0450  162.3810  289.0940 C.2       1 NXL         0.1743
      3 N         156.3280  161.2100  288.6030 N.am      1 NXL        -0.2479
      4 CAJ       157.6370  160.8310  288.1620 C.3       1 NXL         0.0807
      5 CA        155.3510  160.1790  288.5280 C.3       1 NXL         0.1340
      6 C         155.5100  159.1410  289.5940 C.2       1 NXL         0.1996
      7 O         156.4410  159.1280  290.3390 O.2       1 NXL        -0.3947
      8 NAA       154.6440  158.1980  289.7240 N.am      1 NXL        -0.2989
      9 CB        155.3270  159.4830  287.1510 C.3       1 NXL        -0.0069
     10 CAH       156.6910  159.1010  286.6490 C.3       1 NXL        -0.0025
     11 CAO       157.7100  160.2280  286.7460 C.3       1 NXL         0.0316
     12 NAK       157.4890  161.2510  285.6720 N.4       1 NXL         0.4138
     13 OAL       156.3410  161.6310  285.5350 O.3       1 NXL        -0.2010
     14 SAR       156.1850  163.3350  285.3610 S.o2      1 NXL        -0.0327
     15 OAD       156.5930  163.7910  286.5920 O.co2     1 NXL        -0.4578
     16 OAE       156.9980  163.5290  284.3300 O.co2     1 NXL        -0.4578
     17 OAG       154.8500  163.5440  285.2090 O.co2     1 NXL        -0.4578
     18 H1        156.8564  163.0774  289.3005 H         1 NXL         0.1547
     19 H2        158.0303  160.0854  288.8687 H         1 NXL         0.0583
     20 H3        158.2744  161.7273  288.1821 H         1 NXL         0.0583
     21 H4        154.3718  160.6578  288.6758 H         1 NXL         0.0804
     22 H5        154.7588  157.5088  290.4394 H         1 NXL         0.1815
     23 H6        153.8562  158.1544  289.1096 H         1 NXL         0.1815
     24 H7        154.8670  160.1673  286.4229 H         1 NXL         0.0314
     25 H8        154.7178  158.5707  287.2325 H         1 NXL         0.0314
     26 H9        156.6027  158.8010  285.5944 H         1 NXL         0.0323
     27 H10       157.0552  158.2499  287.2431 H         1 NXL         0.0323
     28 H11       158.7150  159.8043  286.6033 H         1 NXL         0.0882
     29 H12       157.7898  160.8515  284.7968 H         1 NXL         0.2382
     30 H13       158.0578  162.0547  285.8877 H         1 NXL         0.2382
@<TRIPOS>BOND
     1    1    2 2  
     2    2    3 am 
     3    3    4 1  
     4    3    5 1  
     5    4   11 1  
     6    5    6 1  
     7    5    9 1  
     8    6    7 2  
     9    6    8 am 
    10    9   10 1  
    11   10   11 1  
    12   11   12 1  
    13   12   13 1  
    14   13   14 1  
    15   14   15 ar 
    16   14   16 ar 
    17   14   17 ar 
    18    2   18 1  
    19    4   19 1  
    20    4   20 1  
    21    5   21 1  
    22    8   22 1  
    23    8   23 1  
    24    9   24 1  
    25    9   25 1  
    26   10   26 1  
    27   10   27 1  
    28   11   28 1  
    29   12   29 1  
    30   12   30 1  
@<TRIPOS>SUBSTRUCTURE
     1 NXL         1

