### 
### Created by X-TOOL on Mon Sep 10 21:13:30 2018
### 

@<TRIPOS>MOLECULE
5ne5_ligand
   28    29     1     0     0
SMALL
GAST_HUCK


@<TRIPOS>ATOM
      1 C4         23.9050   18.7540   47.9100 C.3       1 KIF         0.1090
      2 O4         22.9670   18.3270   46.9040 O.3       1 KIF        -0.3868
      3 C3         24.9420   17.6260   48.1550 C.3       1 KIF         0.1133
      4 O3         25.7330   17.8770   49.3440 O.3       1 KIF        -0.3864
      5 C2         25.9520   17.5000   46.9900 C.3       1 KIF         0.1280
      6 O2         26.9220   16.5120   47.3720 O.3       1 KIF        -0.3847
      7 C1         26.6140   18.8580   46.7500 C.3       1 KIF         0.1599
      8 N9         27.4300   18.9130   45.5050 N.am      1 KIF        -0.2491
      9 C8         26.9180   19.7870   44.6440 C.2       1 KIF         0.2867
     10 O8         27.3710   20.0300   43.4970 O.2       1 KIF        -0.3583
     11 C7         25.6920   20.4130   45.2330 C.2       1 KIF         0.2894
     12 O7         24.9820   21.2800   44.7290 O.2       1 KIF        -0.3581
     13 N          25.5880   19.8690   46.4850 N.am      1 KIF        -0.2273
     14 C5         24.5210   20.0880   47.4930 C.3       1 KIF         0.0996
     15 C6         25.0170   20.8800   48.7010 C.3       1 KIF         0.0701
     16 O6         25.8060   22.0260   48.3480 O.3       1 KIF        -0.3926
     17 H1         23.3605   18.9176   48.8517 H         1 KIF         0.0644
     18 H2         22.5207   17.5428   47.2012 H         1 KIF         0.2100
     19 H3         24.3981   16.6769   48.2702 H         1 KIF         0.0647
     20 H4         25.1596   17.9271   50.0997 H         1 KIF         0.2100
     21 H5         25.4353   17.1789   46.0736 H         1 KIF         0.0665
     22 H6         27.5597   16.4100   46.6753 H         1 KIF         0.2101
     23 H7         27.2239   19.1225   47.6263 H         1 KIF         0.0861
     24 H8         28.2512   18.3668   45.3394 H         1 KIF         0.1890
     25 H9         23.7310   20.6849   47.0140 H         1 KIF         0.0610
     26 H10        25.6300   20.2143   49.3263 H         1 KIF         0.0581
     27 H11        24.1438   21.2219   49.2759 H         1 KIF         0.0581
     28 H12        26.5697   21.7445   47.8581 H         1 KIF         0.2095
@<TRIPOS>BOND
     1    1    2 1  
     2    1    3 1  
     3    1   14 1  
     4    3    4 1  
     5    3    5 1  
     6    5    6 1  
     7    5    7 1  
     8    7    8 1  
     9    7   13 1  
    10    8    9 am 
    11    9   10 2  
    12    9   11 1  
    13   11   12 2  
    14   11   13 am 
    15   13   14 1  
    16   14   15 1  
    17   15   16 1  
    18    1   17 1  
    19    2   18 1  
    20    3   19 1  
    21    4   20 1  
    22    5   21 1  
    23    6   22 1  
    24    7   23 1  
    25    8   24 1  
    26   14   25 1  
    27   15   26 1  
    28   15   27 1  
    29   16   28 1  
@<TRIPOS>SUBSTRUCTURE
     1 KIF         1

