### 
### Created by X-TOOL on Mon Sep 10 21:13:31 2018
### 

@<TRIPOS>MOLECULE
5nea_ligand
   26    27     1     0     0
SMALL
GAST_HUCK


@<TRIPOS>ATOM
      1 C2         -3.3130    3.3330   14.8610 C.ar      1 8V8        -0.0544
      2 C6         -5.4890    4.3110   14.6280 C.ar      1 8V8        -0.0544
      3 C5         -6.0470    3.2550   15.3260 C.ar      1 8V8        -0.0385
      4 C3         -3.8620    2.2650   15.5540 C.ar      1 8V8        -0.0385
      5 C1         -4.1200    4.3610   14.3760 C.ar      1 8V8         0.0075
      6 C11        -3.5470    5.5010   13.6580 C.2       1 8V8         0.1352
      7 C12        -4.0270    6.4480   12.8290 C.2       1 8V8        -0.0031
      8 N13        -3.0390    7.3390   12.4830 N.2       1 8V8        -0.3107
      9 C14        -1.9990    6.8790   13.0950 C.2       1 8V8         0.1780
     10 O15        -2.1740    5.6500   13.6800 O.3       1 8V8        -0.2254
     11 C16        -0.6350    7.4540   13.1420 C.3       1 8V8         0.0264
     12 C4         -5.2310    2.2330   15.7870 C.ar      1 8V8         0.1043
     13 S7         -5.9430    0.9090   16.7200 S.o2      1 8V8         0.0643
     14 O8         -5.4230    1.0260   18.0520 O.2       1 8V8        -0.1509
     15 O9         -7.3690    0.9950   16.5360 O.2       1 8V8        -0.1509
     16 N10        -5.4370   -0.4810   16.0890 N.am      1 8V8        -0.2613
     17 H1         -2.2425    3.3691   14.6942 H         1 8V8         0.0593
     18 H2         -6.1269    5.1118   14.2717 H         1 8V8         0.0593
     19 H3         -7.1147    3.2266   15.5113 H         1 8V8         0.0627
     20 H4         -3.2280    1.4615   15.9111 H         1 8V8         0.0627
     21 H5         -5.0574    6.5006   12.4804 H         1 8V8         0.0532
     22 H6         -0.6326    8.4335   12.6415 H         1 8V8         0.0494
     23 H7          0.0656    6.7785   12.6292 H         1 8V8         0.0494
     24 H8         -0.3249    7.5771   14.1902 H         1 8V8         0.0494
     25 H9         -5.7365   -1.3487   16.4858 H         1 8V8         0.1634
     26 H10        -4.8228   -0.4777   15.2998 H         1 8V8         0.1634
@<TRIPOS>BOND
     1    1    4 ar 
     2    5    1 ar 
     3    2    3 ar 
     4    2    5 ar 
     5    3   12 ar 
     6    4   12 ar 
     7    5    6 1  
     8    6    7 2  
     9    6   10 1  
    10    7    8 1  
    11    8    9 2  
    12    9   10 1  
    13    9   11 1  
    14   12   13 1  
    15   13   14 2  
    16   13   15 2  
    17   13   16 am 
    18    1   17 1  
    19    2   18 1  
    20    3   19 1  
    21    4   20 1  
    22    7   21 1  
    23   11   22 1  
    24   11   23 1  
    25   11   24 1  
    26   16   25 1  
    27   16   26 1  
@<TRIPOS>SUBSTRUCTURE
     1 8V8         1

