### 
### Created by X-TOOL on Mon Sep 10 21:13:32 2018
### 

@<TRIPOS>MOLECULE
5neb_ligand
   25    26     1     0     0
SMALL
GAST_HUCK


@<TRIPOS>ATOM
      1 N1         -6.0300  -24.4260  -32.2160 N.pl3     1 8VE        -0.2529
      2 N3         -5.0820  -25.1450  -29.1260 N.4       1 8VE         0.2445
      3 C4         -6.6560  -26.1430  -30.6720 C.3       1 8VE         0.0936
      4 C5         -6.2580  -26.1420  -29.1650 C.3       1 8VE         0.0461
      5 C6         -5.4120  -23.0500  -31.9210 C.3       1 8VE         0.0273
      6 C7         -9.2230  -25.4990  -30.6770 C.2       1 8VE         0.0777
      7 C8         -5.8220  -27.4720  -28.4730 C.2       1 8VE         0.0871
      8 C1         -7.8100  -25.2490  -31.1700 C.2       1 8VE         0.0871
      9 N2         -7.4660  -24.3190  -31.9920 N.2       1 8VE        -0.2155
     10 C2         -4.3240  -25.3660  -30.4380 C.3       1 8VE        -0.0054
     11 C3         -5.4590  -25.6310  -31.4550 C.3       1 8VE         0.1084
     12 O1         -9.4450  -26.5620  -30.0500 O.co2     1 8VE        -0.5590
     13 O2         -6.6020  -28.4470  -28.5290 O.co2     1 8VE        -0.5641
     14 O3        -10.0930  -24.6310  -30.9300 O.co2     1 8VE        -0.5590
     15 O4         -4.7170  -27.5430  -27.8800 O.co2     1 8VE        -0.5641
     16 H1         -4.4845  -25.3340  -28.3365 H         1 8VE         0.2033
     17 H2         -5.4231  -24.1981  -29.0702 H         1 8VE         0.2033
     18 H3         -6.8866  -27.1824  -30.9484 H         1 8VE         0.0576
     19 H4         -7.1093  -25.7491  -28.5897 H         1 8VE         0.1054
     20 H5         -4.3246  -23.0947  -32.0806 H         1 8VE         0.0489
     21 H6         -5.6182  -22.7716  -30.8770 H         1 8VE         0.0489
     22 H7         -5.8508  -22.2990  -32.5943 H         1 8VE         0.0489
     23 H8         -3.6495  -26.2317  -30.3639 H         1 8VE         0.0839
     24 H9         -3.7451  -24.4728  -30.7155 H         1 8VE         0.0839
     25 H10        -5.1061  -26.3798  -32.1794 H         1 8VE         0.0644
@<TRIPOS>BOND
     1    1    5 1  
     2    1    9 1  
     3   11    1 1  
     4    4    2 1  
     5    2   10 1  
     6    3    4 1  
     7    3    8 1  
     8    3   11 1  
     9    4    7 1  
    10    8    6 1  
    11    6   12 ar 
    12    6   14 ar 
    13    7   13 ar 
    14    7   15 ar 
    15    8    9 2  
    16   10   11 1  
    17    2   16 1  
    18    2   17 1  
    19    3   18 1  
    20    4   19 1  
    21    5   20 1  
    22    5   21 1  
    23    5   22 1  
    24   10   23 1  
    25   10   24 1  
    26   11   25 1  
@<TRIPOS>SUBSTRUCTURE
     1 8VE         1

