### 
### Created by X-TOOL on Mon Sep 10 21:13:32 2018
### 

@<TRIPOS>MOLECULE
5nee_ligand
   35    37     1     0     0
SMALL
GAST_HUCK


@<TRIPOS>ATOM
      1 S1         -5.8300    0.9270   16.5530 S.o2      1 8V5         0.0756
      2 C1         -4.9770    2.1220   15.5800 C.2       1 8V5         0.1619
      3 S2         -5.8140    3.4210   14.8170 S.3       1 8V5        -0.0089
      4 C3         -4.3240    4.0920   14.2150 C.2       1 8V5         0.0711
      5 C4         -3.2520    3.3090   14.6030 C.2       1 8V5        -0.0644
      6 C5         -3.6200    2.1930   15.3750 C.2       1 8V5        -0.0479
      7 C11        -4.1860    5.3020   13.4290 C.2       1 8V5         0.1547
      8 C12        -3.2200    6.2000   13.1540 C.2       1 8V5         0.0165
      9 N13        -3.6970    7.1750   12.3050 N.2       1 8V5        -0.2841
     10 C14        -4.9450    6.8360   12.0870 C.2       1 8V5         0.2712
     11 O15        -5.3170    5.7130   12.7440 O.3       1 8V5        -0.2129
     12 C16        -5.9040    7.5040   11.1390 C.2       1 8V5         0.2673
     13 O22        -7.2310    1.1050   16.3310 O.2       1 8V5        -0.1497
     14 O23        -5.2900    1.0400   17.8720 O.2       1 8V5        -0.1497
     15 N24        -5.4160   -0.4900   15.9800 N.am      1 8V5        -0.2602
     16 O25        -6.9960    6.9800   10.9150 O.2       1 8V5        -0.3736
     17 N2         -5.5130    8.6250   10.5320 N.am      1 8V5        -0.2625
     18 C6         -5.2970    9.7510   11.2600 C.3       1 8V5         0.0571
     19 C7         -3.8460   10.2340   11.2390 C.3       1 8V5         0.0680
     20 O8         -2.9870    9.2570   10.6470 O.3       1 8V5        -0.3758
     21 C9         -3.4380    8.7980    9.3000 C.3       1 8V5         0.0680
     22 C10        -4.9280    8.5720    9.2200 C.3       1 8V5         0.0571
     23 H1         -2.2208    3.5354   14.3359 H         1 8V5         0.0433
     24 H2         -2.9095    1.4665   15.7665 H         1 8V5         0.0443
     25 H3         -2.2052    6.1609   13.5472 H         1 8V5         0.0568
     26 H4         -5.7884   -1.3230   16.3891 H         1 8V5         0.1635
     27 H5         -4.7821   -0.5518   15.2090 H         1 8V5         0.1635
     28 H6         -5.5793    9.5481   12.3036 H         1 8V5         0.0545
     29 H7         -5.9343   10.5517   10.8567 H         1 8V5         0.0545
     30 H8         -3.5158   10.4246   12.2708 H         1 8V5         0.0580
     31 H9         -3.7857   11.1653   10.6567 H         1 8V5         0.0580
     32 H10        -2.9274    7.8530    9.0630 H         1 8V5         0.0580
     33 H11        -3.1594    9.5613    8.5586 H         1 8V5         0.0580
     34 H12        -5.3797    9.3521    8.5897 H         1 8V5         0.0545
     35 H13        -5.1216    7.5843    8.7762 H         1 8V5         0.0545
@<TRIPOS>BOND
     1    1    2 1  
     2    1   13 2  
     3    1   14 2  
     4    1   15 am 
     5    2    3 1  
     6    2    6 2  
     7    3    4 1  
     8    4    5 2  
     9    4    7 1  
    10    5    6 1  
    11    7    8 2  
    12    7   11 1  
    13    8    9 1  
    14    9   10 2  
    15   10   11 1  
    16   10   12 1  
    17   12   16 2  
    18   12   17 am 
    19   17   18 1  
    20   17   22 1  
    21   18   19 1  
    22   19   20 1  
    23   20   21 1  
    24   21   22 1  
    25    5   23 1  
    26    6   24 1  
    27    8   25 1  
    28   15   26 1  
    29   15   27 1  
    30   18   28 1  
    31   18   29 1  
    32   19   30 1  
    33   19   31 1  
    34   21   32 1  
    35   21   33 1  
    36   22   34 1  
    37   22   35 1  
@<TRIPOS>SUBSTRUCTURE
     1 8V5         1

