### 
### Created by X-TOOL on Mon Sep 10 21:13:34 2018
### 

@<TRIPOS>MOLECULE
5nev_ligand
   50    54     1     0     0
SMALL
GAST_HUCK


@<TRIPOS>ATOM
      1 C5         -9.3580  -20.5510   22.1990 C.2       1 72L         0.1119
      2 C6         -5.2320  -25.1460   25.4970 C.ar      1 72L         0.0634
      3 C11        -4.7850  -25.7990   26.6460 C.ar      1 72L        -0.0369
      4 C7         -4.5320  -25.3470   24.3000 C.ar      1 72L        -0.0369
      5 C8         -3.4200  -26.1570   24.2660 C.ar      1 72L        -0.0451
      6 C9         -3.0130  -26.7970   25.4060 C.ar      1 72L         0.0960
      7 C10        -3.6780  -26.6120   26.6020 C.ar      1 72L        -0.0451
      8 N1         -5.8480  -22.8780   23.7420 N.ar      1 72L        -0.2594
      9 N2         -8.0440  -22.8830   24.5100 N.ar      1 72L        -0.2650
     10 N3         -9.5190  -21.3900   23.2500 N.2       1 72L        -0.2851
     11 CB         -6.1130  -21.9810   22.7510 C.ar      1 72L         0.0812
     12 C2         -6.7760  -23.3300   24.6080 C.ar      1 72L         0.1899
     13 C          -8.3750  -21.9850   23.5400 C.ar      1 72L         0.1010
     14 CA         -7.4240  -21.5220   22.6350 C.ar      1 72L         0.1299
     15 N          -8.1090  -20.5710   21.7390 N.pl3     1 72L        -0.2413
     16 N5         -6.4140  -24.2890   25.6120 N.pl3     1 72L        -0.2483
     17 S1         -1.6170  -27.7930   25.2700 S.o2      1 72L         0.0607
     18 OH         -1.7360  -28.6500   24.1620 O.2       1 72L        -0.1520
     19 N6         -0.4980  -26.5940   24.9660 N.am      1 72L        -0.2622
     20 O2         -1.3360  -28.5610   26.4290 O.2       1 72L        -0.1520
     21 CG         -5.0150  -21.5730   21.8200 C.ar      1 72L         0.0035
     22 CD1        -5.1760  -20.7020   20.7060 C.ar      1 72L        -0.0493
     23 CE1        -4.0900  -20.4060   19.8760 C.ar      1 72L        -0.0577
     24 C15        -2.8450  -20.9740   20.1240 C.ar      1 72L        -0.0514
     25 CE2        -2.7080  -21.8170   21.2020 C.ar      1 72L        -0.0144
     26 CD2        -3.7530  -22.1330   22.0350 C.ar      1 72L        -0.0416
     27 C18        -1.4190  -22.4290   21.4930 C.ar      1 72L        -0.0172
     28 C19        -1.3260  -23.7720   21.3220 C.ar      1 72L        -0.0540
     29 C20        -0.1450  -24.3590   21.5890 C.ar      1 72L        -0.0612
     30 C21         0.9310  -23.6010   22.0200 C.ar      1 72L        -0.0617
     31 C22         0.8160  -22.2430   22.1870 C.ar      1 72L        -0.0612
     32 C23        -0.3750  -21.6510   21.9200 C.ar      1 72L        -0.0540
     33 H1        -10.1532  -19.9353   21.7813 H         1 72L         0.1410
     34 H2         -5.3155  -25.6639   27.5816 H         1 72L         0.0534
     35 H3         -4.8695  -24.8599   23.3923 H         1 72L         0.0534
     36 H4         -2.8692  -26.2877   23.3416 H         1 72L         0.0606
     37 H5         -3.3285  -27.1056   27.5016 H         1 72L         0.0606
     38 H6         -7.7142  -20.0466   20.9453 H         1 72L         0.2377
     39 H7         -7.0096  -24.3783   26.4475 H         1 72L         0.2150
     40 H8          0.4638  -26.8309   24.8284 H         1 72L         0.1633
     41 H9         -0.7889  -25.6383   24.9213 H         1 72L         0.1633
     42 H10        -6.1464  -20.2653   20.4996 H         1 72L         0.0648
     43 H11        -4.2190  -19.7319   19.0369 H         1 72L         0.0625
     44 H12        -1.9999  -20.7567   19.4808 H         1 72L         0.0645
     45 H13        -3.5986  -22.8181   22.8608 H         1 72L         0.0655
     46 H14        -2.1754  -24.3530   20.9814 H         1 72L         0.0624
     47 H15        -0.0352  -25.4304   21.4661 H         1 72L         0.0618
     48 H16         1.8774  -24.0867   22.2285 H         1 72L         0.0618
     49 H17         1.6612  -21.6549   22.5259 H         1 72L         0.0618
     50 H18        -0.4987  -20.5810   22.0423 H         1 72L         0.0624
@<TRIPOS>BOND
     1   10    1 2  
     2    1   15 1  
     3    2    3 ar 
     4    2    4 ar 
     5   16    2 1  
     6    3    7 ar 
     7    4    5 ar 
     8    5    6 ar 
     9    7    6 ar 
    10    6   17 1  
    11    8   11 ar 
    12   12    8 ar 
    13   12    9 ar 
    14    9   13 ar 
    15   13   10 1  
    16   11   14 ar 
    17   11   21 1  
    18   12   16 1  
    19   13   14 ar 
    20   14   15 1  
    21   17   18 2  
    22   17   19 am 
    23   17   20 2  
    24   21   22 ar 
    25   21   26 ar 
    26   22   23 ar 
    27   23   24 ar 
    28   24   25 ar 
    29   25   26 ar 
    30   25   27 1  
    31   27   28 ar 
    32   27   32 ar 
    33   28   29 ar 
    34   29   30 ar 
    35   30   31 ar 
    36   31   32 ar 
    37    1   33 1  
    38    3   34 1  
    39    4   35 1  
    40    5   36 1  
    41    7   37 1  
    42   15   38 1  
    43   16   39 1  
    44   19   40 1  
    45   19   41 1  
    46   22   42 1  
    47   23   43 1  
    48   24   44 1  
    49   26   45 1  
    50   28   46 1  
    51   29   47 1  
    52   30   48 1  
    53   31   49 1  
    54   32   50 1  
@<TRIPOS>SUBSTRUCTURE
     1 72L         1

