### 
### Created by X-TOOL on Mon Sep 10 21:13:33 2018
### 

@<TRIPOS>MOLECULE
5nf5_ligand
   21    22     1     0     0
SMALL
GAST_HUCK


@<TRIPOS>ATOM
      1 C1         -0.2410  -33.3070  -17.9150 C.3       1 8VN         0.0043
      2 C2          1.1210  -31.3580  -17.6170 C.3       1 8VN         0.0467
      3 C3          2.4930  -33.1140  -19.0280 C.2       1 8VN         0.0992
      4 C4          1.4720  -32.0060  -18.9890 C.3       1 8VN         0.1035
      5 C5          0.2400  -32.8300  -19.2910 C.3       1 8VN         0.1597
      6 C6          3.8880  -32.9700  -18.4310 C.2       1 8VN         0.0780
      7 C7          0.6310  -29.9000  -17.8080 C.2       1 8VN         0.0871
      8 O1          0.7260  -33.9350  -20.0400 O.3       1 8VN        -0.2354
      9 O3          4.4860  -34.0200  -18.1040 O.co2     1 8VN        -0.5592
     10 O4         -0.3540  -29.4700  -17.1670 O.co2     1 8VN        -0.5641
     11 O5          1.2500  -29.1690  -18.6070 O.co2     1 8VN        -0.5641
     12 N1          0.0340  -32.1700  -17.0290 N.4       1 8VN         0.2451
     13 N2          2.0580  -34.1590  -19.6060 N.2       1 8VN        -0.1568
     14 O2          4.3740  -31.8280  -18.2990 O.co2     1 8VN        -0.5592
     15 H1          0.3179  -34.1979  -17.5927 H         1 8VN         0.0847
     16 H2         -1.3167  -33.5361  -17.9346 H         1 8VN         0.0847
     17 H3          2.0026  -31.3662  -16.9592 H         1 8VN         0.1054
     18 H4          1.6996  -31.2289  -19.7335 H         1 8VN         0.0581
     19 H5         -0.5367  -32.2704  -19.8327 H         1 8VN         0.0760
     20 H6          0.3164  -32.5079  -16.1223 H         1 8VN         0.2033
     21 H7         -0.7962  -31.6063  -16.9340 H         1 8VN         0.2033
@<TRIPOS>BOND
     1    1    5 1  
     2   12    1 1  
     3    2    4 1  
     4    2    7 1  
     5    2   12 1  
     6    4    3 1  
     7    3    6 1  
     8    3   13 2  
     9    4    5 1  
    10    5    8 1  
    11    6    9 ar 
    12    6   14 ar 
    13    7   10 ar 
    14    7   11 ar 
    15    8   13 1  
    16    1   15 1  
    17    1   16 1  
    18    2   17 1  
    19    4   18 1  
    20    5   19 1  
    21   12   20 1  
    22   12   21 1  
@<TRIPOS>SUBSTRUCTURE
     1 8VN         1

