### 
### Created by X-TOOL on Mon Sep 10 21:13:33 2018
### 

@<TRIPOS>MOLECULE
5nf6_ligand
   21    22     1     0     0
SMALL
GAST_HUCK


@<TRIPOS>ATOM
      1 C1         19.8260   -7.4290  104.0380 C.3       1 8VN         0.0043
      2 C2         21.5590   -6.8100  105.5830 C.3       1 8VN         0.0467
      3 C3         19.5310   -5.5640  106.6740 C.2       1 8VN         0.0992
      4 C4         20.2290   -6.8680  106.3940 C.3       1 8VN         0.1035
      5 C5         19.2220   -7.5060  105.4490 C.3       1 8VN         0.1597
      6 C6         20.2010   -4.4540  107.4770 C.2       1 8VN         0.0780
      7 C7         22.6700   -7.6900  106.2090 C.2       1 8VN         0.0871
      8 O1         18.0500   -6.6950  105.5020 O.3       1 8VN        -0.2354
      9 O3         21.1710   -4.7430  108.2100 O.co2     1 8VN        -0.5592
     10 O4         22.7540   -7.7660  107.4500 O.co2     1 8VN        -0.5641
     11 O5         23.4730   -8.2960  105.4640 O.co2     1 8VN        -0.5641
     12 N1         21.2760   -7.3580  104.2450 N.4       1 8VN         0.2451
     13 N2         18.3620   -5.4930  106.1830 N.2       1 8VN        -0.1568
     14 O2         19.7420   -3.2940  107.3650 O.co2     1 8VN        -0.5592
     15 H1         19.4668   -6.5317  103.5128 H         1 8VN         0.0847
     16 H2         19.5627   -8.3245  103.4561 H         1 8VN         0.0847
     17 H3         21.9057   -5.7684  105.5129 H         1 8VN         0.1054
     18 H4         20.3814   -7.4374  107.3227 H         1 8VN         0.0581
     19 H5         19.0006   -8.5460  105.7306 H         1 8VN         0.0760
     20 H6         21.6859   -6.7603  103.5444 H         1 8VN         0.2033
     21 H7         21.6709   -8.2824  104.1709 H         1 8VN         0.2033
@<TRIPOS>BOND
     1    1    5 1  
     2   12    1 1  
     3    2    4 1  
     4    2    7 1  
     5    2   12 1  
     6    4    3 1  
     7    3    6 1  
     8    3   13 2  
     9    4    5 1  
    10    5    8 1  
    11    6    9 ar 
    12    6   14 ar 
    13    7   10 ar 
    14    7   11 ar 
    15    8   13 1  
    16    1   15 1  
    17    1   16 1  
    18    2   17 1  
    19    4   18 1  
    20    5   19 1  
    21   12   20 1  
    22   12   21 1  
@<TRIPOS>SUBSTRUCTURE
     1 8VN         1

