### 
### Created by X-TOOL on Mon Sep 10 21:13:30 2018
### 

@<TRIPOS>MOLECULE
5nf9_ligand
   68    70     1     0     0
SMALL
GAST_HUCK


@<TRIPOS>ATOM
      1 O35        27.0040  -12.6120   -2.3550 O.2       1 8VW        -0.3973
      2 C33        27.4210  -11.5110   -2.0100 C.2       1 8VW         0.1749
      3 C34        28.8710  -11.1370   -2.1240 C.3       1 8VW         0.0257
      4 N1         26.6130  -10.5660   -1.5040 N.am      1 8VW        -0.2589
      5 UNK_5      25.2040  -10.7430   -1.3030 C.3       1 8VW         0.1688
      6 UNK_6      24.8400   -9.8420   -0.0960 C.3       1 8VW         0.1172
      7 N2         25.5050  -10.3600    1.0850 N.am      1 8VW        -0.2760
      8 C36        26.6580   -9.8950    1.5970 C.2       1 8VW         0.2029
      9 C38        27.1270  -10.4270    2.9390 C.ar      1 8VW         0.0411
     10 C39        26.7040  -11.6530    3.5280 C.ar      1 8VW        -0.0531
     11 C40        27.1560  -11.9810    4.8290 C.ar      1 8VW        -0.0649
     12 C41        28.0180  -11.0780    5.5060 C.ar      1 8VW        -0.0288
     13 C42        28.4380   -9.8700    4.8980 C.ar      1 8VW         0.0960
     14 O44        29.2890   -8.9850    5.5150 O.3       1 8VW        -0.3202
     15 C45        29.4300   -7.6010    5.1720 C.3       1 8VW         0.0594
     16 C43        27.9820   -9.5550    3.6290 C.ar      1 8VW        -0.0135
     17 O37        27.2590   -8.9700    1.0750 O.2       1 8VW        -0.3847
     18 UNK_18     24.4710  -10.2870   -2.4520 O.3       1 8VW        -0.3439
     19 UNK_19     23.0630  -10.4800   -2.3050 C.3       1 8VW         0.1131
     20 UNK_20     22.4420  -10.1140   -3.6600 C.3       1 8VW         0.0730
     21 UNK_21     22.6220   -8.7100   -4.0180 O.3       1 8VW        -0.3924
     22 UNK_22     22.6120   -9.5450   -1.1570 C.3       1 8VW         0.1181
     23 UNK_23     23.3530   -9.8850    0.1270 C.3       1 8VW         0.1111
     24 UNK_24     23.0270   -9.0380    1.2490 O.3       1 8VW        -0.3867
     25 O1         21.2450   -9.7230   -0.9340 O.3       1 8VW        -0.3401
     26 C1         20.5030   -8.5660   -1.3500 C.3       1 8VW         0.1884
     27 C2         19.0720   -9.0000   -1.3250 C.3       1 8VW         0.1341
     28 O2         18.8030  -10.0030   -2.3280 O.3       1 8VW        -0.3841
     29 C3         18.1970   -7.7860   -1.6300 C.3       1 8VW         0.1141
     30 O3         16.8290   -8.1510   -1.5050 O.3       1 8VW        -0.3864
     31 C4         18.5290   -6.6300   -0.7080 C.3       1 8VW         0.1119
     32 O4         18.1230   -6.9660    0.6410 O.3       1 8VW        -0.3865
     33 C5         19.9990   -6.2750   -0.8310 C.3       1 8VW         0.1130
     34 O5         20.8090   -7.4240   -0.4970 O.3       1 8VW        -0.3405
     35 C6         20.4650   -5.1130    0.0560 C.3       1 8VW         0.0730
     36 O6         21.8380   -4.9880   -0.2400 O.3       1 8VW        -0.3924
     37 H1         29.0144  -10.1094   -1.7586 H         1 8VW         0.0467
     38 H2         29.1840  -11.1988   -3.1767 H         1 8VW         0.0467
     39 H3         29.4767  -11.8287   -1.5202 H         1 8VW         0.0467
     40 H4         27.0174   -9.6867   -1.2523 H         1 8VW         0.1877
     41 H5         24.9687  -11.7975   -1.0968 H         1 8VW         0.0893
     42 H6         25.1612   -8.8076   -0.2880 H         1 8VW         0.0630
     43 H7         25.0697  -11.1264    1.5573 H         1 8VW         0.1851
     44 H8         26.0461  -12.3246    2.9884 H         1 8VW         0.0575
     45 H9         26.8488  -12.9072    5.3011 H         1 8VW         0.0601
     46 H10        28.3606  -11.3177    6.5061 H         1 8VW         0.0578
     47 H11        30.1797   -7.1351    5.8284 H         1 8VW         0.0577
     48 H12        28.4636   -7.0913    5.2996 H         1 8VW         0.0577
     49 H13        29.7550   -7.5140    4.1247 H         1 8VW         0.0577
     50 H14        28.2889   -8.6251    3.1641 H         1 8VW         0.0592
     51 H15        22.8258  -11.5240   -2.0526 H         1 8VW         0.0647
     52 H16        21.3639  -10.3283   -3.6191 H         1 8VW         0.0584
     53 H17        22.9101  -10.7352   -4.4377 H         1 8VW         0.0584
     54 H18        23.5502   -8.5130   -4.0656 H         1 8VW         0.2095
     55 H19        22.8134   -8.4998   -1.4345 H         1 8VW         0.0650
     56 H20        23.0748  -10.9140    0.3987 H         1 8VW         0.0645
     57 H21        23.2405   -8.1370    1.0367 H         1 8VW         0.2100
     58 H22        20.7772   -8.2988   -2.3812 H         1 8VW         0.0938
     59 H23        18.8293   -9.4016   -0.3301 H         1 8VW         0.0671
     60 H24        17.8881  -10.2553   -2.2845 H         1 8VW         0.2101
     61 H25        18.3847   -7.4681   -2.6662 H         1 8VW         0.0648
     62 H26        16.6619   -8.4500   -0.6189 H         1 8VW         0.2100
     63 H27        17.9469   -5.7521   -1.0250 H         1 8VW         0.0647
     64 H28        17.1873   -7.1294    0.6575 H         1 8VW         0.2100
     65 H29        20.1853   -5.9972   -1.8789 H         1 8VW         0.0647
     66 H30        20.3142   -5.3482    1.1199 H         1 8VW         0.0584
     67 H31        19.9250   -4.1882   -0.1953 H         1 8VW         0.0584
     68 H32        22.2817   -5.8009   -0.0284 H         1 8VW         0.2095
@<TRIPOS>BOND
     1    1    2 2  
     2    2    3 1  
     3    2    4 am 
     4    4    5 1  
     5    5    6 1  
     6    5   18 1  
     7    6    7 1  
     8    6   23 1  
     9    7    8 am 
    10    8    9 1  
    11    8   17 2  
    12    9   10 ar 
    13    9   16 ar 
    14   10   11 ar 
    15   11   12 ar 
    16   12   13 ar 
    17   13   14 1  
    18   13   16 ar 
    19   14   15 1  
    20   18   19 1  
    21   19   20 1  
    22   19   22 1  
    23   20   21 1  
    24   22   23 1  
    25   22   25 1  
    26   23   24 1  
    27   25   26 1  
    28   26   27 1  
    29   26   34 1  
    30   27   28 1  
    31   27   29 1  
    32   29   30 1  
    33   29   31 1  
    34   31   32 1  
    35   31   33 1  
    36   33   34 1  
    37   33   35 1  
    38   35   36 1  
    39    3   37 1  
    40    3   38 1  
    41    3   39 1  
    42    4   40 1  
    43    5   41 1  
    44    6   42 1  
    45    7   43 1  
    46   10   44 1  
    47   11   45 1  
    48   12   46 1  
    49   15   47 1  
    50   15   48 1  
    51   15   49 1  
    52   16   50 1  
    53   19   51 1  
    54   20   52 1  
    55   20   53 1  
    56   21   54 1  
    57   22   55 1  
    58   23   56 1  
    59   24   57 1  
    60   26   58 1  
    61   27   59 1  
    62   28   60 1  
    63   29   61 1  
    64   30   62 1  
    65   31   63 1  
    66   32   64 1  
    67   33   65 1  
    68   35   66 1  
    69   35   67 1  
    70   36   68 1  
@<TRIPOS>SUBSTRUCTURE
     1 8VW         1

