### 
### Created by X-TOOL on Mon Sep 10 21:13:30 2018
### 

@<TRIPOS>MOLECULE
5nfa_ligand
   74    76     1     0     0
SMALL
GAST_HUCK


@<TRIPOS>ATOM
      1 C4         18.4210   -6.9290   -0.7660 C.3       1 8VQ         0.1124
      2 C3         18.0680   -8.1500   -1.5710 C.3       1 8VQ         0.1201
      3 C2         19.0010   -9.2290   -1.2140 C.3       1 8VQ         0.1346
      4 C1         20.4310   -8.8300   -1.3010 C.3       1 8VQ         0.1885
      5 O6         21.7110   -5.1910   -0.0880 O.3       1 8VQ        -0.3924
      6 O35        26.7010  -12.7670   -2.6270 O.2       1 8VQ        -0.3973
      7 C33        27.3580  -11.8810   -2.0620 C.2       1 8VQ         0.1749
      8 C34        28.8630  -11.7430   -2.2270 C.3       1 8VQ         0.0257
      9 N1         26.7120  -10.9140   -1.2740 N.am      1 8VQ        -0.2589
     10 UNK_10     25.2430  -11.0690   -1.0880 C.3       1 8VQ         0.1689
     11 UNK_11     24.7800  -10.2230    0.1340 C.3       1 8VQ         0.1176
     12 N2         25.2080  -10.9010    1.3720 N.am      1 8VQ        -0.2769
     13 C36        26.4340  -10.5720    1.8460 C.2       1 8VQ         0.1733
     14 C38        26.8160  -11.4540    3.0040 C.3       1 8VQ         0.0257
     15 O37        27.1320   -9.6370    1.4230 O.2       1 8VQ        -0.3974
     16 UNK_16     24.5580  -10.4950   -2.1670 O.3       1 8VQ        -0.3439
     17 UNK_17     23.1570  -10.5790   -2.1710 C.3       1 8VQ         0.1131
     18 UNK_18     22.6430  -10.0350   -3.5190 C.3       1 8VQ         0.0730
     19 UNK_19     22.8350   -8.6180   -3.7360 O.3       1 8VQ        -0.3924
     20 UNK_20     22.6600   -9.6900   -1.0010 C.3       1 8VQ         0.1181
     21 UNK_21     23.2360  -10.2060    0.2670 C.3       1 8VQ         0.1111
     22 UNK_22     22.9550   -9.3510    1.4110 O.3       1 8VQ        -0.3867
     23 O1         21.2920   -9.8350   -0.8360 O.3       1 8VQ        -0.3401
     24 O2         18.8140  -10.2940   -2.2180 O.3       1 8VQ        -0.3841
     25 O4         18.0080   -7.1190    0.6650 O.3       1 8VQ        -0.3865
     26 C5         19.9050   -6.5690   -0.8730 C.3       1 8VQ         0.1130
     27 C6         20.3290   -5.3950   -0.0120 C.3       1 8VQ         0.0730
     28 O5         20.6930   -7.6990   -0.4390 O.3       1 8VQ        -0.3405
     29 O3         16.7550   -8.5100   -1.2950 O.3       1 8VQ        -0.3589
     30 C24        15.8210   -7.8010   -2.1210 C.3       1 8VQ         0.0798
     31 C25        14.4540   -8.4850   -2.0370 C.ar      1 8VQ        -0.0264
     32 C26        13.3710   -7.9100   -2.6530 C.ar      1 8VQ        -0.0692
     33 C27        12.1340   -8.5720   -2.5480 C.ar      1 8VQ        -0.0771
     34 C28        11.9660   -9.7850   -1.8770 C.ar      1 8VQ        -0.0401
     35 C29        13.0340  -10.3940   -1.3130 C.ar      1 8VQ         0.0841
     36 C30        14.2900   -9.7310   -1.3960 C.ar      1 8VQ        -0.0301
     37 O31        12.8350  -11.6180   -0.6460 O.3       1 8VQ        -0.3230
     38 C32        13.9130  -12.3120    0.0630 C.3       1 8VQ         0.0592
     39 H1         17.8472   -6.0836   -1.1735 H         1 8VQ         0.0647
     40 H2         18.1635   -7.9275   -2.6440 H         1 8VQ         0.0653
     41 H3         18.7767   -9.5930   -0.2005 H         1 8VQ         0.0671
     42 H4         20.6696   -8.5811   -2.3456 H         1 8VQ         0.0938
     43 H5         22.1621   -5.9703    0.2148 H         1 8VQ         0.2095
     44 H6         29.2202  -10.8891   -1.6327 H         1 8VQ         0.0467
     45 H7         29.1019  -11.5769   -3.2878 H         1 8VQ         0.0467
     46 H8         29.3559  -12.6631   -1.8798 H         1 8VQ         0.0467
     47 H9         27.2153  -10.1569   -0.8575 H         1 8VQ         0.1877
     48 H10        24.9839  -12.1311   -0.9660 H         1 8VQ         0.0893
     49 H11        25.1860   -9.2031    0.0636 H         1 8VQ         0.0630
     50 H12        24.6248  -11.5675    1.8365 H         1 8VQ         0.1856
     51 H13        27.8130  -11.1674    3.3699 H         1 8VQ         0.0467
     52 H14        26.8339  -12.5036    2.6753 H         1 8VQ         0.0467
     53 H15        26.0805  -11.3357    3.8133 H         1 8VQ         0.0467
     54 H16        22.8255  -11.6186   -2.0318 H         1 8VQ         0.0647
     55 H17        21.5646  -10.2432   -3.5788 H         1 8VQ         0.0584
     56 H18        23.1657  -10.5741   -4.3228 H         1 8VQ         0.0584
     57 H19        22.4885   -8.3794   -4.5878 H         1 8VQ         0.2095
     58 H20        22.9336   -8.6387   -1.1736 H         1 8VQ         0.0650
     59 H21        22.8496  -11.2187    0.4546 H         1 8VQ         0.0645
     60 H22        23.3217   -8.4881    1.2577 H         1 8VQ         0.2100
     61 H23        19.3873  -11.0236   -2.0146 H         1 8VQ         0.2101
     62 H24        17.0695   -7.2604    0.7065 H         1 8VQ         0.2100
     63 H25        20.1296   -6.3369   -1.9245 H         1 8VQ         0.0647
     64 H26        19.8119   -4.4886   -0.3598 H         1 8VQ         0.0584
     65 H27        20.0521   -5.5970    1.0332 H         1 8VQ         0.0584
     66 H28        16.1724   -7.8081   -3.1633 H         1 8VQ         0.0722
     67 H29        15.7346   -6.7620   -1.7703 H         1 8VQ         0.0722
     68 H30        13.4651   -6.9793   -3.2007 H         1 8VQ         0.0465
     69 H31        11.2665   -8.1169   -3.0120 H         1 8VQ         0.0572
     70 H32        10.9831  -10.2370   -1.8083 H         1 8VQ         0.0486
     71 H33        15.1571  -10.2028   -0.9481 H         1 8VQ         0.0479
     72 H34        13.5232  -13.2416    0.5033 H         1 8VQ         0.0577
     73 H35        14.3036  -11.6638    0.8613 H         1 8VQ         0.0577
     74 H36        14.7215  -12.5517   -0.6432 H         1 8VQ         0.0577
@<TRIPOS>BOND
     1    1    2 1  
     2    1   25 1  
     3   26    1 1  
     4    2    3 1  
     5    2   29 1  
     6    3    4 1  
     7    3   24 1  
     8    4   23 1  
     9    4   28 1  
    10   27    5 1  
    11    7    6 2  
    12    7    8 1  
    13    9    7 am 
    14   10    9 1  
    15   11   10 1  
    16   16   10 1  
    17   11   12 1  
    18   21   11 1  
    19   12   13 am 
    20   13   14 1  
    21   13   15 2  
    22   17   16 1  
    23   17   18 1  
    24   20   17 1  
    25   18   19 1  
    26   20   21 1  
    27   23   20 1  
    28   21   22 1  
    29   26   27 1  
    30   26   28 1  
    31   29   30 1  
    32   30   31 1  
    33   31   32 ar 
    34   31   36 ar 
    35   32   33 ar 
    36   33   34 ar 
    37   34   35 ar 
    38   35   36 ar 
    39   35   37 1  
    40   37   38 1  
    41    1   39 1  
    42    2   40 1  
    43    3   41 1  
    44    4   42 1  
    45    5   43 1  
    46    8   44 1  
    47    8   45 1  
    48    8   46 1  
    49    9   47 1  
    50   10   48 1  
    51   11   49 1  
    52   12   50 1  
    53   14   51 1  
    54   14   52 1  
    55   14   53 1  
    56   17   54 1  
    57   18   55 1  
    58   18   56 1  
    59   19   57 1  
    60   20   58 1  
    61   21   59 1  
    62   22   60 1  
    63   24   61 1  
    64   25   62 1  
    65   26   63 1  
    66   27   64 1  
    67   27   65 1  
    68   30   66 1  
    69   30   67 1  
    70   32   68 1  
    71   33   69 1  
    72   34   70 1  
    73   36   71 1  
    74   38   72 1  
    75   38   73 1  
    76   38   74 1  
@<TRIPOS>SUBSTRUCTURE
     1 8VQ         1

