### 
### Created by X-TOOL on Mon Sep 10 21:13:31 2018
### 

@<TRIPOS>MOLECULE
5nfb_ligand
   85    88     1     0     0
SMALL
GAST_HUCK


@<TRIPOS>ATOM
      1 O35        27.0530  -12.6930   -2.2490 O.2       1 8VT        -0.3973
      2 C33        27.5580  -11.5940   -1.9700 C.2       1 8VT         0.1749
      3 C34        28.9570  -11.2200   -2.3700 C.3       1 8VT         0.0257
      4 N1         26.8140  -10.5670   -1.3340 N.am      1 8VT        -0.2589
      5 UNK_5      25.3790  -10.8190   -1.1640 C.3       1 8VT         0.1688
      6 UNK_6      24.9280   -9.9910    0.0800 C.3       1 8VT         0.1172
      7 N2         25.4290  -10.7010    1.2960 N.am      1 8VT        -0.2760
      8 C36        26.5560  -10.2380    1.8890 C.2       1 8VT         0.2029
      9 C38        26.8720  -10.8460    3.2020 C.ar      1 8VT         0.0411
     10 C39        26.3910  -12.1110    3.6860 C.ar      1 8VT        -0.0531
     11 C40        26.7530  -12.5140    4.9970 C.ar      1 8VT        -0.0649
     12 C41        27.5180  -11.6190    5.7830 C.ar      1 8VT        -0.0288
     13 C42        27.9740  -10.3760    5.2520 C.ar      1 8VT         0.0960
     14 O44        28.7450   -9.4300    5.8970 O.3       1 8VT        -0.3202
     15 C45        29.3050   -8.2300    5.2520 C.3       1 8VT         0.0594
     16 C43        27.6080   -9.9940    3.9710 C.ar      1 8VT        -0.0135
     17 O37        27.2180   -9.3030    1.4710 O.2       1 8VT        -0.3847
     18 UNK_18     24.6950  -10.2220   -2.2700 O.3       1 8VT        -0.3439
     19 UNK_19     23.3000  -10.4040   -2.2490 C.3       1 8VT         0.1131
     20 UNK_20     22.7280   -9.8840   -3.5980 C.3       1 8VT         0.0730
     21 UNK_21     22.9890   -8.4530   -3.8120 O.3       1 8VT        -0.3924
     22 UNK_22     22.7500   -9.5580   -1.0500 C.3       1 8VT         0.1181
     23 UNK_23     23.4400  -10.0170    0.2290 C.3       1 8VT         0.1111
     24 UNK_24     22.9430   -9.2350    1.3770 O.3       1 8VT        -0.3867
     25 O1         21.3800   -9.7930   -0.9530 O.3       1 8VT        -0.3401
     26 C1         20.5530   -8.7130   -1.4240 C.3       1 8VT         0.1885
     27 C2         19.1530   -9.1800   -1.3210 C.3       1 8VT         0.1346
     28 O2         18.9370  -10.2170   -2.3630 O.3       1 8VT        -0.3841
     29 C3         18.1640   -8.0890   -1.6230 C.3       1 8VT         0.1201
     30 C4         18.5120   -6.8620   -0.7890 C.3       1 8VT         0.1124
     31 O4         18.0700   -7.1410    0.5690 O.3       1 8VT        -0.3865
     32 C5         19.9700   -6.5020   -0.9200 C.3       1 8VT         0.1130
     33 C6         20.3100   -5.3280   -0.0500 C.3       1 8VT         0.0730
     34 O6         21.6840   -5.0610   -0.0840 O.3       1 8VT        -0.3924
     35 O5         20.7050   -7.6650   -0.4890 O.3       1 8VT        -0.3405
     36 O3         16.8920   -8.5890   -1.4210 O.3       1 8VT        -0.3589
     37 C24        15.9060   -7.8710   -2.1760 C.3       1 8VT         0.0798
     38 C25        14.5320   -8.4830   -2.1390 C.ar      1 8VT        -0.0264
     39 C26        13.4750   -7.8450   -2.7670 C.ar      1 8VT        -0.0692
     40 C27        12.2560   -8.4880   -2.6680 C.ar      1 8VT        -0.0771
     41 C28        12.0590   -9.7270   -2.0280 C.ar      1 8VT        -0.0401
     42 C29        13.0840  -10.3710   -1.4380 C.ar      1 8VT         0.0841
     43 C30        14.3280   -9.7250   -1.5490 C.ar      1 8VT        -0.0301
     44 O31        12.9100  -11.6290   -0.7740 O.3       1 8VT        -0.3230
     45 C32        13.9630  -12.4350   -0.1260 C.3       1 8VT         0.0592
     46 H1         29.1808  -10.2036   -2.0139 H         1 8VT         0.0467
     47 H2         29.0461  -11.2524   -3.4659 H         1 8VT         0.0467
     48 H3         29.6684  -11.9300   -1.9231 H         1 8VT         0.0467
     49 H4         27.2431   -9.7202   -1.0197 H         1 8VT         0.1877
     50 H5         25.1567  -11.8915   -1.0631 H         1 8VT         0.0893
     51 H6         25.3060   -8.9599    0.0183 H         1 8VT         0.0630
     52 H7         24.9456  -11.4962    1.6621 H         1 8VT         0.1851
     53 H8         25.7665  -12.7420    3.0640 H         1 8VT         0.0575
     54 H9         26.4523  -13.4801    5.3860 H         1 8VT         0.0601
     55 H10        27.7614  -11.8827    6.8059 H         1 8VT         0.0578
     56 H11        29.8763   -7.6493    5.9912 H         1 8VT         0.0577
     57 H12        28.4867   -7.6122    4.8535 H         1 8VT         0.0577
     58 H13        29.9702   -8.5323    4.4297 H         1 8VT         0.0577
     59 H14        27.9044   -9.0259    3.5837 H         1 8VT         0.0592
     60 H15        23.0454  -11.4657   -2.1152 H         1 8VT         0.0647
     61 H16        21.6403  -10.0481   -3.6055 H         1 8VT         0.0584
     62 H17        23.1903  -10.4524   -4.4185 H         1 8VT         0.0584
     63 H18        23.9267   -8.3002   -3.8150 H         1 8VT         0.2095
     64 H19        22.9405   -8.4876   -1.2174 H         1 8VT         0.0650
     65 H20        23.1550  -11.0650    0.4036 H         1 8VT         0.0645
     66 H21        23.1268   -8.3139    1.2347 H         1 8VT         0.2100
     67 H22        20.8135   -8.4013   -2.4462 H         1 8VT         0.0938
     68 H23        18.9716   -9.5875   -0.3155 H         1 8VT         0.0671
     69 H24        19.0955   -9.8404   -3.2206 H         1 8VT         0.2101
     70 H25        18.2513   -7.8088   -2.6831 H         1 8VT         0.0653
     71 H26        17.9334   -6.0053   -1.1648 H         1 8VT         0.0647
     72 H27        17.1328   -7.2965    0.5701 H         1 8VT         0.2100
     73 H28        20.2101   -6.2631   -1.9666 H         1 8VT         0.0647
     74 H29        20.0118   -5.5490    0.9855 H         1 8VT         0.0584
     75 H30        19.7626   -4.4438   -0.4085 H         1 8VT         0.0584
     76 H31        22.1610   -5.8210    0.2282 H         1 8VT         0.2095
     77 H32        16.2369   -7.8303   -3.2242 H         1 8VT         0.0722
     78 H33        15.8393   -6.8498   -1.7726 H         1 8VT         0.0722
     79 H34        13.5956   -6.9079   -3.2984 H         1 8VT         0.0465
     80 H35        11.3929   -8.0062   -3.1130 H         1 8VT         0.0572
     81 H36        11.0690  -10.1682   -2.0101 H         1 8VT         0.0486
     82 H37        15.1945  -10.2347   -1.1433 H         1 8VT         0.0479
     83 H38        13.5183  -13.3486    0.2954 H         1 8VT         0.0577
     84 H39        14.4296  -11.8492    0.6796 H         1 8VT         0.0577
     85 H40        14.7258  -12.7080   -0.8700 H         1 8VT         0.0577
@<TRIPOS>BOND
     1    1    2 2  
     2    2    3 1  
     3    2    4 am 
     4    4    5 1  
     5    5    6 1  
     6    5   18 1  
     7    6    7 1  
     8    6   23 1  
     9    7    8 am 
    10    8    9 1  
    11    8   17 2  
    12    9   10 ar 
    13    9   16 ar 
    14   10   11 ar 
    15   11   12 ar 
    16   12   13 ar 
    17   13   14 1  
    18   13   16 ar 
    19   14   15 1  
    20   18   19 1  
    21   19   20 1  
    22   19   22 1  
    23   20   21 1  
    24   22   23 1  
    25   22   25 1  
    26   23   24 1  
    27   25   26 1  
    28   26   27 1  
    29   26   35 1  
    30   27   28 1  
    31   27   29 1  
    32   29   30 1  
    33   29   36 1  
    34   30   31 1  
    35   30   32 1  
    36   32   33 1  
    37   32   35 1  
    38   33   34 1  
    39   36   37 1  
    40   37   38 1  
    41   38   39 ar 
    42   38   43 ar 
    43   39   40 ar 
    44   40   41 ar 
    45   41   42 ar 
    46   42   43 ar 
    47   42   44 1  
    48   44   45 1  
    49    3   46 1  
    50    3   47 1  
    51    3   48 1  
    52    4   49 1  
    53    5   50 1  
    54    6   51 1  
    55    7   52 1  
    56   10   53 1  
    57   11   54 1  
    58   12   55 1  
    59   15   56 1  
    60   15   57 1  
    61   15   58 1  
    62   16   59 1  
    63   19   60 1  
    64   20   61 1  
    65   20   62 1  
    66   21   63 1  
    67   22   64 1  
    68   23   65 1  
    69   24   66 1  
    70   26   67 1  
    71   27   68 1  
    72   28   69 1  
    73   29   70 1  
    74   30   71 1  
    75   31   72 1  
    76   32   73 1  
    77   33   74 1  
    78   33   75 1  
    79   34   76 1  
    80   37   77 1  
    81   37   78 1  
    82   39   79 1  
    83   40   80 1  
    84   41   81 1  
    85   43   82 1  
    86   45   83 1  
    87   45   84 1  
    88   45   85 1  
@<TRIPOS>SUBSTRUCTURE
     1 8VT         1

