### 
### Created by X-TOOL on Tue Oct 16 15:17:56 2018
### 

@<TRIPOS>MOLECULE
5nfh_ligand
   48    51     1     0     0
SMALL
GAST_HUCK


@<TRIPOS>ATOM
      1 CAJ       -42.0360   13.9820    7.0330 C.2       1 Q8W2_803   -0.0608
      2 CBA       -40.8050   14.4680    7.0690 C.ar      1 Q8W2_803   -0.0243
      3 CAU       -40.3770   15.7090    7.0400 C.ar      1 Q8W2_803    0.0221
      4 CL1       -41.5290   16.9720    6.9730 Cl        1 Q8W2_803   -0.0818
      5 CAH       -39.0140   15.9890    7.0740 C.ar      1 Q8W2_803   -0.0550
      6 CAT       -38.1280   14.9330    7.1310 C.ar      1 Q8W2_803    0.0225
      7 CL2       -36.5470   15.2200    7.1750 Cl        1 Q8W2_803   -0.0828
      8 CAI       -38.6010   13.6400    7.1790 C.ar      1 Q8W2_803   -0.0332
      9 CAZ       -39.9250   13.4370    7.1450 C.ar      1 Q8W2_803    0.0599
     10 NAR       -40.6180   12.2950    7.1530 N.pl3     1 Q8W2_803   -0.2689
     11 CAV       -41.9160   12.6440    7.1030 C.2       1 Q8W2_803    0.0869
     12 CAN       -43.0940   11.6640    7.1560 C.3       1 Q8W2_803    0.0249
     13 NAP       -42.9020   10.6290    8.2260 N.4       1 Q8W2_803    0.2425
     14 CAL       -42.9320   11.0450    9.6700 C.3       1 Q8W2_803   -0.0300
     15 CAK       -44.3330   11.5300   10.0800 C.3       1 Q8W2_803    0.0086
     16 CAM       -44.4480   11.6550   11.6220 C.3       1 Q8W2_803    0.0412
     17 NAQ       -43.5140   12.6330   12.2320 N.pl3     1 Q8W2_803   -0.2657
     18 CAW       -43.9580   13.5860   13.0440 C.2       1 Q8W2_803    0.2352
     19 NAS       -43.1480   14.5840   13.4110 N.2       1 Q8W2_803   -0.3046
     20 CAY       -43.5760   15.5620   14.2220 C.ar      1 Q8W2_803    0.0045
     21 CAF       -42.6970   16.5690   14.5840 C.ar      1 Q8W2_803   -0.0569
     22 CAD       -43.1400   17.5880   15.3980 C.ar      1 Q8W2_803   -0.0685
     23 CAE       -44.4530   17.6210   15.8630 C.ar      1 Q8W2_803   -0.0670
     24 CAG       -45.3430   16.6180   15.5060 C.ar      1 Q8W2_803   -0.0523
     25 CBB       -44.9030   15.5830   14.6850 C.ar      1 Q8W2_803    0.0560
     26 CAX       -45.7820   14.5550   14.3090 C.2       1 Q8W2_803    0.2340
     27 OAA       -46.9580   14.5270   14.6920 O.2       1 Q8W2_803   -0.3867
     28 NAO       -45.2920   13.5390   13.4790 N.am      1 Q8W2_803   -0.1776
     29 H1        -42.9612   14.5518    6.9611 H         1 Q8W2_803    0.0170
     30 H2        -38.6571   17.0124    7.0561 H         1 Q8W2_803    0.0517
     31 H3        -37.9152   12.8029    7.2430 H         1 Q8W2_803    0.0542
     32 H4        -40.2353   11.3394    7.1900 H         1 Q8W2_803    0.2262
     33 H5        -43.1830   11.1593    6.1827 H         1 Q8W2_803    0.1028
     34 H6        -44.0168   12.2255    7.3636 H         1 Q8W2_803    0.1028
     35 H7        -42.0042   10.2010    8.0626 H         1 Q8W2_803    0.2031
     36 H8        -43.6292    9.9418    8.1035 H         1 Q8W2_803    0.2031
     37 H9        -42.2107   11.8612    9.8234 H         1 Q8W2_803    0.0815
     38 H10       -42.6521   10.1856   10.2969 H         1 Q8W2_803    0.0815
     39 H11       -45.0827   10.8098    9.7205 H         1 Q8W2_803    0.0337
     40 H12       -44.5211   12.5133    9.6243 H         1 Q8W2_803    0.0337
     41 H13       -44.2470   10.6673   12.0626 H         1 Q8W2_803    0.0534
     42 H14       -45.4754   11.9631   11.8659 H         1 Q8W2_803    0.0534
     43 H15       -42.5073   12.5722   12.0230 H         1 Q8W2_803    0.1941
     44 H16       -41.6722   16.5555   14.2309 H         1 Q8W2_803    0.0538
     45 H17       -42.4548   18.3785   15.6820 H         1 Q8W2_803    0.0622
     46 H18       -44.7797   18.4314   16.5046 H         1 Q8W2_803    0.0539
     47 H19       -46.3668   16.6399   15.8614 H         1 Q8W2_803    0.0639
     48 H20       -45.8875   12.7862   13.1985 H         1 Q8W2_803    0.2516
@<TRIPOS>BOND
     1    1    2 1  
     2    1   11 2  
     3    2    3 ar 
     4    2    9 ar 
     5    3    4 1  
     6    3    5 ar 
     7    5    6 ar 
     8    6    7 1  
     9    6    8 ar 
    10    9    8 ar 
    11    9   10 1  
    12   11   10 1  
    13   11   12 1  
    14   12   13 1  
    15   13   14 1  
    16   14   15 1  
    17   15   16 1  
    18   16   17 1  
    19   17   18 1  
    20   18   19 2  
    21   18   28 1  
    22   19   20 1  
    23   20   21 ar 
    24   20   25 ar 
    25   21   22 ar 
    26   22   23 ar 
    27   23   24 ar 
    28   24   25 ar 
    29   25   26 1  
    30   26   27 2  
    31   26   28 am 
    32    1   29 1  
    33    5   30 1  
    34    8   31 1  
    35   10   32 1  
    36   12   33 1  
    37   12   34 1  
    38   13   35 1  
    39   13   36 1  
    40   14   37 1  
    41   14   38 1  
    42   15   39 1  
    43   15   40 1  
    44   16   41 1  
    45   16   42 1  
    46   17   43 1  
    47   21   44 1  
    48   22   45 1  
    49   23   46 1  
    50   24   47 1  
    51   28   48 1  
@<TRIPOS>SUBSTRUCTURE
     1 Q8W2_803      1

