### 
### Created by X-TOOL on Mon Sep 10 21:13:30 2018
### 

@<TRIPOS>MOLECULE
5ng9_ligand
   21    22     1     0     0
SMALL
GAST_HUCK


@<TRIPOS>ATOM
      1 C1         76.5670   91.9070   64.3590 C.3       1 8VN         0.0043
      2 C2         76.5300   89.5420   64.5740 C.3       1 8VN         0.0467
      3 C3         77.9020   89.5340   62.4020 C.2       1 8VN         0.0992
      4 C4         77.8600   89.8830   63.8560 C.3       1 8VN         0.1035
      5 C5         77.8890   91.3980   63.7800 C.3       1 8VN         0.1597
      6 C6         77.9150   88.1190   61.8730 C.2       1 8VN         0.0780
      7 C7         76.7170   89.3120   66.0770 C.2       1 8VN         0.0871
      8 O1         77.8880   91.7250   62.3890 O.3       1 8VN        -0.2354
      9 O3         78.2020   87.1830   62.6460 O.co2     1 8VN        -0.5592
     10 O4         75.9960   89.9790   66.8510 O.co2     1 8VN        -0.5641
     11 O5         77.5720   88.4930   66.4400 O.co2     1 8VN        -0.5641
     12 N1         75.6850   90.7410   64.4360 N.4       1 8VN         0.2451
     13 N2         77.8980   90.5370   61.6330 N.2       1 8VN        -0.1568
     14 O2         77.6700   88.0110   60.6460 O.co2     1 8VN        -0.5592
     15 H1         76.1312   92.6731   63.7009 H         1 8VN         0.0847
     16 H2         76.7269   92.3321   65.3608 H         1 8VN         0.0847
     17 H3         76.0608   88.6613   64.1112 H         1 8VN         0.1054
     18 H4         78.7147   89.4525   64.3984 H         1 8VN         0.0581
     19 H5         78.7576   91.8220   64.3051 H         1 8VN         0.0760
     20 H6         75.1310   90.6747   63.5965 H         1 8VN         0.2033
     21 H7         75.0760   90.8245   65.2348 H         1 8VN         0.2033
@<TRIPOS>BOND
     1    1    5 1  
     2   12    1 1  
     3    2    4 1  
     4    2    7 1  
     5    2   12 1  
     6    4    3 1  
     7    3    6 1  
     8    3   13 2  
     9    4    5 1  
    10    5    8 1  
    11    6    9 ar 
    12    6   14 ar 
    13    7   10 ar 
    14    7   11 ar 
    15    8   13 1  
    16    1   15 1  
    17    1   16 1  
    18    2   17 1  
    19    4   18 1  
    20    5   19 1  
    21   12   20 1  
    22   12   21 1  
@<TRIPOS>SUBSTRUCTURE
     1 8VN         1

