### 
### Created by X-TOOL on Mon Sep 10 21:13:34 2018
### 

@<TRIPOS>MOLECULE
5ngb_ligand
   53    57     1     0     0
SMALL
GAST_HUCK


@<TRIPOS>ATOM
      1 OAX        18.0520   -3.8160   18.1570 O.co2     1 8WH        -0.5607
      2 CBB        16.9450   -3.3390   17.8530 C.2       1 8WH         0.0613
      3 OBC        16.8090   -2.8780   16.7160 O.co2     1 8WH        -0.5607
      4 CBA        15.8810   -3.3070   18.7520 C.ar      1 8WH         0.0036
      5 CAZ        16.0060   -3.8200   20.0530 C.ar      1 8WH        -0.0432
      6 CBF        14.6720   -2.7440   18.3360 C.ar      1 8WH        -0.0545
      7 CBE        13.5950   -2.7070   19.2050 C.ar      1 8WH        -0.0649
      8 CBD        13.7300   -3.2060   20.4920 C.ar      1 8WH        -0.0547
      9 CAY        14.9180   -3.7890   20.9270 C.ar      1 8WH        -0.0042
     10 CAW        15.0150   -4.2670   22.2570 C.3       1 8WH         0.1270
     11 NAV        14.0910   -5.4290   22.6770 N.pl3     1 8WH        -0.1066
     12 CAU        14.0130   -6.6570   22.1540 C.2       1 8WH         0.1594
     13 NAR        13.2950   -5.3560   23.6510 N.2       1 8WH        -0.0408
     14 NAQ        12.7200   -6.3520   23.7920 N.2       1 8WH        -0.1615
     15 CAP        13.0960   -7.2410   22.8740 C.2       1 8WH         0.1587
     16 CAO        12.6480   -8.4870   22.7850 C.ar      1 8WH         0.1017
     17 CAM        11.5060   -8.9120   23.4840 C.ar      1 8WH         0.1708
     18 NAK        10.7750   -8.0260   24.2710 N.pl3     1 8WH        -0.1950
     19 CAT        13.3320   -9.4240   22.0150 C.ar      1 8WH        -0.0129
     20 CAS        12.8940  -10.7430   21.9310 C.ar      1 8WH        -0.0302
     21 CAN        11.7720  -11.1520   22.6190 C.ar      1 8WH        -0.0150
     22 CAL        11.0770  -10.2380   23.3960 C.ar      1 8WH         0.1067
     23 CAJ         9.9510  -10.6370   24.0980 C.2       1 8WH         0.1600
     24 OAI         9.5330  -11.7890   24.0560 O.2       1 8WH        -0.3801
     25 CAG         9.2450   -9.7460   24.8700 C.3       1 8WH         0.1138
     26 CAH         9.6410   -8.4220   24.9840 C.2       1 8WH         0.1590
     27 NAE         8.9920   -7.5400   25.7370 N.2       1 8WH        -0.3725
     28 CAF         9.4550   -6.1420   25.7640 C.3       1 8WH         0.0073
     29 CAC         9.1920   -5.5790   27.0940 C.3       1 8WH         0.0536
     30 OAB         7.7570   -5.7080   27.2920 O.3       1 8WH        -0.3788
     31 CAA         7.3710   -7.0410   27.6040 C.3       1 8WH         0.0536
     32 CAD         7.8140   -7.9240   26.5120 C.3       1 8WH         0.0073
     33 H1         16.9499   -4.2413   20.3796 H         1 8WH         0.0590
     34 H2         14.5775   -2.3373   17.3356 H         1 8WH         0.0593
     35 H3         12.6488   -2.2892   18.8805 H         1 8WH         0.0606
     36 H4         12.8912   -3.1408   21.1755 H         1 8WH         0.0579
     37 H5         14.8006   -3.4203   22.9256 H         1 8WH         0.0840
     38 H6         16.0517   -4.6016   22.4098 H         1 8WH         0.0840
     39 H7         14.5813   -7.0717   21.3227 H         1 8WH         0.1618
     40 H8         11.0811   -7.0443   24.3295 H         1 8WH         0.2611
     41 H9         14.2201   -9.1216   21.4720 H         1 8WH         0.0752
     42 H10        13.4394  -11.4533   21.3201 H         1 8WH         0.0755
     43 H11        11.4355  -12.1804   22.5531 H         1 8WH         0.0874
     44 H12         9.2351  -10.1572   25.8902 H         1 8WH         0.0785
     45 H13         8.2202   -9.7314   24.4706 H         1 8WH         0.0785
     46 H14         8.9148   -5.5595   25.0032 H         1 8WH         0.0359
     47 H15        10.5344   -6.1065   25.5550 H         1 8WH         0.0359
     48 H16         9.4917   -4.5213   27.1302 H         1 8WH         0.0565
     49 H17         9.7388   -6.1417   27.8650 H         1 8WH         0.0565
     50 H18         6.2771   -7.0964   27.7052 H         1 8WH         0.0565
     51 H19         7.8428   -7.3526   28.5475 H         1 8WH         0.0565
     52 H20         8.0244   -8.9082   26.9558 H         1 8WH         0.0359
     53 H21         6.9754   -8.0120   25.8056 H         1 8WH         0.0359
@<TRIPOS>BOND
     1    1    2 ar 
     2    2    3 ar 
     3    2    4 1  
     4    4    5 ar 
     5    4    6 ar 
     6    5    9 ar 
     7    6    7 ar 
     8    7    8 ar 
     9    8    9 ar 
    10    9   10 1  
    11   10   11 1  
    12   11   12 1  
    13   11   13 1  
    14   12   15 2  
    15   13   14 2  
    16   14   15 1  
    17   15   16 1  
    18   16   17 ar 
    19   16   19 ar 
    20   17   18 1  
    21   17   22 ar 
    22   18   26 1  
    23   19   20 ar 
    24   20   21 ar 
    25   21   22 ar 
    26   22   23 1  
    27   23   24 2  
    28   23   25 1  
    29   25   26 1  
    30   26   27 2  
    31   27   28 1  
    32   27   32 1  
    33   28   29 1  
    34   29   30 1  
    35   30   31 1  
    36   31   32 1  
    37    5   33 1  
    38    6   34 1  
    39    7   35 1  
    40    8   36 1  
    41   10   37 1  
    42   10   38 1  
    43   12   39 1  
    44   18   40 1  
    45   19   41 1  
    46   20   42 1  
    47   21   43 1  
    48   25   44 1  
    49   25   45 1  
    50   28   46 1  
    51   28   47 1  
    52   29   48 1  
    53   29   49 1  
    54   31   50 1  
    55   31   51 1  
    56   32   52 1  
    57   32   53 1  
@<TRIPOS>SUBSTRUCTURE
     1 8WH         1

