### 
### Created by X-TOOL on Mon Sep 10 21:13:34 2018
### 

@<TRIPOS>MOLECULE
5nge_ligand
   61    65     1     0     0
SMALL
GAST_HUCK


@<TRIPOS>ATOM
      1 CAJ        59.8740  -43.3480   86.7220 C.ar      1 8WK        -0.0279
      2 CAH        59.3840  -42.3570   85.8680 C.ar      1 8WK        -0.0325
      3 CAZ        59.9200  -41.0690   85.8770 C.ar      1 8WK         0.1247
      4 FAD        59.4080  -40.0550   84.9980 F         1 8WK        -0.1895
      5 CAI        60.9750  -40.8100   86.7460 C.ar      1 8WK        -0.0325
      6 CAK        61.4420  -41.8370   87.5660 C.ar      1 8WK        -0.0279
      7 CBB        60.8990  -43.1110   87.5680 C.ar      1 8WK         0.1069
      8 NBJ        61.3940  -44.1060   88.3590 N.pl3     1 8WK        -0.1515
      9 NAW        60.7310  -44.9060   89.2040 N.2       1 8WK        -0.2098
     10 CAN        61.5820  -45.7720   89.7620 C.2       1 8WK         0.0089
     11 CBD        62.7910  -45.5550   89.2880 C.2       1 8WK         0.0811
     12 CBC        63.9550  -46.1790   89.5520 C.2       1 8WK         0.2187
     13 OAB        63.9810  -47.1360   90.3670 O.2       1 8WK        -0.4039
     14 CBE        62.6810  -44.5310   88.4070 C.2       1 8WK         0.1570
     15 NAV        63.7770  -44.0960   87.7360 N.2       1 8WK        -0.2584
     16 CAO        65.0120  -44.7200   88.0020 C.2       1 8WK         0.1346
     17 NBH        65.0950  -45.7530   88.8960 N.am      1 8WK        -0.1851
     18 CAU        66.4160  -46.3200   89.1410 C.3       1 8WK         0.1004
     19 CBK        67.1440  -45.4520   90.2050 C.3       1 8WK         0.0989
     20 CAR        68.5080  -45.9720   90.3780 C.3       1 8WK        -0.0007
     21 CAP        69.2480  -45.0000   91.3270 C.3       1 8WK         0.0366
     22 OAC        67.3070  -44.0090   89.8170 O.3       1 8WK        -0.3855
     23 CAS        66.4110  -45.5590   91.5630 C.3       1 8WK        -0.0007
     24 CAQ        67.1710  -44.8380   92.6770 C.3       1 8WK         0.0366
     25 NBG        68.6190  -45.1860   92.6670 N.am      1 8WK        -0.2729
     26 CAY        69.3500  -45.6110   93.7540 C.2       1 8WK         0.1818
     27 OAA        70.5570  -45.8510   93.7090 O.2       1 8WK        -0.3968
     28 CAT        68.6800  -45.7860   95.1340 C.3       1 8WK         0.0750
     29 CBL        68.7980  -47.2420   95.5450 C.3       1 8WK         0.1562
     30 CBF        67.9490  -47.6130   96.8240 C.3       1 8WK         0.2729
     31 FAF        68.2660  -48.8590   97.2650 F         1 8WK        -0.2056
     32 FAG        68.1850  -46.7050   97.8980 F         1 8WK        -0.2056
     33 NBI        68.3510  -48.0570   94.4670 N.pl3     1 8WK        -0.2004
     34 NAX        67.1770  -48.0000   93.8540 N.2       1 8WK        -0.1894
     35 CBA        67.2300  -48.9960   92.9520 C.2       1 8WK         0.1821
     36 FAE        66.3550  -49.2790   92.2000 F         1 8WK        -0.1825
     37 CAL        68.3700  -49.6660   93.0030 C.2       1 8WK        -0.0149
     38 CAM        69.0760  -49.0730   93.9660 C.2       1 8WK         0.0497
     39 H1         59.4197  -44.3321   86.7049 H         1 8WK         0.0573
     40 H2         58.5740  -42.5926   85.1872 H         1 8WK         0.0587
     41 H3         61.4270  -39.8255   86.7852 H         1 8WK         0.0587
     42 H4         62.2698  -41.6279   88.2339 H         1 8WK         0.0573
     43 H5         61.3177  -46.5354   90.4923 H         1 8WK         0.0680
     44 H6         65.9101  -44.3766   87.4907 H         1 8WK         0.1528
     45 H7         66.9962  -46.3230   88.2065 H         1 8WK         0.0666
     46 H8         66.3131  -47.3504   89.5120 H         1 8WK         0.0666
     47 H9         69.0217  -46.0148   89.4062 H         1 8WK         0.0313
     48 H10        68.4749  -46.9788   90.8199 H         1 8WK         0.0313
     49 H11        69.1234  -43.9617   90.9858 H         1 8WK         0.0523
     50 H12        70.3193  -45.2462   91.3688 H         1 8WK         0.0523
     51 H13        66.4507  -43.6175   89.6907 H         1 8WK         0.2103
     52 H14        66.3103  -46.6212   91.8305 H         1 8WK         0.0313
     53 H15        65.4120  -45.1092   91.4648 H         1 8WK         0.0313
     54 H16        66.7411  -45.1271   93.6474 H         1 8WK         0.0523
     55 H17        67.0639  -43.7522   92.5373 H         1 8WK         0.0523
     56 H18        67.6189  -45.5034   95.0699 H         1 8WK         0.0536
     57 H19        69.1850  -45.1491   95.8752 H         1 8WK         0.0536
     58 H20        69.8560  -47.4581   95.7544 H         1 8WK         0.0756
     59 H21        66.8828  -47.5826   96.5552 H         1 8WK         0.1054
     60 H22        68.6669  -50.5167   92.3914 H         1 8WK         0.0347
     61 H23        70.0736  -49.3630   94.2926 H         1 8WK         0.0981
@<TRIPOS>BOND
     1    1    2 ar 
     2    1    7 ar 
     3    2    3 ar 
     4    3    4 1  
     5    3    5 ar 
     6    5    6 ar 
     7    6    7 ar 
     8    7    8 1  
     9    8    9 1  
    10    8   14 1  
    11    9   10 2  
    12   10   11 1  
    13   11   12 1  
    14   11   14 2  
    15   12   13 2  
    16   12   17 am 
    17   14   15 1  
    18   15   16 2  
    19   16   17 1  
    20   17   18 1  
    21   18   19 1  
    22   19   20 1  
    23   19   22 1  
    24   19   23 1  
    25   20   21 1  
    26   21   25 1  
    27   23   24 1  
    28   24   25 1  
    29   25   26 am 
    30   26   27 2  
    31   26   28 1  
    32   28   29 1  
    33   29   30 1  
    34   29   33 1  
    35   30   31 1  
    36   30   32 1  
    37   33   34 1  
    38   33   38 1  
    39   34   35 2  
    40   35   36 1  
    41   35   37 1  
    42   37   38 2  
    43    1   39 1  
    44    2   40 1  
    45    5   41 1  
    46    6   42 1  
    47   10   43 1  
    48   16   44 1  
    49   18   45 1  
    50   18   46 1  
    51   20   47 1  
    52   20   48 1  
    53   21   49 1  
    54   21   50 1  
    55   22   51 1  
    56   23   52 1  
    57   23   53 1  
    58   24   54 1  
    59   24   55 1  
    60   28   56 1  
    61   28   57 1  
    62   29   58 1  
    63   30   59 1  
    64   37   60 1  
    65   38   61 1  
@<TRIPOS>SUBSTRUCTURE
     1 8WK         1

