### 
### Created by X-TOOL on Mon Sep 10 21:13:32 2018
### 

@<TRIPOS>MOLECULE
5ngf_ligand
   69    73     1     0     0
SMALL
GAST_HUCK


@<TRIPOS>ATOM
      1 OAD        13.6250  -32.7480   18.0150 O.2       1 8WN        -0.4039
      2 CBF        13.9280  -31.7770   18.7240 C.2       1 8WN         0.2186
      3 CBG        15.0010  -31.7930   19.5250 C.2       1 8WN         0.0783
      4 CAP        15.9360  -32.7340   19.7840 C.2       1 8WN         0.0072
      5 NAY        16.7830  -32.2310   20.6670 N.2       1 8WN        -0.2228
      6 NBJ        16.3780  -31.0270   20.9910 N.pl3     1 8WN        -0.1978
      7 CAB        16.9750  -30.1030   21.9440 C.3       1 8WN         0.0589
      8 CBH        15.2820  -30.7310   20.2880 C.2       1 8WN         0.1405
      9 NAX        14.5000  -29.6240   20.2750 N.2       1 8WN        -0.2607
     10 CAQ        13.3770  -29.6120   19.4830 C.2       1 8WN         0.1344
     11 NBK        13.1340  -30.6850   18.6890 N.am      1 8WN        -0.1850
     12 CAW        11.9690  -30.6310   17.7800 C.3       1 8WN         0.1004
     13 CBL        12.3770  -29.8790   16.5030 C.3       1 8WN         0.0988
     14 CAV        11.1160  -29.8340   15.6780 C.3       1 8WN        -0.0008
     15 CAT        11.2730  -29.1290   14.3720 C.3       1 8WN         0.0360
     16 OAG        12.8340  -28.5050   16.7880 O.3       1 8WN        -0.3855
     17 CAU        13.5250  -30.5700   15.7630 C.3       1 8WN        -0.0008
     18 CAS        13.7310  -29.8440   14.3170 C.3       1 8WN         0.0360
     19 NBI        12.4150  -29.7490   13.6000 N.am      1 8WN        -0.2728
     20 CBA        12.1370  -30.2400   12.3600 C.2       1 8WN         0.2048
     21 OAC        10.9920  -30.1140   11.9200 O.2       1 8WN        -0.3862
     22 CBB        13.0810  -30.6980   11.4060 C.ar      1 8WN         0.0465
     23 CAL        12.9300  -31.8900   10.6720 C.ar      1 8WN        -0.0450
     24 CAO        13.9060  -32.2210    9.7010 C.ar      1 8WN        -0.0535
     25 CAK        14.1510  -29.8670   11.0800 C.ar      1 8WN        -0.0450
     26 CAN        15.1270  -30.2020   10.1170 C.ar      1 8WN        -0.0535
     27 CBC        14.9880  -31.3820    9.4220 C.ar      1 8WN        -0.0224
     28 CBE        15.9120  -31.6470    8.4180 C.ar      1 8WN         0.0036
     29 CAM        17.2780  -31.6330    8.7040 C.ar      1 8WN        -0.0674
     30 CAI        18.1880  -31.8630    7.6760 C.ar      1 8WN        -0.0770
     31 CAH        17.7630  -32.0770    6.3600 C.ar      1 8WN        -0.0763
     32 CAJ        16.3910  -32.0350    6.0560 C.ar      1 8WN        -0.0422
     33 CBD        15.4760  -31.7980    7.0620 C.ar      1 8WN         0.0754
     34 NAZ        14.1550  -31.7900    6.7570 N.am      1 8WN        -0.1873
     35 SBM        13.3600  -30.3570    5.9920 S.o2      1 8WN         0.0613
     36 OAE        14.3540  -29.4410    5.3190 O.2       1 8WN        -0.1495
     37 OAF        12.2780  -30.9570    5.1020 O.2       1 8WN        -0.1495
     38 CAR        12.4950  -29.3640    7.2080 C.3       1 8WN         0.0876
     39 CAA        13.2680  -28.0370    7.3070 C.3       1 8WN        -0.0434
     40 H1         15.9836  -33.7291   19.3441 H         1 8WN         0.0674
     41 H2         16.3833  -29.1763   21.9761 H         1 8WN         0.0592
     42 H3         18.0043  -29.8702   21.6335 H         1 8WN         0.0592
     43 H4         16.9886  -30.5641   22.9426 H         1 8WN         0.0592
     44 H5         12.6978  -28.7608   19.4925 H         1 8WN         0.1530
     45 H6         11.1393  -30.1024   18.2721 H         1 8WN         0.0666
     46 H7         11.6519  -31.6525   17.5230 H         1 8WN         0.0666
     47 H8         10.3395  -29.3160   16.2600 H         1 8WN         0.0313
     48 H9         10.7961  -30.8672   15.4776 H         1 8WN         0.0313
     49 H10        11.4872  -28.0653   14.5527 H         1 8WN         0.0522
     50 H11        10.3439  -29.2224   13.7907 H         1 8WN         0.0522
     51 H12        13.6284  -28.5381   17.3078 H         1 8WN         0.2103
     52 H13        13.2814  -31.6320   15.6120 H         1 8WN         0.0313
     53 H14        14.4491  -30.4862   16.3537 H         1 8WN         0.0313
     54 H15        14.4350  -30.4326   13.7104 H         1 8WN         0.0522
     55 H16        14.1361  -28.8330   14.4710 H         1 8WN         0.0522
     56 H17        12.0821  -32.5423   10.8470 H         1 8WN         0.0660
     57 H18        13.8109  -33.1540    9.1574 H         1 8WN         0.0607
     58 H19        14.2382  -28.9154   11.5917 H         1 8WN         0.0660
     59 H20        15.9678  -29.5443    9.9288 H         1 8WN         0.0607
     60 H21        17.6258  -31.4455    9.7134 H         1 8WN         0.0584
     61 H22        19.2486  -31.8766    7.8997 H         1 8WN         0.0480
     62 H23        18.4881  -32.2742    5.5788 H         1 8WN         0.0582
     63 H24        16.0536  -32.1879    5.0373 H         1 8WN         0.0486
     64 H25        13.6045  -32.5996    6.9609 H         1 8WN         0.2194
     65 H26        12.4880  -29.8747    8.1822 H         1 8WN         0.0521
     66 H27        11.4604  -29.1793    6.8833 H         1 8WN         0.0521
     67 H28        12.7797  -27.3823    8.0439 H         1 8WN         0.0246
     68 H29        13.2746  -27.5423    6.3246 H         1 8WN         0.0246
     69 H30        14.3022  -28.2378    7.6234 H         1 8WN         0.0246
@<TRIPOS>BOND
     1    1    2 2  
     2    2    3 1  
     3    2   11 am 
     4    3    4 1  
     5    3    8 2  
     6    4    5 2  
     7    5    6 1  
     8    6    7 1  
     9    6    8 1  
    10    8    9 1  
    11    9   10 2  
    12   10   11 1  
    13   11   12 1  
    14   12   13 1  
    15   13   14 1  
    16   13   16 1  
    17   13   17 1  
    18   14   15 1  
    19   15   19 1  
    20   17   18 1  
    21   18   19 1  
    22   19   20 am 
    23   20   21 2  
    24   20   22 1  
    25   22   23 ar 
    26   22   25 ar 
    27   23   24 ar 
    28   24   27 ar 
    29   25   26 ar 
    30   26   27 ar 
    31   27   28 1  
    32   28   29 ar 
    33   28   33 ar 
    34   29   30 ar 
    35   30   31 ar 
    36   31   32 ar 
    37   32   33 ar 
    38   33   34 1  
    39   34   35 am 
    40   35   36 2  
    41   35   37 2  
    42   35   38 1  
    43   38   39 1  
    44    4   40 1  
    45    7   41 1  
    46    7   42 1  
    47    7   43 1  
    48   10   44 1  
    49   12   45 1  
    50   12   46 1  
    51   14   47 1  
    52   14   48 1  
    53   15   49 1  
    54   15   50 1  
    55   16   51 1  
    56   17   52 1  
    57   17   53 1  
    58   18   54 1  
    59   18   55 1  
    60   23   56 1  
    61   24   57 1  
    62   25   58 1  
    63   26   59 1  
    64   29   60 1  
    65   30   61 1  
    66   31   62 1  
    67   32   63 1  
    68   34   64 1  
    69   38   65 1  
    70   38   66 1  
    71   39   67 1  
    72   39   68 1  
    73   39   69 1  
@<TRIPOS>SUBSTRUCTURE
     1 8WN         1

