### 
### Created by X-TOOL on Mon Sep 10 21:13:33 2018
### 

@<TRIPOS>MOLECULE
5ngr_ligand
   19    20     1     0     0
SMALL
GAST_HUCK


@<TRIPOS>ATOM
      1 C4         -0.8320  -11.6840   15.2790 C.ar      1 8WT         0.1482
      2 C5         -2.7130  -12.4130   14.1220 C.ar      1 8WT         0.0475
      3 C6         -2.9280  -10.5610   15.3740 C.ar      1 8WT         0.0902
      4 N1         -1.3370   -9.5830   16.6280 N.pl3     1 8WT        -0.2279
      5 N2          0.4440  -11.8670   15.6160 N.pl3     1 8WT        -0.3164
      6 C3         -1.6120  -10.6260   15.7700 C.ar      1 8WT         0.1489
      7 N3         -1.4250  -12.5910   14.4570 N.ar      1 8WT        -0.2723
      8 C1         -1.0270   -7.3070   18.1900 C.3       1 8WT         0.0056
      9 S1         -2.7460   -7.5350   17.7600 S.3       1 8WT        -0.0354
     10 C2         -2.4730   -8.9350   16.7600 C.2       1 8WT         0.1927
     11 N4         -3.5240  -11.4400   14.5410 N.ar      1 8WT        -0.2993
     12 N5         -3.4650   -9.4690   15.9940 N.2       1 8WT        -0.2868
     13 H1         -3.1396  -13.1375   13.4378 H         1 8WT         0.0965
     14 H2         -0.4345   -9.3592   17.0710 H         1 8WT         0.2357
     15 H3          0.9709  -12.6613   15.2257 H         1 8WT         0.1798
     16 H4          0.9035  -11.2142   16.2668 H         1 8WT         0.1798
     17 H5         -0.9275   -6.4353   18.8535 H         1 8WT         0.0377
     18 H6         -0.4392   -7.1405   17.2753 H         1 8WT         0.0377
     19 H7         -0.6559   -8.2047   18.7061 H         1 8WT         0.0377
@<TRIPOS>BOND
     1    1    5 1  
     2    6    1 ar 
     3    1    7 ar 
     4    7    2 ar 
     5   11    2 ar 
     6    6    3 ar 
     7    3   11 ar 
     8    3   12 1  
     9    4    6 1  
    10   10    4 1  
    11    9    8 1  
    12    9   10 1  
    13   10   12 2  
    14    2   13 1  
    15    4   14 1  
    16    5   15 1  
    17    5   16 1  
    18    8   17 1  
    19    8   18 1  
    20    8   19 1  
@<TRIPOS>SUBSTRUCTURE
     1 8WT         1

