### 
### Created by X-TOOL on Mon Sep 10 21:13:34 2018
### 

@<TRIPOS>MOLECULE
5ngs_ligand
   32    34     1     0     0
SMALL
GAST_HUCK


@<TRIPOS>ATOM
      1 N1         -3.0640  -11.1530   14.3730 N.pl3     1 8WW        -0.3099
      2 N3         -1.8650   -7.5200   18.1660 N.2       1 8WW        -0.3014
      3 C4          2.9170   -8.9040   14.8360 C.3       1 8WW        -0.0074
      4 C5          3.8300   -9.1440   16.0260 C.ar      1 8WW        -0.0420
      5 C6          4.3040  -10.4150   16.3170 C.ar      1 8WW        -0.0603
      6 C7          5.1460  -10.6230   17.3980 C.ar      1 8WW        -0.0686
      7 C8          5.5360   -9.5630   18.1880 C.ar      1 8WW        -0.0687
      8 C10         4.2370   -8.0860   16.8270 C.ar      1 8WW        -0.0603
      9 C13        -3.2570   -8.7590   16.9740 C.ar      1 8WW         0.1473
     10 C1         -2.6940  -10.2340   15.2820 C.ar      1 8WW         0.1616
     11 N2         -1.3580   -9.9740   15.4350 N.ar      1 8WW        -0.2575
     12 C2         -0.9600   -9.0800   16.3410 C.ar      1 8WW         0.0961
     13 S1          0.7270   -8.6660   16.5280 S.3       1 8WW        -0.0734
     14 C3          1.4770   -9.3510   15.0260 C.3       1 8WW         0.0214
     15 C9          5.0870   -8.2930   17.8980 C.ar      1 8WW        -0.0686
     16 C11        -1.9100   -8.4440   17.1520 C.ar      1 8WW         0.0856
     17 C12        -3.1340   -7.3190   18.5570 C.2       1 8WW         0.1047
     18 N4         -4.0060   -8.0320   17.8590 N.pl3     1 8WW        -0.2384
     19 N5         -3.6570   -9.6560   16.0220 N.ar      1 8WW        -0.2540
     20 H1         -2.3525  -11.6155   13.7892 H         1 8WW         0.1809
     21 H2         -4.0589  -11.3945   14.2604 H         1 8WW         0.1809
     22 H3          3.3312   -9.4474   13.9740 H         1 8WW         0.0436
     23 H4          2.9131   -7.8250   14.6219 H         1 8WW         0.0436
     24 H5          4.0133  -11.2527   15.6934 H         1 8WW         0.0557
     25 H6          5.4991  -11.6229   17.6230 H         1 8WW         0.0599
     26 H7          6.1933   -9.7278   19.0341 H         1 8WW         0.0559
     27 H8          3.8839   -7.0843   16.6102 H         1 8WW         0.0557
     28 H9          1.4544  -10.4489   15.0901 H         1 8WW         0.0431
     29 H10         0.8884   -9.0222   14.1569 H         1 8WW         0.0431
     30 H11         5.4004   -7.4551   18.5101 H         1 8WW         0.0599
     31 H12        -3.4163   -6.6421   19.3620 H         1 8WW         0.1331
     32 H13        -5.0309   -8.0378   17.9610 H         1 8WW         0.2384
@<TRIPOS>BOND
     1   10    1 1  
     2   16    2 1  
     3    2   17 2  
     4    3    4 1  
     5   14    3 1  
     6    4    5 ar 
     7    4    8 ar 
     8    5    6 ar 
     9    6    7 ar 
    10   15    7 ar 
    11    8   15 ar 
    12   16    9 ar 
    13    9   18 1  
    14    9   19 ar 
    15   11   10 ar 
    16   10   19 ar 
    17   12   11 ar 
    18   13   12 1  
    19   12   16 ar 
    20   13   14 1  
    21   17   18 1  
    22    1   20 1  
    23    1   21 1  
    24    3   22 1  
    25    3   23 1  
    26    5   24 1  
    27    6   25 1  
    28    7   26 1  
    29    8   27 1  
    30   14   28 1  
    31   14   29 1  
    32   15   30 1  
    33   17   31 1  
    34   18   32 1  
@<TRIPOS>SUBSTRUCTURE
     1 8WW         1

