### 
### Created by X-TOOL on Mon Sep 10 21:13:32 2018
### 

@<TRIPOS>MOLECULE
5ngt_ligand
   26    28     1     0     0
SMALL
GAST_HUCK


@<TRIPOS>ATOM
      1 C10       -14.1360  -16.0660   11.0970 C.ar      1 8WZ         0.1414
      2 C15       -14.5520  -17.3860   11.0640 C.ar      1 8WZ         0.0185
      3 C01       -17.3830  -17.2630    8.5610 C.3       1 8WZ        -0.0378
      4 C02       -16.2220  -16.8480    9.4470 C.ar      1 8WZ        -0.0656
      5 C03       -15.7480  -15.5090    9.4360 C.ar      1 8WZ        -0.0669
      6 C04       -14.7200  -15.0770   10.2790 C.ar      1 8WZ         0.0334
      7 C05       -14.1960  -13.7530   10.2610 C.2       1 8WZ         0.1152
      8 C06       -14.7930  -12.6320    9.7010 C.2       1 8WZ        -0.0587
      9 C07       -13.9270  -11.5390    9.8250 C.2       1 8WZ        -0.0636
     10 C08       -12.7800  -11.9990   10.4010 C.2       1 8WZ         0.0792
     11 O09       -12.9490  -13.3460   10.6530 O.3       1 8WZ        -0.2643
     12 O11       -13.1000  -15.9430   11.9920 O.3       1 8WZ        -0.2011
     13 C12       -12.9170  -17.2200   12.4780 C.2       1 8WZ         0.2722
     14 N13       -11.9410  -17.4910   13.4730 N.pl3     1 8WZ        -0.2783
     15 N14       -13.7700  -18.0730   11.9270 N.2       1 8WZ        -0.3008
     16 C16       -15.6000  -17.8020   10.2300 C.ar      1 8WZ        -0.0681
     17 H1        -17.7563  -16.3864    8.0113 H         1 8WZ         0.0371
     18 H2        -18.1901  -17.6763    9.1838 H         1 8WZ         0.0371
     19 H3        -17.0438  -18.0269    7.8459 H         1 8WZ         0.0371
     20 H4        -16.1981  -14.7990    8.7516 H         1 8WZ         0.0446
     21 H5        -15.7786  -12.6067    9.2386 H         1 8WZ         0.0358
     22 H6        -14.1311  -10.5140    9.5189 H         1 8WZ         0.0350
     23 H7        -11.8910  -11.4103   10.6224 H         1 8WZ         0.0983
     24 H8        -11.8173  -18.4510   13.8251 H         1 8WZ         0.1883
     25 H9        -11.3567  -16.7276   13.8427 H         1 8WZ         0.1883
     26 H10       -15.9125  -18.8396   10.2004 H         1 8WZ         0.0434
@<TRIPOS>BOND
     1    2    1 ar 
     2    1    6 ar 
     3    1   12 1  
     4    2   15 1  
     5   16    2 ar 
     6    4    3 1  
     7    4    5 ar 
     8    4   16 ar 
     9    5    6 ar 
    10    6    7 1  
    11    7    8 2  
    12    7   11 1  
    13    8    9 1  
    14    9   10 2  
    15   10   11 1  
    16   12   13 1  
    17   13   14 1  
    18   13   15 2  
    19    3   17 1  
    20    3   18 1  
    21    3   19 1  
    22    5   20 1  
    23    8   21 1  
    24    9   22 1  
    25   10   23 1  
    26   14   24 1  
    27   14   25 1  
    28   16   26 1  
@<TRIPOS>SUBSTRUCTURE
     1 8WZ         1

