### 
### Created by X-TOOL on Mon Sep 10 21:13:34 2018
### 

@<TRIPOS>MOLECULE
5ngu_ligand
   56    60     1     0     0
SMALL
GAST_HUCK


@<TRIPOS>ATOM
      1 C1        -19.4030   19.6560   45.8880 C.3       1 8X2        -0.0123
      2 C2        -19.5740   18.4020   45.0230 C.3       1 8X2         0.0649
      3 C3        -17.2360   17.8850   45.3200 C.3       1 8X2         0.0649
      4 N6         -9.8570   13.7650   41.3200 N.am      1 8X2        -0.2896
      5 C7        -17.7900   14.0250   43.7940 C.ar      1 8X2        -0.0489
      6 C8        -18.9110   13.7790   43.0040 C.ar      1 8X2         0.0529
      7 C9        -19.9540   14.7020   43.0140 C.ar      1 8X2        -0.0489
      8 C10       -19.8570   15.8550   43.8010 C.ar      1 8X2        -0.0528
      9 C11       -17.9170   12.0450   41.3920 C.ar      1 8X2         0.1958
     10 C12       -17.2240   10.4460   39.8040 C.ar      1 8X2         0.0040
     11 C13       -15.9260   10.9330   39.8570 C.ar      1 8X2        -0.0259
     12 C14       -15.6500   12.0010   40.7070 C.ar      1 8X2         0.0580
     13 C15       -14.2470   12.5010   40.7740 C.2       1 8X2         0.0773
     14 C16       -13.0880   12.0370   40.1750 C.2       1 8X2        -0.0508
     15 C19       -11.9300   14.9360   42.1930 C.3       1 8X2         0.0333
     16 C20       -10.4620   14.5280   42.4160 C.3       1 8X2         0.0441
     17 C21       -10.6550   12.9660   40.4380 C.2       1 8X2         0.1768
     18 O         -10.1610   12.3020   39.5410 O.2       1 8X2        -0.4036
     19 C17       -12.1240   12.8950   40.6470 C.2       1 8X2         0.0461
     20 C18       -12.6990   13.8350   41.4890 C.2       1 8X2         0.0757
     21 N5        -14.0160   13.5710   41.5570 N.pl3     1 8X2        -0.2674
     22 N3        -18.1840   11.0020   40.5660 N.ar      1 8X2        -0.2637
     23 N4        -16.6480   12.5400   41.4610 N.ar      1 8X2        -0.2610
     24 N2        -19.0080   12.5860   42.1860 N.pl3     1 8X2        -0.2506
     25 C6        -17.7180   15.1820   44.5660 C.ar      1 8X2        -0.0528
     26 C5        -18.7350   16.1560   44.6070 C.ar      1 8X2         0.0297
     27 N1        -18.6100   17.3590   45.4290 N.pl3     1 8X2        -0.3045
     28 C4        -17.0640   19.1050   46.2250 C.3       1 8X2        -0.0123
     29 N         -18.0120   20.1530   45.7940 N.4       1 8X2         0.2358
     30 C         -17.8530   21.3390   46.6490 C.3       1 8X2        -0.0430
     31 H1        -19.6312   19.4094   46.9354 H         1 8X2         0.0834
     32 H2        -20.0930   20.4373   45.5365 H         1 8X2         0.0834
     33 H3        -19.4020   18.6633   43.9684 H         1 8X2         0.0562
     34 H4        -20.5970   18.0160   45.1430 H         1 8X2         0.0562
     35 H5        -17.0399   18.1756   44.2774 H         1 8X2         0.0562
     36 H6        -16.5230   17.1043   45.6234 H         1 8X2         0.0562
     37 H7         -8.8669   13.8030   41.1852 H         1 8X2         0.1835
     38 H8        -16.9718   13.3141   43.8078 H         1 8X2         0.0507
     39 H9        -20.8393   14.5275   42.4132 H         1 8X2         0.0507
     40 H10       -20.6855   16.5540   43.7922 H         1 8X2         0.0490
     41 H11       -17.4651    9.6171   39.1484 H         1 8X2         0.0858
     42 H12       -15.1437   10.4918   39.2500 H         1 8X2         0.0614
     43 H13       -12.9692   11.1954   39.4942 H         1 8X2         0.0422
     44 H14       -11.9607   15.8467   41.5769 H         1 8X2         0.0514
     45 H15       -12.3997   15.1364   43.1673 H         1 8X2         0.0514
     46 H16        -9.8714   15.4447   42.5602 H         1 8X2         0.0547
     47 H17       -10.4134   13.9134   43.3270 H         1 8X2         0.0547
     48 H18       -14.7164   14.0903   42.1054 H         1 8X2         0.2356
     49 H19       -19.9098   12.0887   42.1661 H         1 8X2         0.2143
     50 H20       -16.8309   15.3418   45.1682 H         1 8X2         0.0490
     51 H21       -16.0339   19.4825   46.1453 H         1 8X2         0.0834
     52 H22       -17.2720   18.8243   47.2680 H         1 8X2         0.0834
     53 H23       -17.8151   20.4036   44.8377 H         1 8X2         0.2032
     54 H24       -18.5587   22.1194   46.3283 H         1 8X2         0.0778
     55 H25       -16.8238   21.7176   46.5631 H         1 8X2         0.0778
     56 H26       -18.0576   21.0671   47.6950 H         1 8X2         0.0778
@<TRIPOS>BOND
     1    2    1 1  
     2    1   29 1  
     3   27    2 1  
     4   27    3 1  
     5    3   28 1  
     6   16    4 1  
     7   17    4 am 
     8    5    6 ar 
     9   25    5 ar 
    10    7    6 ar 
    11    6   24 1  
    12    8    7 ar 
    13   26    8 ar 
    14    9   22 ar 
    15    9   23 ar 
    16   24    9 1  
    17   10   11 ar 
    18   22   10 ar 
    19   12   11 ar 
    20   12   13 1  
    21   23   12 ar 
    22   13   14 2  
    23   13   21 1  
    24   14   19 1  
    25   15   16 1  
    26   20   15 1  
    27   17   18 2  
    28   19   17 1  
    29   20   19 2  
    30   21   20 1  
    31   26   25 ar 
    32   26   27 1  
    33   28   29 1  
    34   29   30 1  
    35    1   31 1  
    36    1   32 1  
    37    2   33 1  
    38    2   34 1  
    39    3   35 1  
    40    3   36 1  
    41    4   37 1  
    42    5   38 1  
    43    7   39 1  
    44    8   40 1  
    45   10   41 1  
    46   11   42 1  
    47   14   43 1  
    48   15   44 1  
    49   15   45 1  
    50   16   46 1  
    51   16   47 1  
    52   21   48 1  
    53   24   49 1  
    54   25   50 1  
    55   28   51 1  
    56   28   52 1  
    57   29   53 1  
    58   30   54 1  
    59   30   55 1  
    60   30   56 1  
@<TRIPOS>SUBSTRUCTURE
     1 8X2         1

