### 
### Created by X-TOOL on Mon Sep 10 21:13:33 2018
### 

@<TRIPOS>MOLECULE
5ngz_ligand
   20    21     1     0     0
SMALL
GAST_HUCK


@<TRIPOS>ATOM
      1 NAG        -0.3930   11.5570    1.4130 N.2       1 2BG        -0.3036
      2 CAJ        -0.2080   12.0150    0.1110 C.ar      1 2BG         0.0223
      3 CAD        -0.6290   11.4140   -1.1040 C.ar      1 2BG        -0.0588
      4 CAB        -0.3550   12.0080   -2.3070 C.ar      1 2BG        -0.0730
      5 CAC         0.3630   13.2100   -2.3540 C.ar      1 2BG        -0.0722
      6 CAE         0.7820   13.8320   -1.1910 C.ar      1 2BG        -0.0503
      7 CAK         0.5040   13.2350    0.0440 C.ar      1 2BG         0.0529
      8 SAH         0.9350   13.7770    1.6480 S.3       1 2BG         0.0136
      9 CAI         0.1420   12.3490    2.2750 C.2       1 2BG         0.1428
     10 CAF         0.0690   12.0810    3.7530 C.3       1 2BG         0.0390
     11 NAA        -0.1540   10.6610    4.0360 N.4       1 2BG         0.2390
     12 H1         -1.1723   10.4763   -1.0794 H         1 2BG         0.0558
     13 H2         -0.6951   11.5462   -3.2268 H         1 2BG         0.0552
     14 H3          0.5933   13.6586   -3.3136 H         1 2BG         0.0552
     15 H4          1.3200   14.7720   -1.2360 H         1 2BG         0.0565
     16 H5         -0.7600   12.6641    4.1805 H         1 2BG         0.1102
     17 H6          1.0153   12.3930    4.2190 H         1 2BG         0.1102
     18 H7         -0.1972   10.5199    5.0331 H         1 2BG         0.2017
     19 H8          0.6043   10.1188    3.6525 H         1 2BG         0.2017
     20 H9         -1.0225   10.3673    3.6172 H         1 2BG         0.2017
@<TRIPOS>BOND
     1    1    2 1  
     2    1    9 2  
     3    2    3 ar 
     4    2    7 ar 
     5    3    4 ar 
     6    4    5 ar 
     7    5    6 ar 
     8    6    7 ar 
     9    7    8 1  
    10    8    9 1  
    11    9   10 1  
    12   10   11 1  
    13    3   12 1  
    14    4   13 1  
    15    5   14 1  
    16    6   15 1  
    17   10   16 1  
    18   10   17 1  
    19   11   18 1  
    20   11   19 1  
    21   11   20 1  
@<TRIPOS>SUBSTRUCTURE
     1 2BG         1

