### 
### Created by X-TOOL on Mon Sep 10 21:13:34 2018
### 

@<TRIPOS>MOLECULE
5nhf_ligand
   55    59     1     0     0
SMALL
GAST_HUCK


@<TRIPOS>ATOM
      1 C1         -9.8360   16.9170   36.1490 C.ar      1 8X5        -0.0685
      2 C2        -10.0100   16.6950   37.5070 C.ar      1 8X5        -0.0584
      3 C3         -9.0000   16.1190   38.2690 C.ar      1 8X5        -0.0209
      4 C7        -10.9770   16.3350   41.3690 C.3       1 8X5         0.0493
      5 C8        -12.4750   16.6090   41.4070 C.3       1 8X5         0.0337
      6 C9        -13.1020   15.2970   41.0700 C.2       1 8X5         0.0757
      7 C10       -12.5110   14.2960   40.3190 C.2       1 8X5         0.0464
      8 C11       -13.4570   13.2330   40.2190 C.2       1 8X5        -0.0508
      9 C12       -14.5820   13.6480   40.9040 C.2       1 8X5         0.0771
     10 C13       -15.8590   12.9500   41.1120 C.ar      1 8X5         0.0573
     11 C14       -16.1020   11.6800   40.6050 C.ar      1 8X5        -0.0262
     12 C15       -17.3300   11.1220   40.9050 C.ar      1 8X5         0.0034
     13 C16       -17.9450   12.9900   42.0480 C.ar      1 8X5         0.1780
     14 C19       -17.6570   16.0980   45.4040 C.3       1 8X5         0.0498
     15 C20       -19.7570   16.8260   44.6290 C.3       1 8X5         0.0498
     16 C21       -20.0040   15.5500   43.8570 C.3       1 8X5        -0.0060
     17 C22       -11.1540   14.4360   39.8070 C.2       1 8X5         0.1811
     18 O1        -10.5820   13.5510   39.1740 O.2       1 8X5        -0.4033
     19 N         -10.5710   15.6120   40.1530 N.am      1 8X5        -0.2645
     20 C6         -9.1840   15.8680   39.7470 C.3       1 8X5         0.0664
     21 C4         -7.8000   15.7990   37.6440 C.ar      1 8X5        -0.0584
     22 C5         -7.6210   16.0370   36.2880 C.ar      1 8X5        -0.0685
     23 C          -8.6400   16.5910   35.5410 C.ar      1 8X5        -0.0687
     24 N1        -14.3630   14.9060   41.4160 N.pl3     1 8X5        -0.2674
     25 N3        -16.7690   13.6160   41.8400 N.ar      1 8X5        -0.2640
     26 N2        -18.2820   11.7620   41.6050 N.ar      1 8X5        -0.2667
     27 N4        -18.8640   13.6420   42.7890 N.pl3     1 8X5        -0.2880
     28 C17       -18.6730   14.9280   43.4620 C.3       1 8X5         0.0458
     29 O         -18.9470   16.5850   45.7880 O.3       1 8X5        -0.3796
     30 C18       -17.7670   14.7770   44.6800 C.3       1 8X5        -0.0060
     31 H1        -10.6406   17.3473   35.5638 H         1 8X5         0.0599
     32 H2        -10.9447   16.9740   37.9798 H         1 8X5         0.0557
     33 H3        -10.7058   15.7303   42.2469 H         1 8X5         0.0552
     34 H4        -10.4410   17.2949   41.4051 H         1 8X5         0.0552
     35 H5        -12.7497   17.3734   40.6652 H         1 8X5         0.0514
     36 H6        -12.7843   16.9421   42.4086 H         1 8X5         0.0514
     37 H7        -13.3194   12.2830   39.7047 H         1 8X5         0.0422
     38 H8        -15.3673   11.1544   40.0058 H         1 8X5         0.0611
     39 H9        -17.5361   10.1160   40.5577 H         1 8X5         0.0857
     40 H10       -17.0411   15.9632   46.3054 H         1 8X5         0.0560
     41 H11       -17.1789   16.8328   44.7396 H         1 8X5         0.0560
     42 H12       -20.7229   17.2448   44.9477 H         1 8X5         0.0560
     43 H13       -19.2426   17.5462   43.9758 H         1 8X5         0.0560
     44 H14       -20.5855   15.7766   42.9512 H         1 8X5         0.0310
     45 H15       -20.5657   14.8440   44.4863 H         1 8X5         0.0310
     46 H16        -8.8239   16.7523   40.2931 H         1 8X5         0.0684
     47 H17        -8.5777   14.9933   40.0250 H         1 8X5         0.0684
     48 H18        -6.9953   15.3589   38.2218 H         1 8X5         0.0557
     49 H19        -6.6782   15.7869   35.8150 H         1 8X5         0.0599
     50 H20        -8.5022   16.7697   34.4807 H         1 8X5         0.0559
     51 H21       -15.0358   15.4585   41.9665 H         1 8X5         0.2356
     52 H22       -19.7857   13.1936   42.8909 H         1 8X5         0.1863
     53 H23       -18.1787   15.6089   42.7535 H         1 8X5         0.0561
     54 H24       -18.1912   14.0228   45.3591 H         1 8X5         0.0310
     55 H25       -16.7671   14.4554   44.3534 H         1 8X5         0.0310
@<TRIPOS>BOND
     1    2    1 ar 
     2    1   23 ar 
     3    3    2 ar 
     4   20    3 1  
     5    3   21 ar 
     6    5    4 1  
     7    4   19 1  
     8    6    5 1  
     9    6    7 2  
    10   24    6 1  
    11    8    7 1  
    12    7   17 1  
    13    9    8 2  
    14   10    9 1  
    15    9   24 1  
    16   10   11 ar 
    17   25   10 ar 
    18   12   11 ar 
    19   26   12 ar 
    20   13   25 ar 
    21   13   26 ar 
    22   27   13 1  
    23   29   14 1  
    24   14   30 1  
    25   16   15 1  
    26   15   29 1  
    27   28   16 1  
    28   17   18 2  
    29   17   19 am 
    30   19   20 1  
    31   21   22 ar 
    32   22   23 ar 
    33   27   28 1  
    34   28   30 1  
    35    1   31 1  
    36    2   32 1  
    37    4   33 1  
    38    4   34 1  
    39    5   35 1  
    40    5   36 1  
    41    8   37 1  
    42   11   38 1  
    43   12   39 1  
    44   14   40 1  
    45   14   41 1  
    46   15   42 1  
    47   15   43 1  
    48   16   44 1  
    49   16   45 1  
    50   20   46 1  
    51   20   47 1  
    52   21   48 1  
    53   22   49 1  
    54   23   50 1  
    55   24   51 1  
    56   27   52 1  
    57   28   53 1  
    58   30   54 1  
    59   30   55 1  
@<TRIPOS>SUBSTRUCTURE
     1 8X5         1

