### 
### Created by X-TOOL on Mon Sep 10 21:13:32 2018
### 

@<TRIPOS>MOLECULE
5nhh_ligand
   52    55     1     0     0
SMALL
GAST_HUCK


@<TRIPOS>ATOM
      1 C1        -10.0700   15.5430   39.4660 C.3       1 8XH         0.0675
      2 C2        -10.3900   14.4150   40.4290 C.3       1 8XH         0.0561
      3 C3        -12.3900   15.4530   41.5030 C.3       1 8XH         0.0472
      4 C7        -14.9960   12.3780   40.2380 C.2       1 8XH        -0.0508
      5 C8        -16.1230   12.7830   40.9250 C.2       1 8XH         0.0771
      6 C9        -17.4980   12.2750   40.9440 C.ar      1 8XH         0.0573
      7 C10       -17.8540   11.0860   40.3170 C.ar      1 8XH        -0.0262
      8 C11       -19.1690   10.6790   40.4710 C.ar      1 8XH         0.0034
      9 C12       -19.6480   12.5440   41.6850 C.ar      1 8XH         0.1780
     10 C13       -20.3380   14.5940   42.9960 C.3       1 8XH         0.0458
     11 C14       -19.7130   14.4750   44.3810 C.3       1 8XH        -0.0060
     12 C15       -19.5830   15.8530   45.0000 C.3       1 8XH         0.0498
     13 C16       -21.4270   16.7050   43.7810 C.3       1 8XH         0.0498
     14 O2        -12.0270   12.3240   39.6850 O.2       1 8XH        -0.4034
     15 C18       -12.5330   13.2570   40.2970 C.2       1 8XH         0.1793
     16 N         -11.8170   14.3090   40.7650 N.am      1 8XH        -0.2736
     17 O         -10.9860   15.4760   38.3920 O.3       1 8XH        -0.3810
     18 C         -10.9250   16.6160   37.5670 C.3       1 8XH         0.0365
     19 C6        -13.9270   13.2240   40.6630 C.2       1 8XH         0.0463
     20 N1        -15.7760   13.8340   41.7390 N.pl3     1 8XH        -0.2674
     21 C5        -14.4410   14.1040   41.5720 C.2       1 8XH         0.0757
     22 C4        -13.6560   15.1430   42.2920 C.3       1 8XH         0.0335
     23 N3        -18.3820   13.0190   41.6260 N.ar      1 8XH        -0.2640
     24 N2        -20.0890   11.3900   41.1490 N.ar      1 8XH        -0.2667
     25 N4        -20.5510   13.2800   42.3710 N.pl3     1 8XH        -0.2880
     26 C17       -21.6390   15.3930   43.0590 C.3       1 8XH        -0.0060
     27 O1        -20.8650   16.4990   45.0950 O.3       1 8XH        -0.3796
     28 H1         -9.0432   15.4305   39.0879 H         1 8XH         0.0580
     29 H2        -10.1677   16.5108   39.9796 H         1 8XH         0.0580
     30 H3         -9.8263   14.5822   41.3587 H         1 8XH         0.0543
     31 H4        -10.0701   13.4672   39.9716 H         1 8XH         0.0543
     32 H5        -12.6265   16.2439   40.7759 H         1 8XH         0.0550
     33 H6        -11.6296   15.8190   42.2086 H         1 8XH         0.0550
     34 H7        -14.9342   11.5690   39.5117 H         1 8XH         0.0422
     35 H8        -17.1411   10.5090   39.7391 H         1 8XH         0.0611
     36 H9        -19.4727    9.7400   40.0226 H         1 8XH         0.0857
     37 H10       -19.6334   15.1509   42.3609 H         1 8XH         0.0561
     38 H11       -18.7167   14.0168   44.2950 H         1 8XH         0.0310
     39 H12       -20.3520   13.8462   45.0183 H         1 8XH         0.0310
     40 H13       -18.9167   16.4663   44.3757 H         1 8XH         0.0560
     41 H14       -19.1539   15.7554   46.0081 H         1 8XH         0.0560
     42 H15       -22.3947   17.2182   43.8822 H         1 8XH         0.0560
     43 H16       -20.7400   17.3305   43.1921 H         1 8XH         0.0560
     44 H17       -11.6538   16.5162   36.7492 H         1 8XH         0.0523
     45 H18        -9.9129   16.7107   37.1466 H         1 8XH         0.0523
     46 H19       -11.1607   17.5114   38.1608 H         1 8XH         0.0523
     47 H20       -16.4141   14.3374   42.3717 H         1 8XH         0.2356
     48 H21       -14.2601   16.0568   42.3916 H         1 8XH         0.0514
     49 H22       -13.3848   14.7720   43.2914 H         1 8XH         0.0514
     50 H23       -21.4933   12.8752   42.4666 H         1 8XH         0.1863
     51 H24       -22.3983   14.8047   43.5950 H         1 8XH         0.0310
     52 H25       -21.9876   15.5964   42.0357 H         1 8XH         0.0310
@<TRIPOS>BOND
     1    2    1 1  
     2    1   17 1  
     3   16    2 1  
     4   16    3 1  
     5    3   22 1  
     6    4    5 2  
     7   19    4 1  
     8    5    6 1  
     9    5   20 1  
    10    6    7 ar 
    11    6   23 ar 
    12    7    8 ar 
    13    8   24 ar 
    14   23    9 ar 
    15    9   24 ar 
    16    9   25 1  
    17   10   11 1  
    18   25   10 1  
    19   10   26 1  
    20   11   12 1  
    21   12   27 1  
    22   26   13 1  
    23   13   27 1  
    24   15   14 2  
    25   15   16 am 
    26   15   19 1  
    27   17   18 1  
    28   19   21 2  
    29   20   21 1  
    30   21   22 1  
    31    1   28 1  
    32    1   29 1  
    33    2   30 1  
    34    2   31 1  
    35    3   32 1  
    36    3   33 1  
    37    4   34 1  
    38    7   35 1  
    39    8   36 1  
    40   10   37 1  
    41   11   38 1  
    42   11   39 1  
    43   12   40 1  
    44   12   41 1  
    45   13   42 1  
    46   13   43 1  
    47   18   44 1  
    48   18   45 1  
    49   18   46 1  
    50   20   47 1  
    51   22   48 1  
    52   22   49 1  
    53   25   50 1  
    54   26   51 1  
    55   26   52 1  
@<TRIPOS>SUBSTRUCTURE
     1 8XH         1

