### 
### Created by X-TOOL on Mon Sep 10 21:13:33 2018
### 

@<TRIPOS>MOLECULE
5nhj_ligand
   48    51     1     0     0
SMALL
GAST_HUCK


@<TRIPOS>ATOM
      1 C1        -20.3670   14.4870   43.5010 C.2       1 8XE         0.1807
      2 C2        -19.3140   14.8200   44.3150 C.2       1 8XE        -0.0298
      3 C3        -19.6650   16.0450   44.8560 C.2       1 8XE        -0.0257
      4 N6        -11.8340   14.1180   40.8490 N.am      1 8XE        -0.2736
      5 C7        -17.6090   12.3040   41.0950 C.ar      1 8XE         0.0587
      6 C8        -16.1990   12.7160   41.0910 C.2       1 8XE         0.0774
      7 C9        -15.1080   12.3220   40.3270 C.2       1 8XE        -0.0508
      8 C10       -13.9850   13.0760   40.7580 C.2       1 8XE         0.0463
      9 C11       -14.4170   13.8930   41.7700 C.2       1 8XE         0.0757
     10 C12       -13.5470   14.8500   42.5120 C.3       1 8XE         0.0335
     11 C13       -12.4060   15.2630   41.5960 C.3       1 8XE         0.0472
     12 C14       -12.5820   13.1030   40.3310 C.2       1 8XE         0.1793
     13 C15       -10.4390   14.3500   40.3770 C.3       1 8XE         0.0561
     14 C16       -10.2830   14.8340   38.9330 C.3       1 8XE         0.0675
     15 O         -12.1030   12.1760   39.6800 O.2       1 8XE        -0.4034
     16 O1        -10.8780   16.0290   38.7960 O.3       1 8XE        -0.3810
     17 C17       -10.9580   16.4580   37.4340 C.3       1 8XE         0.0365
     18 N5        -15.7520   13.6860   41.9780 N.pl3     1 8XE        -0.2674
     19 C6        -18.0760   11.2130   40.3500 C.ar      1 8XE        -0.0254
     20 C5        -19.4290   10.9200   40.4520 C.ar      1 8XE         0.0047
     21 N3        -20.2920   11.6230   41.2190 N.ar      1 8XE        -0.2623
     22 N4        -18.4220   13.0410   41.8650 N.ar      1 8XE        -0.2595
     23 C4        -19.7500   12.6540   41.8910 C.ar      1 8XE         0.2029
     24 N2        -20.6080   13.3920   42.6890 N.pl3     1 8XE        -0.2161
     25 N1        -20.8530   16.4670   44.4250 N.2       1 8XE        -0.2405
     26 N         -21.2770   15.4830   43.5800 N.pl3     1 8XE        -0.1907
     27 C         -22.5700   15.6210   42.9120 C.3       1 8XE         0.0586
     28 H1        -18.4049   14.2482   44.4953 H         1 8XE         0.0205
     29 H2        -19.0410   16.6006   45.5545 H         1 8XE         0.0604
     30 H3        -15.1131   11.5701   39.5392 H         1 8XE         0.0422
     31 H4        -13.1440   14.3650   43.4133 H         1 8XE         0.0514
     32 H5        -14.1308   15.7360   42.8022 H         1 8XE         0.0514
     33 H6        -12.7834   16.0020   40.8739 H         1 8XE         0.0550
     34 H7        -11.6117   15.7185   42.2056 H         1 8XE         0.0550
     35 H8         -9.8904   13.4015   40.4736 H         1 8XE         0.0543
     36 H9         -9.9840   15.1053   41.0346 H         1 8XE         0.0543
     37 H10       -10.7525   14.1101   38.2507 H         1 8XE         0.0580
     38 H11        -9.2141   14.9265   38.6905 H         1 8XE         0.0580
     39 H12       -11.4532   17.4391   37.3871 H         1 8XE         0.0523
     40 H13       -11.5382   15.7264   36.8526 H         1 8XE         0.0523
     41 H14        -9.9442   16.5386   37.0148 H         1 8XE         0.0523
     42 H15       -16.3316   14.1704   42.6783 H         1 8XE         0.2356
     43 H16       -17.4130   10.6264   39.7245 H         1 8XE         0.0617
     44 H17       -19.8150   10.0806   39.8850 H         1 8XE         0.0859
     45 H18       -21.5875   13.0736   42.6763 H         1 8XE         0.2236
     46 H19       -23.0407   16.5675   43.2163 H         1 8XE         0.0590
     47 H20       -23.2205   14.7804   43.1950 H         1 8XE         0.0590
     48 H21       -22.4217   15.6191   41.8221 H         1 8XE         0.0590
@<TRIPOS>BOND
     1    1    2 2  
     2   24    1 1  
     3    1   26 1  
     4    2    3 1  
     5    3   25 2  
     6   11    4 1  
     7   12    4 am 
     8    4   13 1  
     9    5    6 1  
    10    5   19 ar 
    11   22    5 ar 
    12    6    7 2  
    13    6   18 1  
    14    7    8 1  
    15    9    8 2  
    16    8   12 1  
    17    9   10 1  
    18   18    9 1  
    19   10   11 1  
    20   12   15 2  
    21   13   14 1  
    22   14   16 1  
    23   16   17 1  
    24   20   19 ar 
    25   21   20 ar 
    26   23   21 ar 
    27   23   22 ar 
    28   23   24 1  
    29   25   26 1  
    30   26   27 1  
    31    2   28 1  
    32    3   29 1  
    33    7   30 1  
    34   10   31 1  
    35   10   32 1  
    36   11   33 1  
    37   11   34 1  
    38   13   35 1  
    39   13   36 1  
    40   14   37 1  
    41   14   38 1  
    42   17   39 1  
    43   17   40 1  
    44   17   41 1  
    45   18   42 1  
    46   19   43 1  
    47   20   44 1  
    48   24   45 1  
    49   27   46 1  
    50   27   47 1  
    51   27   48 1  
@<TRIPOS>SUBSTRUCTURE
     1 8XE         1

