### 
### Created by X-TOOL on Mon Sep 10 21:13:33 2018
### 

@<TRIPOS>MOLECULE
5nhl_ligand
   54    57     1     0     0
SMALL
GAST_HUCK


@<TRIPOS>ATOM
      1 C1        -11.9760   13.4660   40.2410 C.2       1 8XB         0.1789
      2 C2        -13.3650   13.3670   40.6550 C.2       1 8XB         0.0440
      3 C3        -14.3490   12.3820   40.4050 C.2       1 8XB        -0.0534
      4 N6        -20.4050   15.3600   43.7860 N.pl3     1 8XB        -0.1911
      5 C7        -11.6980   15.1840   42.0790 C.3       1 8XB         0.0552
      6 C8        -11.3350   14.4570   43.3720 C.3       1 8XB        -0.0395
      7 C9        -13.2260   15.5190   41.9710 C.3       1 8XB         0.0353
      8 C10       -13.9500   14.3230   41.4380 C.2       1 8XB         0.0742
      9 C11       -15.5130   12.7760   41.0440 C.2       1 8XB         0.0743
     10 C12       -16.8660   12.2220   41.1500 C.ar      1 8XB         0.0624
     11 C13       -17.2950   11.0250   40.5560 C.ar      1 8XB        -0.0073
     12 C14       -16.4090   10.1100   39.7420 C.3       1 8XB        -0.0278
     13 C15       -18.9850   12.5640   41.9630 C.ar      1 8XB         0.1967
     14 C16       -18.6310   10.7020   40.7620 C.ar      1 8XB         0.0069
     15 C19       -18.7300   15.8090   45.0340 C.2       1 8XB        -0.0260
     16 C20       -18.4480   14.5840   44.4500 C.2       1 8XB        -0.0303
     17 O1        -11.4700   12.6140   39.5260 O.2       1 8XB        -0.4036
     18 N1        -11.2340   14.4540   40.8480 N.am      1 8XB        -0.2709
     19 C4         -9.8440   14.6540   40.4060 C.3       1 8XB         0.0564
     20 C5         -9.6170   15.9050   39.5770 C.3       1 8XB         0.0675
     21 O2        -10.1230   15.7350   38.2400 O.3       1 8XB        -0.3810
     22 C6        -10.8030   16.9310   37.8550 C.3       1 8XB         0.0365
     23 N2        -15.2400   13.9560   41.7050 N.pl3     1 8XB        -0.2688
     24 N3        -17.7070   13.0040   41.8450 N.ar      1 8XB        -0.2654
     25 N4        -19.4920   11.4360   41.4560 N.ar      1 8XB        -0.2695
     26 N5        -19.8360   13.2960   42.7730 N.pl3     1 8XB        -0.2195
     27 C17       -19.5440   14.3280   43.6540 C.2       1 8XB         0.1792
     28 C18       -21.7030   15.5670   43.1430 C.3       1 8XB         0.0585
     29 N7        -19.9270   16.2820   44.6790 N.2       1 8XB        -0.2409
     30 H1        -14.2153   11.4761   39.8156 H         1 8XB         0.0401
     31 H2        -11.1619   16.1442   42.1023 H         1 8XB         0.0583
     32 H3        -11.6989   15.0367   44.2331 H         1 8XB         0.0254
     33 H4        -10.2423   14.3494   43.4378 H         1 8XB         0.0254
     34 H5        -11.8024   13.4613   43.3765 H         1 8XB         0.0254
     35 H6        -13.3697   16.3708   41.2900 H         1 8XB         0.0514
     36 H7        -13.6188   15.7747   42.9661 H         1 8XB         0.0514
     37 H8        -16.9946    9.2459   39.3950 H         1 8XB         0.0388
     38 H9        -15.5727    9.7598   40.3649 H         1 8XB         0.0388
     39 H10       -16.0149   10.6583   38.8737 H         1 8XB         0.0388
     40 H11       -18.9975    9.7812   40.3228 H         1 8XB         0.0794
     41 H12       -18.0503   16.3283   45.7080 H         1 8XB         0.0603
     42 H13       -17.5627   13.9651   44.5884 H         1 8XB         0.0202
     43 H14        -9.5478   13.7839   39.8017 H         1 8XB         0.0543
     44 H15        -9.2054   14.7144   41.2996 H         1 8XB         0.0543
     45 H16        -8.5382   16.1147   39.5296 H         1 8XB         0.0580
     46 H17       -10.1345   16.7510   40.0528 H         1 8XB         0.0580
     47 H18       -11.1961   16.8168   36.8340 H         1 8XB         0.0523
     48 H19       -10.1014   17.7776   37.8851 H         1 8XB         0.0523
     49 H20       -11.6351   17.1194   38.5493 H         1 8XB         0.0523
     50 H21       -15.8997   14.4753   42.3017 H         1 8XB         0.2351
     51 H22       -20.8311   13.0370   42.7132 H         1 8XB         0.2217
     52 H23       -22.1326   16.5209   43.4829 H         1 8XB         0.0590
     53 H24       -22.3808   14.7433   43.4116 H         1 8XB         0.0590
     54 H25       -21.5715   15.5925   42.0512 H         1 8XB         0.0590
@<TRIPOS>BOND
     1    2    1 1  
     2    1   17 2  
     3    1   18 am 
     4    3    2 1  
     5    8    2 2  
     6    9    3 2  
     7   27    4 1  
     8    4   28 1  
     9    4   29 1  
    10    5    6 1  
    11    7    5 1  
    12    5   18 1  
    13    8    7 1  
    14   23    8 1  
    15   10    9 1  
    16    9   23 1  
    17   10   11 ar 
    18   24   10 ar 
    19   11   12 1  
    20   14   11 ar 
    21   13   24 ar 
    22   13   25 ar 
    23   26   13 1  
    24   25   14 ar 
    25   16   15 1  
    26   15   29 2  
    27   27   16 2  
    28   18   19 1  
    29   19   20 1  
    30   20   21 1  
    31   21   22 1  
    32   26   27 1  
    33    3   30 1  
    34    5   31 1  
    35    6   32 1  
    36    6   33 1  
    37    6   34 1  
    38    7   35 1  
    39    7   36 1  
    40   12   37 1  
    41   12   38 1  
    42   12   39 1  
    43   14   40 1  
    44   15   41 1  
    45   16   42 1  
    46   19   43 1  
    47   19   44 1  
    48   20   45 1  
    49   20   46 1  
    50   22   47 1  
    51   22   48 1  
    52   22   49 1  
    53   23   50 1  
    54   26   51 1  
    55   28   52 1  
    56   28   53 1  
    57   28   54 1  
@<TRIPOS>SUBSTRUCTURE
     1 8XB         1

