### 
### Created by X-TOOL on Mon Sep 10 21:13:33 2018
### 

@<TRIPOS>MOLECULE
5nho_ligand
   54    57     1     0     0
SMALL
GAST_HUCK


@<TRIPOS>ATOM
      1 C1        -17.4540   10.9980   40.5800 C.ar      1 8XN        -0.0073
      2 C2        -18.8020   10.7120   40.7320 C.ar      1 8XN         0.0069
      3 C3        -19.1070   12.5080   42.0760 C.ar      1 8XN         0.1967
      4 N6        -20.5110   15.3620   43.8800 N.pl3     1 8XN        -0.1911
      5 C7        -13.4200   13.0870   40.9770 C.2       1 8XN         0.0440
      6 C8        -13.8840   13.7520   42.0750 C.2       1 8XN         0.0742
      7 C9        -13.0230   14.6530   42.9020 C.3       1 8XN         0.0353
      8 C10       -12.0000   15.3380   41.9510 C.3       1 8XN         0.0552
      9 C11       -12.0460   13.2260   40.5550 C.2       1 8XN         0.1789
     10 C12        -9.9420   14.4650   40.7420 C.3       1 8XN         0.0564
     11 C13        -9.6060   15.5720   39.7640 C.3       1 8XN         0.0675
     12 C14       -10.3560   16.4310   37.7620 C.3       1 8XN         0.0365
     13 C15       -12.7220   16.4490   41.1650 C.3       1 8XN        -0.0395
     14 C16       -19.6560   14.3230   43.7480 C.2       1 8XN         0.1792
     15 C19       -21.7760   15.6210   43.1970 C.3       1 8XN         0.0585
     16 O         -11.5890   12.4910   39.6940 O.2       1 8XN        -0.4036
     17 C6        -14.4990   12.3540   40.4540 C.2       1 8XN        -0.0534
     18 N3        -11.3680   14.3220   41.0530 N.am      1 8XN        -0.2709
     19 O1        -10.1130   15.2790   38.4940 O.3       1 8XN        -0.3810
     20 N2        -15.1980   13.4600   42.2560 N.pl3     1 8XN        -0.2688
     21 C5        -15.5960   12.5940   41.2580 C.2       1 8XN         0.0743
     22 C4        -16.9910   12.1370   41.2610 C.ar      1 8XN         0.0624
     23 C         -16.5790   10.1060   39.7370 C.3       1 8XN        -0.0278
     24 N1        -17.8020   12.8970   42.0120 N.ar      1 8XN        -0.2654
     25 N         -19.6550   11.4450   41.4660 N.ar      1 8XN        -0.2695
     26 N4        -19.9430   13.2920   42.8550 N.pl3     1 8XN        -0.2195
     27 N5        -20.0550   16.2550   44.8070 N.2       1 8XN        -0.2409
     28 C18       -18.9040   15.7390   45.2300 C.2       1 8XN        -0.0260
     29 C17       -18.6040   14.5400   44.6070 C.2       1 8XN        -0.0303
     30 H1        -19.1938    9.8380   40.2243 H         1 8XN         0.0794
     31 H2        -12.4901   14.0654   43.6640 H         1 8XN         0.0514
     32 H3        -13.6442   15.4153   43.3949 H         1 8XN         0.0514
     33 H4        -11.2063   15.8003   42.5563 H         1 8XN         0.0583
     34 H5         -9.4067   14.6662   41.6817 H         1 8XN         0.0543
     35 H6         -9.5892   13.5145   40.3153 H         1 8XN         0.0543
     36 H7         -8.5130   15.6789   39.7008 H         1 8XN         0.0580
     37 H8        -10.0466   16.5148   40.1202 H         1 8XN         0.0580
     38 H9        -10.7526   16.1598   36.7725 H         1 8XN         0.0523
     39 H10        -9.4180   16.9924   37.6397 H         1 8XN         0.0523
     40 H11       -11.0902   17.0548   38.2929 H         1 8XN         0.0523
     41 H12       -12.0088   16.9419   40.4880 H         1 8XN         0.0254
     42 H13       -13.1313   17.1891   41.8684 H         1 8XN         0.0254
     43 H14       -13.5414   16.0093   40.5774 H         1 8XN         0.0254
     44 H15       -22.2008   16.5688   43.5591 H         1 8XN         0.0590
     45 H16       -22.4793   14.8010   43.4044 H         1 8XN         0.0590
     46 H17       -21.6005   15.6883   42.1132 H         1 8XN         0.0590
     47 H18       -14.4745   11.7128   39.5741 H         1 8XN         0.0401
     48 H19       -15.7967   13.8237   43.0111 H         1 8XN         0.2351
     49 H20       -17.1845    9.2893   39.3171 H         1 8XN         0.0388
     50 H21       -15.7766    9.6845   40.3602 H         1 8XN         0.0388
     51 H22       -16.1374   10.6932   38.9184 H         1 8XN         0.0388
     52 H23       -20.9455   13.0765   42.7577 H         1 8XN         0.2217
     53 H24       -18.2697   16.2070   45.9814 H         1 8XN         0.0603
     54 H25       -17.7300   13.9092   44.7623 H         1 8XN         0.0202
@<TRIPOS>BOND
     1    1    2 ar 
     2   22    1 ar 
     3    1   23 1  
     4    2   25 ar 
     5    3   24 ar 
     6   25    3 ar 
     7    3   26 1  
     8   14    4 1  
     9    4   15 1  
    10    4   27 1  
    11    6    5 2  
    12    5    9 1  
    13   17    5 1  
    14    6    7 1  
    15   20    6 1  
    16    7    8 1  
    17    8   13 1  
    18    8   18 1  
    19    9   16 2  
    20    9   18 am 
    21   10   11 1  
    22   18   10 1  
    23   11   19 1  
    24   19   12 1  
    25   26   14 1  
    26   14   29 2  
    27   21   17 2  
    28   21   20 1  
    29   21   22 1  
    30   22   24 ar 
    31   27   28 2  
    32   28   29 1  
    33    2   30 1  
    34    7   31 1  
    35    7   32 1  
    36    8   33 1  
    37   10   34 1  
    38   10   35 1  
    39   11   36 1  
    40   11   37 1  
    41   12   38 1  
    42   12   39 1  
    43   12   40 1  
    44   13   41 1  
    45   13   42 1  
    46   13   43 1  
    47   15   44 1  
    48   15   45 1  
    49   15   46 1  
    50   17   47 1  
    51   20   48 1  
    52   23   49 1  
    53   23   50 1  
    54   23   51 1  
    55   26   52 1  
    56   28   53 1  
    57   29   54 1  
@<TRIPOS>SUBSTRUCTURE
     1 8XN         1

