### 
### Created by X-TOOL on Mon Sep 10 21:13:33 2018
### 

@<TRIPOS>MOLECULE
5nhp_ligand
   51    54     1     0     0
SMALL
GAST_HUCK


@<TRIPOS>ATOM
      1 C1        -19.6150   14.1980   43.3820 C.2       1 8XK         0.1807
      2 C2        -18.4970   14.4400   44.1670 C.2       1 8XK        -0.0298
      3 C3        -18.7660   15.6590   44.7820 C.2       1 8XK        -0.0257
      4 N6        -11.0330   13.9520   40.5510 N.am      1 8XK        -0.2736
      5 C7        -16.8540   12.3290   40.8890 C.ar      1 8XK         0.0588
      6 C8        -15.4820   12.8910   40.8440 C.2       1 8XK         0.0796
      7 C9        -14.3680   12.1990   40.4050 C.2       1 8XK        -0.0506
      8 C10       -13.2370   13.0650   40.5030 C.2       1 8XK         0.0464
      9 C11       -13.7120   14.2600   41.0280 C.2       1 8XK         0.0778
     10 C12       -15.9240   15.2390   41.7980 C.3       1 8XK         0.0450
     11 C13       -12.8450   15.4370   41.3540 C.3       1 8XK         0.0337
     12 C14       -11.4380   14.9140   41.5870 C.3       1 8XK         0.0472
     13 C15       -11.8130   12.9090   40.1660 C.2       1 8XK         0.1793
     14 C16        -9.6580   14.0800   40.0410 C.3       1 8XK         0.0561
     15 O         -11.3600   11.8740   39.6910 O.2       1 8XK        -0.4034
     16 C17        -9.5520   14.6420   38.6480 C.3       1 8XK         0.0675
     17 O1        -10.1750   15.9020   38.6260 O.3       1 8XK        -0.3810
     18 C18       -10.1040   16.5030   37.3530 C.3       1 8XK         0.0365
     19 N5        -15.0650   14.1680   41.2660 N.pl3     1 8XK        -0.2558
     20 C6        -17.1670   11.1520   40.2140 C.ar      1 8XK        -0.0254
     21 C5        -18.4490   10.6690   40.3860 C.ar      1 8XK         0.0047
     22 N3        -19.3940   11.3080   41.1030 N.ar      1 8XK        -0.2623
     23 N4        -17.7480   12.9660   41.6610 N.ar      1 8XK        -0.2595
     24 C4        -18.9870   12.4350   41.7120 C.ar      1 8XK         0.2029
     25 N2        -19.9090   13.1290   42.4810 N.pl3     1 8XK        -0.2161
     26 N1        -19.9580   16.1430   44.4540 N.2       1 8XK        -0.2405
     27 N         -20.4610   15.2350   43.5730 N.pl3     1 8XK        -0.1907
     28 C         -21.7860   15.4680   43.0140 C.3       1 8XK         0.0586
     29 H1        -17.6103   13.8174   44.2769 H         1 8XK         0.0205
     30 H2        -18.0750   16.1606   45.4578 H         1 8XK         0.0604
     31 H3        -14.3555   11.1708   40.0464 H         1 8XK         0.0422
     32 H4        -16.9580   14.8729   41.8801 H         1 8XK         0.0580
     33 H5        -15.8942   16.1041   41.1193 H         1 8XK         0.0580
     34 H6        -15.5616   15.5400   42.7920 H         1 8XK         0.0580
     35 H7        -13.2153   15.9370   42.2611 H         1 8XK         0.0514
     36 H8        -12.8473   16.1493   40.5158 H         1 8XK         0.0514
     37 H9        -10.7373   15.7619   41.5786 H         1 8XK         0.0550
     38 H10       -11.4010   14.4173   42.5678 H         1 8XK         0.0550
     39 H11        -9.1976   13.0810   40.0431 H         1 8XK         0.0543
     40 H12        -9.1010   14.7418   40.7205 H         1 8XK         0.0543
     41 H13       -10.0527   13.9683   37.9371 H         1 8XK         0.0580
     42 H14        -8.4929   14.7470   38.3700 H         1 8XK         0.0580
     43 H15       -10.6022   17.4833   37.3821 H         1 8XK         0.0523
     44 H16       -10.6047   15.8590   36.6150 H         1 8XK         0.0523
     45 H17        -9.0498   16.6358   37.0685 H         1 8XK         0.0523
     46 H18       -16.4436   10.6427   39.5876 H         1 8XK         0.0617
     47 H19       -18.7090    9.7257   39.9195 H         1 8XK         0.0859
     48 H20       -20.8962   12.8480   42.3947 H         1 8XK         0.2236
     49 H21       -22.1812   16.4221   43.3929 H         1 8XK         0.0590
     50 H22       -22.4582   14.6492   43.3102 H         1 8XK         0.0590
     51 H23       -21.7191   15.5088   41.9168 H         1 8XK         0.0590
@<TRIPOS>BOND
     1    1    2 2  
     2   25    1 1  
     3    1   27 1  
     4    2    3 1  
     5    3   26 2  
     6   12    4 1  
     7   13    4 am 
     8    4   14 1  
     9    5    6 1  
    10    5   20 ar 
    11   23    5 ar 
    12    6    7 2  
    13    6   19 1  
    14    7    8 1  
    15    9    8 2  
    16    8   13 1  
    17    9   11 1  
    18   19    9 1  
    19   19   10 1  
    20   11   12 1  
    21   13   15 2  
    22   14   16 1  
    23   16   17 1  
    24   17   18 1  
    25   21   20 ar 
    26   22   21 ar 
    27   24   22 ar 
    28   24   23 ar 
    29   24   25 1  
    30   26   27 1  
    31   27   28 1  
    32    2   29 1  
    33    3   30 1  
    34    7   31 1  
    35   10   32 1  
    36   10   33 1  
    37   10   34 1  
    38   11   35 1  
    39   11   36 1  
    40   12   37 1  
    41   12   38 1  
    42   14   39 1  
    43   14   40 1  
    44   16   41 1  
    45   16   42 1  
    46   18   43 1  
    47   18   44 1  
    48   18   45 1  
    49   20   46 1  
    50   21   47 1  
    51   25   48 1  
    52   28   49 1  
    53   28   50 1  
    54   28   51 1  
@<TRIPOS>SUBSTRUCTURE
     1 8XK         1

