### 
### Created by X-TOOL on Mon Sep 10 21:13:32 2018
### 

@<TRIPOS>MOLECULE
5nhv_ligand
   42    45     1     0     0
SMALL
GAST_HUCK


@<TRIPOS>ATOM
      1 C1        -18.1500   10.5650   40.4840 C.ar      1 8QB         0.0055
      2 C2        -18.6030   12.4470   41.6830 C.ar      1 8QB         0.1810
      3 C3        -16.4450   12.1130   40.9910 C.ar      1 8QB         0.0320
      4 C7        -14.5840   13.7180   41.6250 C.2       1 8QB         0.0496
      5 C8        -12.3840   14.9390   41.9210 C.3       1 8QB         0.0777
      6 C9        -10.9410   14.4840   41.9350 C.3       1 8QB         0.0584
      7 C10       -11.3920   12.7080   40.2680 C.2       1 8QB         0.2186
      8 C11       -19.2140   14.4780   43.0380 C.3       1 8QB         0.0459
      9 C12       -18.3890   14.2930   44.3120 C.3       1 8QB        -0.0060
     10 C13       -18.1830   15.6420   44.9700 C.3       1 8QB         0.0498
     11 C14       -20.1900   16.5160   44.0650 C.3       1 8QB         0.0498
     12 C15       -20.5090   15.2250   43.3410 C.3       1 8QB        -0.0060
     13 O         -10.9500   11.7590   39.6250 O.2       1 8QB        -0.3911
     14 C6        -12.8060   12.8160   40.6380 C.2       1 8QB         0.1326
     15 C5        -13.8720   11.9800   40.3910 C.2       1 8QB        -0.0444
     16 N3        -10.5990   13.6710   40.7540 N.am      1 8QB        -0.2842
     17 N2        -13.2520   13.8610   41.4270 N.pl3     1 8QB        -0.2523
     18 C4        -15.0460   12.5820   41.0010 C.2       1 8QB        -0.0006
     19 C         -16.8250   10.9370   40.3520 C.ar      1 8QB        -0.0269
     20 N1        -17.3220   12.8760   41.6550 N.ar      1 8QB        -0.2630
     21 N         -19.0650   11.3080   41.1340 N.ar      1 8QB        -0.2639
     22 N4        -19.4830   13.2030   42.3630 N.pl3     1 8QB        -0.2875
     23 O1        -19.4360   16.2790   45.2630 O.3       1 8QB        -0.3796
     24 H1        -18.4680    9.6278   40.0418 H         1 8QB         0.0867
     25 H2        -15.2033   14.4063   42.1983 H         1 8QB         0.1018
     26 H3        -12.4823   15.8149   41.2628 H         1 8QB         0.0648
     27 H4        -12.6888   15.2116   42.9421 H         1 8QB         0.0648
     28 H5        -10.7684   13.8831   42.8400 H         1 8QB         0.0547
     29 H6        -10.2906   15.3709   41.9541 H         1 8QB         0.0547
     30 H7        -18.6233   15.0980   42.3476 H         1 8QB         0.0561
     31 H8        -17.4128   13.8542   44.0581 H         1 8QB         0.0310
     32 H9        -18.9232   13.6241   45.0028 H         1 8QB         0.0310
     33 H10       -17.6040   16.2862   44.2920 H         1 8QB         0.0560
     34 H11       -17.6252   15.5014   45.9076 H         1 8QB         0.0560
     35 H12       -21.1319   17.0186   44.3299 H         1 8QB         0.0560
     36 H13       -19.6038   17.1642   43.3970 H         1 8QB         0.0560
     37 H14       -21.1537   14.5988   43.9752 H         1 8QB         0.0310
     38 H15       -21.0302   15.4520   42.3993 H         1 8QB         0.0310
     39 H16       -13.8411   11.0410   39.8402 H         1 8QB         0.0408
     40 H17        -9.7299   13.8478   40.2920 H         1 8QB         0.1838
     41 H18       -16.1197   10.3440   39.7810 H         1 8QB         0.0616
     42 H19       -20.4490   12.8494   42.4157 H         1 8QB         0.1864
@<TRIPOS>BOND
     1    1   19 ar 
     2   21    1 ar 
     3    2   20 ar 
     4    2   21 ar 
     5   22    2 1  
     6    3   18 1  
     7    3   19 ar 
     8   20    3 ar 
     9    4   17 1  
    10   18    4 2  
    11    5    6 1  
    12   17    5 1  
    13    6   16 1  
    14    7   13 2  
    15    7   14 1  
    16   16    7 am 
    17    8    9 1  
    18    8   12 1  
    19    8   22 1  
    20    9   10 1  
    21   10   23 1  
    22   12   11 1  
    23   11   23 1  
    24   14   15 2  
    25   14   17 1  
    26   15   18 1  
    27    1   24 1  
    28    4   25 1  
    29    5   26 1  
    30    5   27 1  
    31    6   28 1  
    32    6   29 1  
    33    8   30 1  
    34    9   31 1  
    35    9   32 1  
    36   10   33 1  
    37   10   34 1  
    38   11   35 1  
    39   11   36 1  
    40   12   37 1  
    41   12   38 1  
    42   15   39 1  
    43   16   40 1  
    44   19   41 1  
    45   22   42 1  
@<TRIPOS>SUBSTRUCTURE
     1 8QB         1

