### 
### Created by X-TOOL on Mon Sep 10 21:13:34 2018
### 

@<TRIPOS>MOLECULE
5nhy_ligand
   41    43     1     0     0
SMALL
GAST_HUCK


@<TRIPOS>ATOM
      1 C1          4.5520   14.1160   11.4040 C.3       1 8XT        -0.0450
      2 C2          3.2880   14.0590   12.2680 C.3       1 8XT         0.0273
      3 C3          2.2670   12.5800   14.0060 C.2       1 8XT         0.2242
      4 C7          1.8290    9.0350   17.6590 C.ar      1 8XT         0.0565
      5 C8         -0.5860    9.1650   17.1860 C.3       1 8XT         0.0620
      6 C9         -0.8870    7.9760   16.2530 C.3       1 8XT        -0.0396
      7 C10        -1.8720    9.5470   17.9400 C.3       1 8XT         0.0706
      8 C11        -1.1710    8.3170   19.8460 C.3       1 8XT         0.0681
      9 C12         0.1640    7.9750   19.1540 C.3       1 8XT         0.0541
     10 C13         2.8450    8.2160   18.1860 C.ar      1 8XT        -0.0310
     11 C14         4.1330    8.3160   17.6790 C.ar      1 8XT        -0.0203
     12 C15         3.5200    9.9210   16.2130 C.ar      1 8XT         0.1246
     13 N1          3.3230   12.9980   13.2780 N.am      1 8XT        -0.2858
     14 O1          1.1430   13.0700   13.8440 O.2       1 8XT        -0.3861
     15 C4          2.4610   11.4930   14.9520 C.2       1 8XT         0.1312
     16 C5          1.5240   10.9280   15.8080 C.2       1 8XT        -0.0356
     17 N4          3.6490   10.8310   15.2180 N.pl3     1 8XT        -0.2596
     18 C6          2.1680    9.9340   16.6290 C.ar      1 8XT         0.0309
     19 N2          0.5250    8.9850   18.1440 N.pl3     1 8XT        -0.2936
     20 N3          4.4950    9.1390   16.6720 N.ar      1 8XT        -0.3049
     21 O2         -2.1980    8.5220   18.8850 O.3       1 8XT        -0.3755
     22 H1          4.4586   14.9308   10.6709 H         1 8XT         0.0249
     23 H2          4.6781   13.1597   10.8752 H         1 8XT         0.0249
     24 H3          5.4267   14.2985   12.0455 H         1 8XT         0.0249
     25 H4          2.4232   13.8865   11.6105 H         1 8XT         0.0516
     26 H5          3.1718   15.0252   12.7807 H         1 8XT         0.0516
     27 H6         -0.3073   10.0105   16.5399 H         1 8XT         0.0579
     28 H7         -1.7285    8.2321   15.5925 H         1 8XT         0.0253
     29 H8         -1.1493    7.0941   16.8558 H         1 8XT         0.0253
     30 H9          0.0019    7.7531   15.6446 H         1 8XT         0.0253
     31 H10        -2.6978    9.6587   17.2219 H         1 8XT         0.0583
     32 H11        -1.7163   10.4979   18.4707 H         1 8XT         0.0583
     33 H12        -1.0449    9.2338   20.4405 H         1 8XT         0.0580
     34 H13        -1.4572    7.4868   20.5085 H         1 8XT         0.0580
     35 H14         0.0706    6.9956   18.6620 H         1 8XT         0.0546
     36 H15         0.9585    7.9296   19.9134 H         1 8XT         0.0546
     37 H16         2.6234    7.5132   18.9810 H         1 8XT         0.0484
     38 H17         4.9002    7.6910   18.1215 H         1 8XT         0.0723
     39 H18         4.2007   12.5473   13.4408 H         1 8XT         0.1840
     40 H19         0.4690   11.1943   15.8517 H         1 8XT         0.0412
     41 H20         4.5303   11.0106   14.7160 H         1 8XT         0.2279
@<TRIPOS>BOND
     1    2    1 1  
     2   13    2 1  
     3    3   13 am 
     4    3   14 2  
     5   15    3 1  
     6    4   10 ar 
     7   18    4 ar 
     8    4   19 1  
     9    5    6 1  
    10    5    7 1  
    11   19    5 1  
    12    7   21 1  
    13    9    8 1  
    14    8   21 1  
    15   19    9 1  
    16   11   10 ar 
    17   20   11 ar 
    18   17   12 1  
    19   12   18 ar 
    20   12   20 ar 
    21   15   16 2  
    22   15   17 1  
    23   16   18 1  
    24    1   22 1  
    25    1   23 1  
    26    1   24 1  
    27    2   25 1  
    28    2   26 1  
    29    5   27 1  
    30    6   28 1  
    31    6   29 1  
    32    6   30 1  
    33    7   31 1  
    34    7   32 1  
    35    8   33 1  
    36    8   34 1  
    37    9   35 1  
    38    9   36 1  
    39   10   37 1  
    40   11   38 1  
    41   13   39 1  
    42   16   40 1  
    43   17   41 1  
@<TRIPOS>SUBSTRUCTURE
     1 8XT         1

