### 
### Created by X-TOOL on Wed Jan  1 15:39:38 2020
### 

@<TRIPOS>MOLECULE
5ni5_ligand
   56    59     1     0     0
SMALL
GAST_HUCK


@<TRIPOS>ATOM
      1 C1        -24.3630   -0.8000  -16.8770 C.3       1 8YB        -0.0454
      2 C2        -24.2820   -2.2740  -16.5480 C.3       1 8YB         0.0672
      3 O4        -26.7360   -3.0040  -17.3010 O.2       1 8YB        -0.1702
      4 O5        -25.6250   -4.1720  -15.3800 O.2       1 8YB        -0.1702
      5 C7        -26.0750   -1.6940  -13.7240 C.ar      1 8YB        -0.0433
      6 C8        -26.6620   -0.8420  -12.8100 C.ar      1 8YB        -0.0561
      7 C9        -27.7970   -0.1600  -13.1670 C.ar      1 8YB        -0.0234
      8 C10       -28.3090   -0.2460  -14.4470 C.ar      1 8YB        -0.0561
      9 C11       -27.6940   -1.0650  -15.3670 C.ar      1 8YB        -0.0433
     10 C12       -28.4270    0.7140  -12.1790 C.3       1 8YB         0.0789
     11 C13       -27.9940    2.0850  -12.5220 C.2       1 8YB         0.2289
     12 C16       -28.6380    4.0040  -13.8220 C.2       1 8YB         0.2157
     13 C19       -27.7410    6.1270  -14.4260 C.2       1 8YB         0.0968
     14 C21       -26.9020    7.2500  -14.4560 C.2       1 8YB         0.1536
     15 C24       -26.0740    6.5850  -16.6020 C.ar      1 8YB        -0.0439
     16 C27       -25.9210    9.2360  -17.4350 C.ar      1 8YB        -0.0425
     17 C30       -29.3810    6.4390  -16.2740 C.ar      1 8YB        -0.0153
     18 C31       -29.5690    7.8050  -16.3260 C.ar      1 8YB        -0.0543
     19 C32       -30.0300    8.3960  -17.4810 C.ar      1 8YB        -0.0611
     20 C33       -30.3290    7.6090  -18.5750 C.ar      1 8YB        -0.0482
     21 C34       -30.1840    6.2360  -18.5120 C.ar      1 8YB         0.0406
     22 C35       -29.6950    5.6620  -17.3630 C.ar      1 8YB        -0.0405
     23 S3        -25.8750   -2.9550  -16.1330 S.o2      1 8YB        -0.0061
     24 C6        -26.6010   -1.8060  -14.9860 C.ar      1 8YB         0.0815
     25 O14       -26.9370    2.4660  -12.1020 O.2       1 8YB        -0.3758
     26 N15       -28.9130    2.7810  -13.2570 N.am      1 8YB        -0.1877
     27 N17       -29.3430    4.5150  -14.7970 N.2       1 8YB        -0.2999
     28 C18       -28.8380    5.7320  -15.1540 C.2       1 8YB         0.0252
     29 S20       -27.3300    4.9630  -13.2550 S.3       1 8YB         0.0331
     30 O22       -26.4840    7.7840  -13.4540 O.2       1 8YB        -0.3844
     31 C23       -26.4330    7.6300  -15.7720 C.ar      1 8YB         0.0431
     32 C25       -25.6430    6.8710  -17.8670 C.ar      1 8YB        -0.0564
     33 C26       -25.5640    8.1910  -18.2630 C.ar      1 8YB        -0.0572
     34 C28       -26.3740    8.9590  -16.1640 C.ar      1 8YB         0.0582
     35 CL2       -26.8130   10.2930  -15.1440 Cl        1 8YB        -0.0650
     36 CL3       -30.6010    5.1650  -19.8130 Cl        1 8YB        -0.0708
     37 H1        -23.3596   -0.4243  -17.1261 H         1 8YB         0.0245
     38 H2        -24.7547   -0.2513  -16.0078 H         1 8YB         0.0245
     39 H3        -25.0335   -0.6524  -17.7364 H         1 8YB         0.0245
     40 H4        -23.6041   -2.4100  -15.6925 H         1 8YB         0.0500
     41 H5        -23.8830   -2.8111  -17.4210 H         1 8YB         0.0500
     42 H6        -25.2016   -2.2724  -13.4454 H         1 8YB         0.0619
     43 H7        -26.2316   -0.7138  -11.8234 H         1 8YB         0.0561
     44 H8        -29.1869    0.3261  -14.7246 H         1 8YB         0.0561
     45 H9        -28.0684   -1.1249  -16.3825 H         1 8YB         0.0619
     46 H10       -28.0934    0.4492  -11.1648 H         1 8YB         0.0667
     47 H11       -29.5224    0.6320  -12.2378 H         1 8YB         0.0667
     48 H12       -26.1331    5.5592  -16.2567 H         1 8YB         0.0666
     49 H13       -25.8459   10.2608  -17.7803 H         1 8YB         0.0634
     50 H14       -29.3533    8.4141  -15.4557 H         1 8YB         0.0622
     51 H15       -30.1572    9.4714  -17.5309 H         1 8YB         0.0617
     52 H16       -30.6802    8.0714  -19.4904 H         1 8YB         0.0620
     53 H17       -29.5559    4.5880  -17.3154 H         1 8YB         0.0627
     54 H18       -29.8216    2.3847  -13.3890 H         1 8YB         0.2444
     55 H19       -25.3676    6.0741  -18.5484 H         1 8YB         0.0630
     56 H20       -25.2081    8.4154  -19.2620 H         1 8YB         0.0651
@<TRIPOS>BOND
     1    2    1 1  
     2   23    2 1  
     3   23    3 2  
     4   23    4 2  
     5    6    5 ar 
     6    5   24 ar 
     7    7    6 ar 
     8    7    8 ar 
     9   10    7 1  
    10    8    9 ar 
    11    9   24 ar 
    12   11   10 1  
    13   11   25 2  
    14   26   11 am 
    15   12   26 1  
    16   12   27 2  
    17   29   12 1  
    18   14   13 1  
    19   13   28 2  
    20   13   29 1  
    21   14   30 2  
    22   31   14 1  
    23   31   15 ar 
    24   15   32 ar 
    25   16   33 ar 
    26   34   16 ar 
    27   17   18 ar 
    28   17   22 ar 
    29   28   17 1  
    30   18   19 ar 
    31   19   20 ar 
    32   21   20 ar 
    33   22   21 ar 
    34   21   36 1  
    35   24   23 1  
    36   28   27 1  
    37   31   34 ar 
    38   32   33 ar 
    39   34   35 1  
    40    1   37 1  
    41    1   38 1  
    42    1   39 1  
    43    2   40 1  
    44    2   41 1  
    45    5   42 1  
    46    6   43 1  
    47    8   44 1  
    48    9   45 1  
    49   10   46 1  
    50   10   47 1  
    51   15   48 1  
    52   16   49 1  
    53   18   50 1  
    54   19   51 1  
    55   20   52 1  
    56   22   53 1  
    57   26   54 1  
    58   32   55 1  
    59   33   56 1  
@<TRIPOS>SUBSTRUCTURE
     1 8YB         1

