### 
### Created by X-TOOL on Wed Jan  1 15:39:38 2020
### 

@<TRIPOS>MOLECULE
5ni7_ligand
   50    52     1     0     0
SMALL
GAST_HUCK


@<TRIPOS>ATOM
      1 C1        -30.5490    6.0100  -19.3070 C.1       1 8Y8         0.0887
      2 C2        -30.0010    8.1890  -18.3110 C.ar      1 8Y8        -0.0376
      3 C3        -28.0350   -0.1760  -14.1810 C.ar      1 8Y8        -0.0562
      4 C4        -26.6160   -0.9550  -12.4440 C.ar      1 8Y8        -0.0562
      5 C5        -29.4400    8.9070  -17.2720 C.ar      1 8Y8        -0.0222
      6 C6        -27.4370   -1.0500  -15.0600 C.ar      1 8Y8        -0.0433
      7 C7        -26.0020   -1.8380  -13.3120 C.ar      1 8Y8        -0.0433
      8 C8        -29.4770    6.1290  -17.1920 C.ar      1 8Y8        -0.0317
      9 C9        -28.9700    4.7520  -14.7010 C.2       1 8Y8        -0.0599
     10 C10       -27.4120    6.4220  -14.2400 C.2       1 8Y8        -0.0225
     11 C11       -30.0150    6.8020  -18.2640 C.ar      1 8Y8         0.0819
     12 C12       -28.9350    6.8410  -16.1470 C.ar      1 8Y8         0.0043
     13 C13       -28.4560    6.0320  -15.0580 C.2       1 8Y8        -0.0608
     14 C14       -27.6310   -0.1210  -12.8700 C.ar      1 8Y8        -0.0236
     15 C15       -28.9140    8.2350  -16.1810 C.ar      1 8Y8         0.1067
     16 C16       -26.4280   -1.8690  -14.6210 C.ar      1 8Y8         0.0815
     17 C17       -28.3210    4.1820  -13.6270 C.2       1 8Y8         0.1244
     18 C18       -27.7390    2.2390  -12.2260 C.2       1 8Y8         0.2204
     19 C19       -24.3160   -0.7080  -16.5880 C.3       1 8Y8        -0.0454
     20 C20       -28.4460   10.3600  -15.2200 C.3       1 8Y8         0.0622
     21 C21       -28.2810    0.8590  -11.9410 C.3       1 8Y8         0.0774
     22 C22       -24.0990   -2.1540  -16.1360 C.3       1 8Y8         0.0672
     23 N23       -30.9530    5.3400  -20.1630 N.1       1 8Y8        -0.3369
     24 N24       -28.5920    2.9580  -13.0360 N.am      1 8Y8        -0.2171
     25 O25       -26.6500    2.6000  -11.8090 O.2       1 8Y8        -0.3795
     26 O26       -26.4500   -2.9510  -16.9970 O.2       1 8Y8        -0.1702
     27 O27       -25.4000   -4.1820  -15.0590 O.2       1 8Y8        -0.1702
     28 O28       -28.3700    8.9300  -15.0920 O.3       1 8Y8        -0.3136
     29 S29       -27.0940    5.2350  -13.0400 S.3       1 8Y8        -0.0240
     30 S30       -25.6520   -2.9590  -15.7900 S.o2      1 8Y8        -0.0061
     31 H1        -30.4292    8.7080  -19.1609 H         1 8Y8         0.0671
     32 H2        -28.8309    0.4738  -14.5263 H         1 8Y8         0.0561
     33 H3        -26.2949   -0.9163  -11.4094 H         1 8Y8         0.0561
     34 H4        -29.4118    9.9899  -17.3106 H         1 8Y8         0.0562
     35 H5        -27.7615   -1.0909  -16.0935 H         1 8Y8         0.0619
     36 H6        -25.2055   -2.4894  -12.9710 H         1 8Y8         0.0619
     37 H7        -29.4800    5.0452  -17.1706 H         1 8Y8         0.0669
     38 H8        -29.7946    4.2713  -15.2252 H         1 8Y8         0.0148
     39 H9        -26.8641    7.3575  -14.3428 H         1 8Y8         0.0493
     40 H10       -23.3429   -0.2382  -16.7937 H         1 8Y8         0.0245
     41 H11       -24.8324   -0.1491  -15.7937 H         1 8Y8         0.0245
     42 H12       -24.9286   -0.6974  -17.5015 H         1 8Y8         0.0245
     43 H13       -28.0013   10.8318  -14.3314 H         1 8Y8         0.0583
     44 H14       -29.4992   10.6648  -15.3086 H         1 8Y8         0.0583
     45 H15       -27.8956   10.6776  -16.1179 H         1 8Y8         0.0583
     46 H16       -28.0589    0.5833  -10.8995 H         1 8Y8         0.0665
     47 H17       -29.3696    0.8505  -12.0985 H         1 8Y8         0.0665
     48 H18       -23.4823   -2.1569  -15.2252 H         1 8Y8         0.0500
     49 H19       -23.5785   -2.7052  -16.9330 H         1 8Y8         0.0500
     50 H20       -29.4913    2.5586  -13.2140 H         1 8Y8         0.2335
@<TRIPOS>BOND
     1   11    1 1  
     2    1   23 3  
     3    5    2 ar 
     4   11    2 ar 
     5    6    3 ar 
     6    3   14 ar 
     7    7    4 ar 
     8    4   14 ar 
     9   15    5 ar 
    10   16    6 ar 
    11   16    7 ar 
    12    8   11 ar 
    13   12    8 ar 
    14    9   13 1  
    15   17    9 2  
    16   10   13 2  
    17   29   10 1  
    18   13   12 1  
    19   12   15 ar 
    20   14   21 1  
    21   15   28 1  
    22   30   16 1  
    23   24   17 1  
    24   17   29 1  
    25   21   18 1  
    26   18   24 am 
    27   18   25 2  
    28   22   19 1  
    29   28   20 1  
    30   22   30 1  
    31   30   26 2  
    32   30   27 2  
    33    2   31 1  
    34    3   32 1  
    35    4   33 1  
    36    5   34 1  
    37    6   35 1  
    38    7   36 1  
    39    8   37 1  
    40    9   38 1  
    41   10   39 1  
    42   19   40 1  
    43   19   41 1  
    44   19   42 1  
    45   20   43 1  
    46   20   44 1  
    47   20   45 1  
    48   21   46 1  
    49   21   47 1  
    50   22   48 1  
    51   22   49 1  
    52   24   50 1  
@<TRIPOS>SUBSTRUCTURE
     1 8Y8         1

