### 
### Created by X-TOOL on Wed Jan  1 15:39:38 2020
### 

@<TRIPOS>MOLECULE
5ni8_ligand
   58    61     1     0     0
SMALL
GAST_HUCK


@<TRIPOS>ATOM
      1 C1        -24.0380   11.8220  -13.7230 C.ar      1 8Y2        -0.0687
      2 C2        -25.1580   12.4240  -14.2620 C.ar      1 8Y2        -0.0685
      3 C3        -23.8110   10.4770  -13.9400 C.ar      1 8Y2        -0.0685
      4 C7        -24.7020    9.7480  -14.7040 C.ar      1 8Y2        -0.0577
      5 C8        -28.1700   -0.1320  -14.4500 C.ar      1 8Y2        -0.0562
      6 C9        -26.7370   -1.0270  -12.7460 C.ar      1 8Y2        -0.0562
      7 C10       -27.6400   -1.0100  -15.3720 C.ar      1 8Y2        -0.0433
      8 C11       -26.2000   -1.9130  -13.6600 C.ar      1 8Y2        -0.0433
      9 C12       -28.8940    4.8220  -14.6630 C.2       1 8Y2        -0.0588
     10 C13       -29.9510    8.4150  -18.1000 C.ar      1 8Y2        -0.0039
     11 C14       -27.1490    6.2920  -14.3880 C.2       1 8Y2        -0.0194
     12 C15       -28.8090    6.8960  -16.1560 C.ar      1 8Y2         0.0201
     13 C16       -28.2970    6.0360  -15.1080 C.2       1 8Y2        -0.0553
     14 C19       -26.6680   -1.8960  -14.9610 C.ar      1 8Y2         0.0815
     15 C20       -28.5950    8.2670  -16.2590 C.ar      1 8Y2         0.1720
     16 C21       -28.2090    4.1880  -13.6530 C.2       1 8Y2         0.1250
     17 C22       -27.6760    2.1570  -12.3690 C.2       1 8Y2         0.2204
     18 C24       -28.3080    0.8090  -12.1630 C.3       1 8Y2         0.0774
     19 C4        -30.2220    7.0620  -18.0880 C.ar      1 8Y2        -0.0490
     20 C5        -29.6360    6.3070  -17.0980 C.ar      1 8Y2        -0.0487
     21 C6        -26.0550   11.6920  -15.0160 C.ar      1 8Y2        -0.0577
     22 C17       -27.7290   -0.1490  -13.1410 C.ar      1 8Y2        -0.0236
     23 C18       -25.8260   10.3490  -15.2390 C.ar      1 8Y2        -0.0122
     24 C23       -24.4210   -0.9290  -16.9780 C.3       1 8Y2        -0.0454
     25 C25       -26.7620    9.5490  -16.0830 C.3       1 8Y2         0.1083
     26 C26       -24.3660   -2.3790  -16.5240 C.3       1 8Y2         0.0672
     27 N27       -29.1500    9.0340  -17.2170 N.ar      1 8Y2        -0.2764
     28 N28       -28.5530    3.0110  -13.0100 N.am      1 8Y2        -0.2171
     29 O29       -26.5410    2.3730  -11.9790 O.2       1 8Y2        -0.3796
     30 O30       -25.7800   -4.2660  -15.3910 O.2       1 8Y2        -0.1702
     31 O31       -26.7770   -3.0300  -17.3510 O.2       1 8Y2        -0.1702
     32 O32       -27.8010    8.9340  -15.3250 O.3       1 8Y2        -0.2856
     33 S33       -26.8160    5.0900  -13.2070 S.3       1 8Y2        -0.0218
     34 S34       -25.9790   -3.0380  -16.1370 S.o2      1 8Y2        -0.0061
     35 H1        -23.3395   12.4030  -13.1317 H         1 8Y2         0.0559
     36 H2        -25.3349   13.4799  -14.0920 H         1 8Y2         0.0599
     37 H3        -22.9384    9.9959  -13.5132 H         1 8Y2         0.0599
     38 H4        -24.5180    8.6953  -14.8855 H         1 8Y2         0.0557
     39 H5        -28.9350    0.5736  -14.7534 H         1 8Y2         0.0561
     40 H6        -26.3814   -1.0203  -11.7220 H         1 8Y2         0.0561
     41 H7        -27.9816   -1.0033  -16.4007 H         1 8Y2         0.0619
     42 H8        -25.4248   -2.6098  -13.3622 H         1 8Y2         0.0619
     43 H9        -29.8165    4.4284  -15.0873 H         1 8Y2         0.0149
     44 H10       -30.4148    9.0177  -18.8725 H         1 8Y2         0.0758
     45 H11       -26.5192    7.1653  -14.5512 H         1 8Y2         0.0517
     46 H12       -29.3945    0.8831  -12.3177 H         1 8Y2         0.0665
     47 H13       -28.1063    0.4591  -11.1398 H         1 8Y2         0.0665
     48 H14       -30.8714    6.6113  -18.8298 H         1 8Y2         0.0606
     49 H15       -29.8236    5.2402  -17.0550 H         1 8Y2         0.0676
     50 H16       -26.9349   12.1703  -15.4308 H         1 8Y2         0.0557
     51 H17       -23.4035   -0.5762  -17.2022 H         1 8Y2         0.0245
     52 H18       -24.8557   -0.3107  -16.1788 H         1 8Y2         0.0245
     53 H19       -25.0435   -0.8510  -17.8816 H         1 8Y2         0.0245
     54 H20       -26.1884    8.7627  -16.5955 H         1 8Y2         0.0786
     55 H21       -27.2189   10.2153  -16.8295 H         1 8Y2         0.0786
     56 H22       -23.7343   -2.4434  -15.6258 H         1 8Y2         0.0500
     57 H23       -23.9221   -2.9836  -17.3286 H         1 8Y2         0.0500
     58 H24       -29.5202    2.7569  -13.0095 H         1 8Y2         0.2335
@<TRIPOS>BOND
     1    2    1 ar 
     2    3    1 ar 
     3   21    2 ar 
     4    4    3 ar 
     5   23    4 ar 
     6    7    5 ar 
     7    5   22 ar 
     8    8    6 ar 
     9    6   22 ar 
    10   14    7 ar 
    11   14    8 ar 
    12    9   13 1  
    13   16    9 2  
    14   19   10 ar 
    15   27   10 ar 
    16   11   13 2  
    17   33   11 1  
    18   13   12 1  
    19   12   15 ar 
    20   12   20 ar 
    21   34   14 1  
    22   15   27 ar 
    23   15   32 1  
    24   28   16 1  
    25   16   33 1  
    26   18   17 1  
    27   17   28 am 
    28   17   29 2  
    29   22   18 1  
    30   20   19 ar 
    31   23   21 ar 
    32   25   23 1  
    33   26   24 1  
    34   32   25 1  
    35   26   34 1  
    36   34   30 2  
    37   34   31 2  
    38    1   35 1  
    39    2   36 1  
    40    3   37 1  
    41    4   38 1  
    42    5   39 1  
    43    6   40 1  
    44    7   41 1  
    45    8   42 1  
    46    9   43 1  
    47   10   44 1  
    48   11   45 1  
    49   18   46 1  
    50   18   47 1  
    51   19   48 1  
    52   20   49 1  
    53   21   50 1  
    54   24   51 1  
    55   24   52 1  
    56   24   53 1  
    57   25   54 1  
    58   25   55 1  
    59   26   56 1  
    60   26   57 1  
    61   28   58 1  
@<TRIPOS>SUBSTRUCTURE
     1 8Y2         1

