### 
### Created by X-TOOL on Wed Jan  1 15:39:36 2020
### 

@<TRIPOS>MOLECULE
5nib_ligand
   59    62     1     0     0
SMALL
GAST_HUCK


@<TRIPOS>ATOM
      1 C1        -24.1180   10.8850  -17.8780 C.1       1 8Y5         0.0987
      2 C2        -25.0030   12.4360  -14.6600 C.ar      1 8Y5        -0.0572
      3 C3        -30.0600    7.0900  -18.0870 C.ar      1 8Y5        -0.0490
      4 C7        -28.0570   -0.1840  -14.4390 C.ar      1 8Y5        -0.0562
      5 C8        -26.7220   -1.1210  -12.6890 C.ar      1 8Y5        -0.0562
      6 C9        -27.4730   -1.0470  -15.3500 C.ar      1 8Y5        -0.0433
      7 C10       -26.1480   -2.0070  -13.5840 C.ar      1 8Y5        -0.0433
      8 C11       -26.0370   10.5550  -16.4260 C.ar      1 8Y5        -0.0231
      9 C12       -28.9010    4.7350  -14.6150 C.2       1 8Y5        -0.0588
     10 C13       -29.7880    8.4440  -18.0340 C.ar      1 8Y5        -0.0039
     11 C14       -27.2010    6.2310  -14.2400 C.2       1 8Y5        -0.0194
     12 C15       -24.8370   11.1850  -16.6880 C.ar      1 8Y5         0.0891
     13 C16       -28.8380    6.8630  -16.0400 C.ar      1 8Y5         0.0201
     14 C19       -26.7310   10.8670  -15.2720 C.ar      1 8Y5        -0.0013
     15 C20       -26.5390   -1.9580  -14.9100 C.ar      1 8Y5         0.0815
     16 C21       -28.6270    8.2390  -16.0770 C.ar      1 8Y5         0.1720
     17 C22       -28.2110    4.1020  -13.6060 C.2       1 8Y5         0.1250
     18 C24       -24.1630   -0.9580  -16.7280 C.3       1 8Y5        -0.0454
     19 C27       -24.1650   -2.4210  -16.3480 C.3       1 8Y5         0.0672
     20 N29       -29.0860    9.0390  -17.0580 N.ar      1 8Y5        -0.2764
     21 C4        -24.3220   12.1230  -15.8150 C.ar      1 8Y5        -0.0339
     22 C5        -29.5750    6.3000  -17.0660 C.ar      1 8Y5        -0.0487
     23 C6        -26.2010   11.8010  -14.4030 C.ar      1 8Y5        -0.0490
     24 C17       -28.3300    5.9770  -15.0030 C.2       1 8Y5        -0.0553
     25 C18       -27.6870   -0.2250  -13.1080 C.ar      1 8Y5        -0.0236
     26 C23       -27.6790    2.1010  -12.3340 C.2       1 8Y5         0.2204
     27 C25       -28.2780    0.7370  -12.1280 C.3       1 8Y5         0.0774
     28 C26       -28.0350   10.2070  -14.9460 C.3       1 8Y5         0.1101
     29 N28       -23.5350   10.6660  -18.8560 N.1       1 8Y5        -0.3283
     30 N30       -28.5580    2.9090  -13.0150 N.am      1 8Y5        -0.2171
     31 O31       -26.5630    2.3970  -11.9450 O.2       1 8Y5        -0.3796
     32 O32       -26.6020   -3.0280  -17.2830 O.2       1 8Y5        -0.1702
     33 O33       -25.5610   -4.3300  -15.3520 O.2       1 8Y5        -0.1702
     34 O34       -27.8830    8.7940  -15.0400 O.3       1 8Y5        -0.2855
     35 S35       -26.8260    4.9970  -13.0970 S.3       1 8Y5        -0.0218
     36 S36       -25.7980   -3.0890  -16.0720 S.o2      1 8Y5        -0.0061
     37 H1        -24.6056   13.1674  -13.9656 H         1 8Y5         0.0623
     38 H2        -30.6341    6.6642  -18.9020 H         1 8Y5         0.0606
     39 H3        -28.8064    0.5258  -14.7703 H         1 8Y5         0.0561
     40 H4        -26.4119   -1.1300  -11.6503 H         1 8Y5         0.0561
     41 H5        -27.7478   -1.0061  -16.3978 H         1 8Y5         0.0619
     42 H6        -25.4067   -2.7251  -13.2525 H         1 8Y5         0.0619
     43 H7        -26.4319    9.8215  -17.1196 H         1 8Y5         0.0656
     44 H8        -29.7993    4.3230  -15.0725 H         1 8Y5         0.0149
     45 H9        -30.1677    9.0674  -18.8354 H         1 8Y5         0.0758
     46 H10       -26.6020    7.1334  -14.3532 H         1 8Y5         0.0517
     47 H11       -23.1273   -0.6203  -16.8807 H         1 8Y5         0.0245
     48 H12       -24.6256   -0.3692  -15.9222 H         1 8Y5         0.0245
     49 H13       -24.7345   -0.8198  -17.6576 H         1 8Y5         0.0245
     50 H14       -23.5802   -2.5406  -15.4240 H         1 8Y5         0.0500
     51 H15       -23.6892   -2.9912  -17.1595 H         1 8Y5         0.0500
     52 H16       -23.3814   12.6130  -16.0391 H         1 8Y5         0.0661
     53 H17       -29.7721    5.2341  -17.0676 H         1 8Y5         0.0676
     54 H18       -26.7409   12.0417  -13.4944 H         1 8Y5         0.0629
     55 H19       -28.0644    0.3944  -11.1048 H         1 8Y5         0.0665
     56 H20       -29.3665    0.7891  -12.2775 H         1 8Y5         0.0665
     57 H21       -28.8045   10.5420  -15.6571 H         1 8Y5         0.0787
     58 H22       -28.3381   10.4768  -13.9236 H         1 8Y5         0.0787
     59 H23       -29.5099    2.6109  -13.0853 H         1 8Y5         0.2335
@<TRIPOS>BOND
     1   12    1 1  
     2    1   29 3  
     3    2   21 ar 
     4   23    2 ar 
     5   10    3 ar 
     6   22    3 ar 
     7    4    6 ar 
     8   25    4 ar 
     9    5    7 ar 
    10   25    5 ar 
    11    6   15 ar 
    12    7   15 ar 
    13    8   12 ar 
    14   14    8 ar 
    15    9   17 2  
    16   24    9 1  
    17   20   10 ar 
    18   24   11 2  
    19   11   35 1  
    20   12   21 ar 
    21   16   13 ar 
    22   13   22 ar 
    23   13   24 1  
    24   14   23 ar 
    25   28   14 1  
    26   15   36 1  
    27   16   20 ar 
    28   34   16 1  
    29   17   30 1  
    30   35   17 1  
    31   19   18 1  
    32   36   19 1  
    33   27   25 1  
    34   26   27 1  
    35   30   26 am 
    36   26   31 2  
    37   28   34 1  
    38   36   32 2  
    39   36   33 2  
    40    2   37 1  
    41    3   38 1  
    42    4   39 1  
    43    5   40 1  
    44    6   41 1  
    45    7   42 1  
    46    8   43 1  
    47    9   44 1  
    48   10   45 1  
    49   11   46 1  
    50   18   47 1  
    51   18   48 1  
    52   18   49 1  
    53   19   50 1  
    54   19   51 1  
    55   21   52 1  
    56   22   53 1  
    57   23   54 1  
    58   27   55 1  
    59   27   56 1  
    60   28   57 1  
    61   28   58 1  
    62   30   59 1  
@<TRIPOS>SUBSTRUCTURE
     1 8Y5         1

