### 
### Created by X-TOOL on Mon Sep 10 21:13:30 2018
### 

@<TRIPOS>MOLECULE
5nih_ligand
   25    26     1     0     0
SMALL
GAST_HUCK


@<TRIPOS>ATOM
      1 N1        -31.2430   84.1310   33.6350 N.pl3     1 8VE        -0.2529
      2 N3        -33.3350   85.1230   31.6320 N.4       1 8VE         0.2445
      3 C4        -31.2270   86.0560   32.2120 C.3       1 8VE         0.0936
      4 C5        -32.5640   86.3810   31.5100 C.3       1 8VE         0.0461
      5 C6        -30.3410   83.0360   34.0540 C.3       1 8VE         0.0273
      6 C7        -31.1010   87.6800   34.3060 C.2       1 8VE         0.0777
      7 C8        -32.4010   86.7180   30.0130 C.2       1 8VE         0.0871
      8 C1        -31.1760   86.3120   33.7020 C.2       1 8VE         0.0871
      9 N2        -31.1520   85.2780   34.4390 N.2       1 8VE        -0.2155
     10 C2        -32.3700   84.0320   31.4330 C.3       1 8VE        -0.0054
     11 C3        -31.1490   84.5370   32.2110 C.3       1 8VE         0.1084
     12 O1        -31.2980   87.7540   35.5540 O.co2     1 8VE        -0.5590
     13 O2        -33.0950   86.0880   29.1800 O.co2     1 8VE        -0.5641
     14 O3        -30.8270   88.6380   33.5500 O.co2     1 8VE        -0.5590
     15 O4        -31.5910   87.6220   29.7210 O.co2     1 8VE        -0.5641
     16 H1        -34.0559   85.0849   30.9285 H         1 8VE         0.2033
     17 H2        -33.7540   85.0568   32.5464 H         1 8VE         0.2033
     18 H3        -30.3905   86.5453   31.6916 H         1 8VE         0.0576
     19 H4        -33.0720   87.2134   32.0189 H         1 8VE         0.1054
     20 H5        -30.4695   82.1767   33.3793 H         1 8VE         0.0489
     21 H6        -30.5847   82.7337   35.0832 H         1 8VE         0.0489
     22 H7        -29.2981   83.3832   34.0110 H         1 8VE         0.0489
     23 H8        -32.1357   83.8957   30.3669 H         1 8VE         0.0839
     24 H9        -32.7455   83.0858   31.8498 H         1 8VE         0.0839
     25 H10       -30.2155   84.1747   31.7556 H         1 8VE         0.0644
@<TRIPOS>BOND
     1    1    5 1  
     2    1    9 1  
     3   11    1 1  
     4    4    2 1  
     5    2   10 1  
     6    3    4 1  
     7    3    8 1  
     8    3   11 1  
     9    4    7 1  
    10    8    6 1  
    11    6   12 ar 
    12    6   14 ar 
    13    7   13 ar 
    14    7   15 ar 
    15    8    9 2  
    16   10   11 1  
    17    2   16 1  
    18    2   17 1  
    19    3   18 1  
    20    4   19 1  
    21    5   20 1  
    22    5   21 1  
    23    5   22 1  
    24   10   23 1  
    25   10   24 1  
    26   11   25 1  
@<TRIPOS>SUBSTRUCTURE
     1 8VE         1

