### 
### Created by X-TOOL on Mon Sep 10 21:13:31 2018
### 

@<TRIPOS>MOLECULE
5njz_ligand
   57    60     1     0     0
SMALL
GAST_HUCK


@<TRIPOS>ATOM
      1 CAV       -93.0110  -16.0280   40.8760 C.3       1 8ZH         0.0106
      2 CAW       -91.7470  -15.3870   40.3250 C.3       1 8ZH        -0.0315
      3 NAX       -90.5460  -16.1690   40.6730 N.4       1 8ZH         0.2271
      4 CAY       -90.7970  -17.6120   40.5010 C.3       1 8ZH        -0.0315
      5 CAZ       -91.8200  -18.1100   41.5190 C.3       1 8ZH         0.0106
      6 CAU       -92.5980  -16.9050   42.0370 C.3       1 8ZH         0.0512
      7 NAT       -93.7760  -17.3010   42.8220 N.am      1 8ZH        -0.2828
      8 CAR       -94.7910  -18.0690   42.4010 C.2       1 8ZH         0.2026
      9 OAS       -94.9100  -18.5720   41.2830 O.2       1 8ZH        -0.3847
     10 CAN       -95.7690  -18.2030   43.3750 C.ar      1 8ZH         0.0407
     11 CAM       -97.1130  -18.2270   43.0250 C.ar      1 8ZH        -0.0177
     12 CAO       -95.3750  -18.2680   44.7050 C.ar      1 8ZH        -0.0533
     13 CAP       -96.3380  -18.3740   45.6930 C.ar      1 8ZH        -0.0655
     14 CAQ       -97.6770  -18.4040   45.3340 C.ar      1 8ZH        -0.0331
     15 CAL       -98.0920  -18.3440   44.0050 C.ar      1 8ZH         0.0748
     16 NAK       -99.3790  -18.3550   43.5950 N.pl3     1 8ZH        -0.2325
     17 CAJ      -100.4160  -18.8700   44.2820 C.2       1 8ZH         0.2071
     18 SBA      -100.4360  -19.6510   45.7710 S.3       1 8ZH         0.0335
     19 NAI      -101.6780  -18.8420   43.8110 N.2       1 8ZH        -0.3005
     20 CAH      -102.6020  -19.4100   44.6300 C.2       1 8ZH        -0.0119
     21 CAG      -102.0960  -19.9220   45.7660 C.2       1 8ZH         0.1116
     22 CAE      -102.7580  -20.5470   46.7650 C.2       1 8ZH         0.2254
     23 OAF      -102.1500  -20.8380   47.7950 O.2       1 8ZH        -0.3863
     24 NAD      -104.0730  -20.8390   46.5820 N.am      1 8ZH        -0.2385
     25 CAC      -104.7670  -21.4470   47.5870 C.ar      1 8ZH         0.0817
     26 CBB      -104.9890  -22.8310   47.5650 C.ar      1 8ZH         0.0531
     27 CL       -104.3930  -23.8490   46.2990 Cl        1 8ZH        -0.0853
     28 CBC      -105.7080  -23.4290   48.5990 C.ar      1 8ZH        -0.0686
     29 CBD      -106.2110  -22.6670   49.6480 C.ar      1 8ZH        -0.0834
     30 CBE      -105.9960  -21.2890   49.6580 C.ar      1 8ZH        -0.0735
     31 CAB      -105.2780  -20.6720   48.6340 C.ar      1 8ZH        -0.0235
     32 CAA      -105.0860  -19.2870   48.6870 C.3       1 8ZH        -0.0351
     33 H1        -93.4952  -16.6363   40.0978 H         1 8ZH         0.0339
     34 H2        -93.7086  -15.2504   41.2206 H         1 8ZH         0.0339
     35 H3        -91.6479  -14.3749   40.7444 H         1 8ZH         0.0814
     36 H4        -91.8269  -15.3239   39.2297 H         1 8ZH         0.0814
     37 H5        -90.2999  -15.9880   41.6336 H         1 8ZH         0.2013
     38 H6        -89.7849  -15.8916   40.0731 H         1 8ZH         0.2013
     39 H7        -89.8539  -18.1610   40.6395 H         1 8ZH         0.0814
     40 H8        -91.1809  -17.7927   39.4862 H         1 8ZH         0.0814
     41 H9        -91.3040  -18.6074   42.3535 H         1 8ZH         0.0339
     42 H10       -92.5090  -18.8201   41.0384 H         1 8ZH         0.0339
     43 H11       -91.9325  -16.3246   42.6928 H         1 8ZH         0.0559
     44 H12       -93.8251  -16.9645   43.7624 H         1 8ZH         0.1848
     45 H13       -97.4000  -18.1541   41.9822 H         1 8ZH         0.0590
     46 H14       -94.3235  -18.2360   44.9666 H         1 8ZH         0.0573
     47 H15       -96.0488  -18.4329   46.7361 H         1 8ZH         0.0600
     48 H16       -98.4265  -18.4766   46.1137 H         1 8ZH         0.0574
     49 H17       -99.5847  -17.9332   42.6781 H         1 8ZH         0.2235
     50 H18      -103.6628  -19.4474   44.3868 H         1 8ZH         0.0649
     51 H19      -104.5265  -20.6107   45.7205 H         1 8ZH         0.2226
     52 H20      -105.8768  -24.4997   48.5851 H         1 8ZH         0.0526
     53 H21      -106.7652  -23.1398   50.4507 H         1 8ZH         0.0471
     54 H22      -106.3915  -20.6908   50.4709 H         1 8ZH         0.0515
     55 H23      -104.5048  -18.9636   47.8109 H         1 8ZH         0.0362
     56 H24      -104.5395  -19.0274   49.6057 H         1 8ZH         0.0362
     57 H25      -106.0627  -18.7811   48.6860 H         1 8ZH         0.0362
@<TRIPOS>BOND
     1    1    2 1  
     2    1    6 1  
     3    2    3 1  
     4    3    4 1  
     5    4    5 1  
     6    5    6 1  
     7    6    7 1  
     8    7    8 am 
     9    8    9 2  
    10    8   10 1  
    11   10   11 ar 
    12   10   12 ar 
    13   11   15 ar 
    14   12   13 ar 
    15   13   14 ar 
    16   14   15 ar 
    17   15   16 1  
    18   16   17 1  
    19   17   18 1  
    20   17   19 2  
    21   18   21 1  
    22   19   20 1  
    23   20   21 2  
    24   21   22 1  
    25   22   23 2  
    26   22   24 am 
    27   24   25 1  
    28   25   26 ar 
    29   25   31 ar 
    30   26   27 1  
    31   26   28 ar 
    32   28   29 ar 
    33   29   30 ar 
    34   30   31 ar 
    35   31   32 1  
    36    1   33 1  
    37    1   34 1  
    38    2   35 1  
    39    2   36 1  
    40    3   37 1  
    41    3   38 1  
    42    4   39 1  
    43    4   40 1  
    44    5   41 1  
    45    5   42 1  
    46    6   43 1  
    47    7   44 1  
    48   11   45 1  
    49   12   46 1  
    50   13   47 1  
    51   14   48 1  
    52   16   49 1  
    53   20   50 1  
    54   24   51 1  
    55   28   52 1  
    56   29   53 1  
    57   30   54 1  
    58   32   55 1  
    59   32   56 1  
    60   32   57 1  
@<TRIPOS>SUBSTRUCTURE
     1 8ZH         1

