### 
### Created by X-TOOL on Mon Sep 10 21:13:31 2018
### 

@<TRIPOS>MOLECULE
5nk2_ligand
   57    60     1     0     0
SMALL
GAST_HUCK


@<TRIPOS>ATOM
      1 FAX       -80.5730  -13.9630   10.2240 F         1 8ZZ        -0.2375
      2 CAW       -81.5090  -14.2060   11.0130 C.3       1 8ZZ         0.1630
      3 CAV       -80.9290  -14.2490   12.4260 C.3       1 8ZZ         0.0004
      4 NAU       -80.6760  -15.6370   12.8290 N.4       1 8ZZ         0.2291
      5 CAT       -81.9790  -16.3130   12.8970 C.3       1 8ZZ        -0.0313
      6 CAS       -82.7170  -16.3210   11.5570 C.3       1 8ZZ         0.0133
      7 CAR       -81.8610  -15.6110   10.5300 C.3       1 8ZZ         0.0823
      8 NAQ       -82.4850  -15.5850    9.1770 N.am      1 8ZZ        -0.2800
      9 CAP       -83.7130  -15.1180    8.8680 C.2       1 8ZZ         0.2027
     10 OAY       -84.5020  -14.6260    9.6720 O.2       1 8ZZ        -0.3847
     11 CAO       -84.0630  -15.2240    7.5180 C.ar      1 8ZZ         0.0407
     12 CAZ       -85.4030  -15.2130    7.1200 C.ar      1 8ZZ        -0.0177
     13 CAN       -83.0720  -15.3360    6.5560 C.ar      1 8ZZ        -0.0533
     14 CAM       -83.4220  -15.4240    5.2150 C.ar      1 8ZZ        -0.0655
     15 CAL       -84.7590  -15.4230    4.8240 C.ar      1 8ZZ        -0.0331
     16 CAK       -85.7690  -15.3350    5.7770 C.ar      1 8ZZ         0.0748
     17 NAJ       -87.0440  -15.3170    5.3270 N.pl3     1 8ZZ        -0.2325
     18 CAI       -88.0910  -15.8690    5.9760 C.2       1 8ZZ         0.2071
     19 SBA       -88.1340  -16.6690    7.4670 S.3       1 8ZZ         0.0335
     20 NAH       -89.3480  -15.8550    5.4860 N.2       1 8ZZ        -0.3005
     21 CAG       -90.2810  -16.4620    6.2650 C.2       1 8ZZ        -0.0119
     22 CAF       -89.8140  -16.9800    7.4140 C.2       1 8ZZ         0.1116
     23 CAE       -90.4840  -17.6420    8.3980 C.2       1 8ZZ         0.2254
     24 OBB       -89.8700  -17.9660    9.4180 O.2       1 8ZZ        -0.3863
     25 NAD       -91.8140  -17.9090    8.2390 N.am      1 8ZZ        -0.2385
     26 CAC       -92.4900  -18.5520    9.2440 C.ar      1 8ZZ         0.0817
     27 CAB       -92.5920  -19.9440    9.2580 C.ar      1 8ZZ         0.0531
     28 CLA       -91.8510  -20.9370    8.0220 Cl        1 8ZZ        -0.0853
     29 CBG       -93.2920  -20.5850   10.2840 C.ar      1 8ZZ        -0.0686
     30 CBF       -93.8960  -19.8410   11.2970 C.ar      1 8ZZ        -0.0834
     31 CBE       -93.8070  -18.4480   11.2700 C.ar      1 8ZZ        -0.0735
     32 CBC       -93.1060  -17.8020   10.2510 C.ar      1 8ZZ        -0.0235
     33 CBD       -93.0420  -16.4070   10.2510 C.3       1 8ZZ        -0.0351
     34 H1        -82.3481  -13.4983   10.9423 H         1 8ZZ         0.0729
     35 H2        -81.6440  -13.7922   13.1261 H         1 8ZZ         0.0843
     36 H3        -79.9840  -13.6865   12.4479 H         1 8ZZ         0.0843
     37 H4        -80.2281  -15.6585   13.7317 H         1 8ZZ         0.2014
     38 H5        -80.0858  -16.0918   12.1501 H         1 8ZZ         0.2014
     39 H6        -82.6046  -15.7952   13.6389 H         1 8ZZ         0.0814
     40 H7        -81.8182  -17.3536   13.2151 H         1 8ZZ         0.0814
     41 H8        -83.6799  -15.7995   11.6611 H         1 8ZZ         0.0340
     42 H9        -82.8945  -17.3586   11.2379 H         1 8ZZ         0.0340
     43 H10       -80.9213  -16.1759   10.4408 H         1 8ZZ         0.0588
     44 H11       -81.9394  -15.9500    8.4227 H         1 8ZZ         0.1849
     45 H12       -86.1770  -15.1073    7.8715 H         1 8ZZ         0.0590
     46 H13       -82.0285  -15.3548    6.8488 H         1 8ZZ         0.0573
     47 H14       -82.6447  -15.4944    4.4627 H         1 8ZZ         0.0600
     48 H15       -85.0137  -15.4911    3.7725 H         1 8ZZ         0.0574
     49 H16       -87.2289  -14.8502    4.4276 H         1 8ZZ         0.2235
     50 H17       -91.3301  -16.5243    5.9795 H         1 8ZZ         0.0649
     51 H18       -92.2884  -17.6392    7.4010 H         1 8ZZ         0.2226
     52 H19       -93.3658  -21.6665   10.2923 H         1 8ZZ         0.0526
     53 H20       -94.4297  -20.3396   12.0980 H         1 8ZZ         0.0471
     54 H21       -94.2864  -17.8635   12.0470 H         1 8ZZ         0.0515
     55 H22       -92.4556  -16.0669    9.3847 H         1 8ZZ         0.0362
     56 H23       -92.5605  -16.0620   11.1779 H         1 8ZZ         0.0362
     57 H24       -94.0594  -15.9932   10.1903 H         1 8ZZ         0.0362
@<TRIPOS>BOND
     1    1    2 1  
     2    2    3 1  
     3    2    7 1  
     4    3    4 1  
     5    4    5 1  
     6    5    6 1  
     7    6    7 1  
     8    7    8 1  
     9    8    9 am 
    10    9   10 2  
    11    9   11 1  
    12   11   12 ar 
    13   11   13 ar 
    14   12   16 ar 
    15   13   14 ar 
    16   14   15 ar 
    17   15   16 ar 
    18   16   17 1  
    19   17   18 1  
    20   18   19 1  
    21   18   20 2  
    22   19   22 1  
    23   20   21 1  
    24   21   22 2  
    25   22   23 1  
    26   23   24 2  
    27   23   25 am 
    28   25   26 1  
    29   26   27 ar 
    30   26   32 ar 
    31   27   28 1  
    32   27   29 ar 
    33   29   30 ar 
    34   30   31 ar 
    35   31   32 ar 
    36   32   33 1  
    37    2   34 1  
    38    3   35 1  
    39    3   36 1  
    40    4   37 1  
    41    4   38 1  
    42    5   39 1  
    43    5   40 1  
    44    6   41 1  
    45    6   42 1  
    46    7   43 1  
    47    8   44 1  
    48   12   45 1  
    49   13   46 1  
    50   14   47 1  
    51   15   48 1  
    52   17   49 1  
    53   21   50 1  
    54   25   51 1  
    55   29   52 1  
    56   30   53 1  
    57   31   54 1  
    58   33   55 1  
    59   33   56 1  
    60   33   57 1  
@<TRIPOS>SUBSTRUCTURE
     1 8ZZ         1

