### 
### Created by X-TOOL on Mon Sep 10 21:13:32 2018
### 

@<TRIPOS>MOLECULE
5nk3_ligand
   54    57     1     0     0
SMALL
GAST_HUCK


@<TRIPOS>ATOM
      1 CAV       123.0100   38.2230  -23.9050 C.3       1 92Q         0.0154
      2 CAU       121.9870   39.3640  -24.0050 C.3       1 92Q        -0.0313
      3 NAT       120.6720   38.6980  -24.1580 N.4       1 92Q         0.2287
      4 CAS       120.9900   37.2550  -24.2560 C.3       1 92Q        -0.0100
      5 CAR       122.1510   37.1430  -23.3070 C.3       1 92Q         0.0860
      6 NAQ       122.7840   35.8060  -23.4250 N.am      1 92Q        -0.2779
      7 CAP       123.7880   35.4070  -22.6310 C.2       1 92Q         0.2028
      8 OAW       124.2480   36.1040  -21.7280 O.2       1 92Q        -0.3847
      9 CAO       124.2420   34.0980  -22.8450 C.ar      1 92Q         0.0407
     10 CAX       125.6060   33.8000  -22.8890 C.ar      1 92Q        -0.0177
     11 CAN       123.3120   33.0770  -22.9990 C.ar      1 92Q        -0.0533
     12 CAM       123.7370   31.7670  -23.2040 C.ar      1 92Q        -0.0655
     13 CAL       125.1030   31.4810  -23.2510 C.ar      1 92Q        -0.0331
     14 CAK       126.0470   32.4900  -23.1070 C.ar      1 92Q         0.0748
     15 NAJ       127.3490   32.1150  -23.1530 N.pl3     1 92Q        -0.2325
     16 CAI       128.3310   32.8420  -23.6910 C.2       1 92Q         0.2071
     17 SAY       128.2480   34.3150  -24.5320 S.3       1 92Q         0.0335
     18 NAH       129.6150   32.4620  -23.6200 N.2       1 92Q        -0.3005
     19 CAG       130.5020   33.3200  -24.2030 C.2       1 92Q        -0.0119
     20 CAF       129.9340   34.3990  -24.7820 C.2       1 92Q         0.1116
     21 CAE       130.5470   35.4210  -25.4260 C.2       1 92Q         0.2254
     22 OAZ       129.8880   36.4110  -25.7460 O.2       1 92Q        -0.3863
     23 NAD       131.8890   35.3370  -25.6500 N.am      1 92Q        -0.2385
     24 CAC       132.5690   36.3740  -26.2240 C.ar      1 92Q         0.0817
     25 CAB       132.9310   36.3430  -27.5800 C.ar      1 92Q         0.0531
     26 CL        132.5250   35.0260  -28.6310 Cl        1 92Q        -0.0853
     27 CBE       133.6440   37.4120  -28.1260 C.ar      1 92Q        -0.0686
     28 CBD       134.0060   38.4990  -27.3410 C.ar      1 92Q        -0.0834
     29 CBC       133.6540   38.5240  -25.9970 C.ar      1 92Q        -0.0735
     30 CBA       132.9430   37.4640  -25.4290 C.ar      1 92Q        -0.0235
     31 CBB       132.6200   37.5410  -24.0740 C.3       1 92Q        -0.0351
     32 H1        123.8502   38.4864  -23.2457 H         1 92Q         0.0341
     33 H2        123.3962   37.9349  -24.8938 H         1 92Q         0.0341
     34 H3        122.2014   39.9983  -24.8777 H         1 92Q         0.0814
     35 H4        122.0041   39.9779  -23.0924 H         1 92Q         0.0814
     36 H5        120.2072   39.0170  -24.9936 H         1 92Q         0.2014
     37 H6        120.0865   38.8793  -23.3577 H         1 92Q         0.2014
     38 H7        121.2786   36.9750  -25.2799 H         1 92Q         0.0837
     39 H8        120.1429   36.6331  -23.9308 H         1 92Q         0.0837
     40 H9        121.8764   37.3461  -22.2614 H         1 92Q         0.0611
     41 H10       122.4478   35.1766  -24.1257 H         1 92Q         0.1850
     42 H11       126.3319   34.5934  -22.7526 H         1 92Q         0.0590
     43 H12       122.2522   33.3012  -22.9594 H         1 92Q         0.0573
     44 H13       123.0102   30.9721  -23.3267 H         1 92Q         0.0600
     45 H14       125.4309   30.4588  -23.4017 H         1 92Q         0.0574
     46 H15       127.5985   31.2035  -22.7433 H         1 92Q         0.2235
     47 H16       131.5774   33.1485  -24.2012 H         1 92Q         0.0649
     48 H17       132.3819   34.5063  -25.3911 H         1 92Q         0.2226
     49 H18       133.9182   37.3934  -29.1746 H         1 92Q         0.0526
     50 H19       134.5602   39.3236  -27.7745 H         1 92Q         0.0471
     51 H20       133.9335   39.3732  -25.3840 H         1 92Q         0.0515
     52 H21       132.0650   36.6387  -23.7775 H         1 92Q         0.0362
     53 H22       131.9970   38.4298  -23.8955 H         1 92Q         0.0362
     54 H23       133.5432   37.6150  -23.4806 H         1 92Q         0.0362
@<TRIPOS>BOND
     1    1    2 1  
     2    1    5 1  
     3    2    3 1  
     4    3    4 1  
     5    4    5 1  
     6    5    6 1  
     7    6    7 am 
     8    7    8 2  
     9    7    9 1  
    10    9   10 ar 
    11    9   11 ar 
    12   10   14 ar 
    13   11   12 ar 
    14   12   13 ar 
    15   13   14 ar 
    16   14   15 1  
    17   15   16 1  
    18   16   17 1  
    19   16   18 2  
    20   17   20 1  
    21   18   19 1  
    22   19   20 2  
    23   20   21 1  
    24   21   22 2  
    25   21   23 am 
    26   23   24 1  
    27   24   25 ar 
    28   24   30 ar 
    29   25   26 1  
    30   25   27 ar 
    31   27   28 ar 
    32   28   29 ar 
    33   29   30 ar 
    34   30   31 1  
    35    1   32 1  
    36    1   33 1  
    37    2   34 1  
    38    2   35 1  
    39    3   36 1  
    40    3   37 1  
    41    4   38 1  
    42    4   39 1  
    43    5   40 1  
    44    6   41 1  
    45   10   42 1  
    46   11   43 1  
    47   12   44 1  
    48   13   45 1  
    49   15   46 1  
    50   19   47 1  
    51   23   48 1  
    52   27   49 1  
    53   28   50 1  
    54   29   51 1  
    55   31   52 1  
    56   31   53 1  
    57   31   54 1  
@<TRIPOS>SUBSTRUCTURE
     1 92Q         1

