### 
### Created by X-TOOL on Mon Sep 10 21:13:31 2018
### 

@<TRIPOS>MOLECULE
5nk4_ligand
   57    60     1     0     0
SMALL
GAST_HUCK


@<TRIPOS>ATOM
      1 FAX       -81.1520   -7.8430    3.9170 F         1 90E        -0.1973
      2 CAW       -80.3400   -8.8200    3.5730 C.3       1 90E         0.3094
      3 FAY       -79.9380   -9.3630    4.7890 F         1 90E        -0.1973
      4 CAV       -79.1690   -8.3370    2.7710 C.3       1 90E         0.0335
      5 NAU       -78.2590   -9.4450    2.4230 N.4       1 90E         0.2313
      6 CAT       -78.8660  -10.7870    2.5310 C.3       1 90E        -0.0311
      7 CAS       -80.2890  -10.8150    1.9980 C.3       1 90E         0.0162
      8 CAR       -81.1610   -9.7600    2.7060 C.3       1 90E         0.1146
      9 NAQ       -82.1650  -10.2760    3.6450 N.am      1 90E        -0.2771
     10 CAP       -82.2220  -11.4670    4.2620 C.2       1 90E         0.2028
     11 OAZ       -81.4510  -12.4190    4.1390 O.2       1 90E        -0.3847
     12 CAO       -83.2530  -11.4970    5.1810 C.ar      1 90E         0.0407
     13 CBA       -84.5850  -11.4210    4.7910 C.ar      1 90E        -0.0177
     14 CAN       -82.9010  -11.5420    6.5200 C.ar      1 90E        -0.0533
     15 CAM       -83.8890  -11.5400    7.4880 C.ar      1 90E        -0.0655
     16 CAL       -85.2180  -11.4800    7.0970 C.ar      1 90E        -0.0331
     17 CAK       -85.5940  -11.4380    5.7520 C.ar      1 90E         0.0748
     18 NAJ       -86.8660  -11.3670    5.3050 N.pl3     1 90E        -0.2325
     19 CAI       -87.9430  -11.8810    5.9350 C.2       1 90E         0.2071
     20 SBB       -88.0230  -12.7080    7.3550 S.3       1 90E         0.0335
     21 NAH       -89.1950  -11.7860    5.4600 N.2       1 90E        -0.3005
     22 CAG       -90.1290  -12.3760    6.2500 C.2       1 90E        -0.0119
     23 CAF       -89.6180  -12.9470    7.3580 C.2       1 90E         0.1116
     24 CAE       -90.2330  -13.6090    8.3560 C.2       1 90E         0.2254
     25 OBC       -89.5770  -13.9120    9.3540 O.2       1 90E        -0.3863
     26 NAD       -91.5510  -13.9110    8.2260 N.am      1 90E        -0.2385
     27 CAC       -92.1740  -14.5420    9.2540 C.ar      1 90E         0.0817
     28 CAB       -92.2620  -15.9350    9.2930 C.ar      1 90E         0.0531
     29 CLA       -91.5870  -16.9340    8.0590 Cl        1 90E        -0.0853
     30 CBH       -92.9160  -16.5520   10.3550 C.ar      1 90E        -0.0686
     31 CBG       -93.4780  -15.7900   11.3740 C.ar      1 90E        -0.0834
     32 CBF       -93.3940  -14.4020   11.3290 C.ar      1 90E        -0.0735
     33 CBD       -92.7470  -13.7740   10.2690 C.ar      1 90E        -0.0235
     34 CBE       -92.6840  -12.3860   10.2490 C.3       1 90E        -0.0351
     35 H1        -78.6153   -7.5912    3.3602 H         1 90E         0.0874
     36 H2        -79.5373   -7.8724    1.8445 H         1 90E         0.0874
     37 H3        -77.4645   -9.4072    3.0421 H         1 90E         0.2016
     38 H4        -77.9508   -9.3136    1.4723 H         1 90E         0.2016
     39 H5        -78.8776  -11.0870    3.5892 H         1 90E         0.0814
     40 H6        -78.2573  -11.4992    1.9546 H         1 90E         0.0814
     41 H7        -80.7190  -11.8126    2.1708 H         1 90E         0.0341
     42 H8        -80.2737  -10.6042    0.9185 H         1 90E         0.0341
     43 H9        -81.6726   -9.1852    1.9199 H         1 90E         0.0619
     44 H10       -82.9153   -9.6493    3.8555 H         1 90E         0.1850
     45 H11       -84.8388  -11.3485    3.7396 H         1 90E         0.0590
     46 H12       -81.8565  -11.5786    6.8077 H         1 90E         0.0573
     47 H13       -83.6276  -11.5848    8.5391 H         1 90E         0.0600
     48 H14       -85.9893  -11.4652    7.8586 H         1 90E         0.0574
     49 H15       -87.0274  -10.8814    4.4111 H         1 90E         0.2235
     50 H16       -91.1912  -12.3865    6.0103 H         1 90E         0.0649
     51 H17       -92.0506  -13.6741    7.3927 H         1 90E         0.2226
     52 H18       -92.9880  -17.6331   10.3884 H         1 90E         0.0526
     53 H19       -93.9806  -16.2769   12.2019 H         1 90E         0.0471
     54 H20       -93.8338  -13.8080   12.1220 H         1 90E         0.0515
     55 H21       -92.1427  -12.0565    9.3499 H         1 90E         0.0362
     56 H22       -92.1560  -12.0299   11.1459 H         1 90E         0.0362
     57 H23       -93.7033  -11.9728   10.2353 H         1 90E         0.0362
@<TRIPOS>BOND
     1    1    2 1  
     2    2    3 1  
     3    2    4 1  
     4    2    8 1  
     5    4    5 1  
     6    5    6 1  
     7    6    7 1  
     8    7    8 1  
     9    8    9 1  
    10    9   10 am 
    11   10   11 2  
    12   10   12 1  
    13   12   13 ar 
    14   12   14 ar 
    15   13   17 ar 
    16   14   15 ar 
    17   15   16 ar 
    18   16   17 ar 
    19   17   18 1  
    20   18   19 1  
    21   19   20 1  
    22   19   21 2  
    23   20   23 1  
    24   21   22 1  
    25   22   23 2  
    26   23   24 1  
    27   24   25 2  
    28   24   26 am 
    29   26   27 1  
    30   27   28 ar 
    31   27   33 ar 
    32   28   29 1  
    33   28   30 ar 
    34   30   31 ar 
    35   31   32 ar 
    36   32   33 ar 
    37   33   34 1  
    38    4   35 1  
    39    4   36 1  
    40    5   37 1  
    41    5   38 1  
    42    6   39 1  
    43    6   40 1  
    44    7   41 1  
    45    7   42 1  
    46    8   43 1  
    47    9   44 1  
    48   13   45 1  
    49   14   46 1  
    50   15   47 1  
    51   16   48 1  
    52   18   49 1  
    53   22   50 1  
    54   26   51 1  
    55   30   52 1  
    56   31   53 1  
    57   32   54 1  
    58   34   55 1  
    59   34   56 1  
    60   34   57 1  
@<TRIPOS>SUBSTRUCTURE
     1 90E         1

