### 
### Created by X-TOOL on Mon Sep 10 21:13:31 2018
### 

@<TRIPOS>MOLECULE
5nk6_ligand
   58    61     1     0     0
SMALL
GAST_HUCK


@<TRIPOS>ATOM
      1 CAS       -81.7360  -14.9920   11.1360 C.3       1 90W        -0.0276
      2 CAT       -81.3880  -14.9180   12.6050 C.3       1 90W        -0.0248
      3 CAU       -80.1210  -14.0850   12.7800 C.3       1 90W         0.0554
      4 OAV       -80.2360  -13.3260   13.9950 O.3       1 90W        -0.3918
      5 CAW       -79.8940  -13.1630   11.5640 C.3       1 90W        -0.0248
      6 CAX       -81.2060  -12.5150   11.1250 C.3       1 90W        -0.0276
      7 CAR       -82.2110  -13.6020   10.7010 C.3       1 90W         0.0417
      8 NAQ       -82.4800  -13.6090    9.2510 N.am      1 90W        -0.2832
      9 CAP       -83.7440  -13.4610    8.8340 C.2       1 90W         0.2026
     10 OAY       -84.6810  -13.3070    9.6140 O.2       1 90W        -0.3847
     11 CAO       -83.9900  -13.5150    7.4670 C.ar      1 90W         0.0407
     12 CAZ       -85.3210  -13.5260    7.0710 C.ar      1 90W        -0.0177
     13 CAN       -82.9790  -13.5700    6.5150 C.ar      1 90W        -0.0533
     14 CAM       -83.3260  -13.6280    5.1670 C.ar      1 90W        -0.0655
     15 CAL       -84.6650  -13.6380    4.7810 C.ar      1 90W        -0.0331
     16 CAK       -85.6810  -13.6020    5.7310 C.ar      1 90W         0.0748
     17 NAJ       -86.9560  -13.5960    5.2910 N.pl3     1 90W        -0.2325
     18 CAI       -88.0280  -14.0940    5.9410 C.2       1 90W         0.2071
     19 SBA       -88.1460  -14.8560    7.4580 S.3       1 90W         0.0335
     20 NAH       -89.2580  -14.0440    5.3960 N.2       1 90W        -0.3005
     21 CAG       -90.2300  -14.5960    6.1750 C.2       1 90W        -0.0119
     22 CAF       -89.7980  -15.0960    7.3650 C.2       1 90W         0.1116
     23 CAE       -90.4640  -15.7180    8.3780 C.2       1 90W         0.2254
     24 OBB       -89.8640  -15.9410    9.4260 O.2       1 90W        -0.3863
     25 NAD       -91.7560  -16.0930    8.2100 N.am      1 90W        -0.2385
     26 CAC       -92.3970  -16.7340    9.2350 C.ar      1 90W         0.0817
     27 CAB       -93.0100  -16.0010   10.2580 C.ar      1 90W         0.0531
     28 CLA       -92.9630  -14.2730   10.3060 Cl        1 90W        -0.0853
     29 CBG       -93.6720  -16.6810   11.2800 C.ar      1 90W        -0.0686
     30 CBF       -93.7300  -18.0720   11.2870 C.ar      1 90W        -0.0834
     31 CBE       -93.1290  -18.7990   10.2660 C.ar      1 90W        -0.0735
     32 CBC       -92.4610  -18.1350    9.2380 C.ar      1 90W        -0.0235
     33 CBD       -91.8700  -18.8940    8.2300 C.3       1 90W        -0.0351
     34 H1        -82.5373  -15.7287   10.9771 H         1 90W         0.0288
     35 H2        -80.8489  -15.2839   10.5548 H         1 90W         0.0288
     36 H3        -81.2177  -15.9326   12.9942 H         1 90W         0.0291
     37 H4        -82.2160  -14.4481   13.1559 H         1 90W         0.0291
     38 H5        -79.2589  -14.7628   12.8657 H         1 90W         0.0593
     39 H6        -79.4524  -12.8026   14.1154 H         1 90W         0.2098
     40 H7        -79.4883  -13.7566   10.7315 H         1 90W         0.0291
     41 H8        -79.1761  -12.3756   11.8370 H         1 90W         0.0291
     42 H9        -81.0147  -11.8436   10.2750 H         1 90W         0.0288
     43 H10       -81.6253  -11.9370   11.9617 H         1 90W         0.0288
     44 H11       -83.1598  -13.3893   11.2153 H         1 90W         0.0555
     45 H12       -81.7349  -13.7218    8.5936 H         1 90W         0.1848
     46 H13       -86.0978  -13.4741    7.8253 H         1 90W         0.0590
     47 H14       -81.9377  -13.5678    6.8163 H         1 90W         0.0573
     48 H15       -82.5485  -13.6656    4.4126 H         1 90W         0.0600
     49 H16       -84.9182  -13.6743    3.7276 H         1 90W         0.0574
     50 H17       -87.1278  -13.1698    4.3692 H         1 90W         0.2235
     51 H18       -91.2743  -14.6343    5.8685 H         1 90W         0.0649
     52 H19       -92.2326  -15.9043    7.3513 H         1 90W         0.2226
     53 H20       -94.1464  -16.1205   12.0774 H         1 90W         0.0526
     54 H21       -94.2443  -18.5885   12.0894 H         1 90W         0.0471
     55 H22       -93.1797  -19.8818   10.2690 H         1 90W         0.0515
     56 H23       -91.3879  -18.2249    7.5020 H         1 90W         0.0362
     57 H24       -92.6403  -19.4935    7.7229 H         1 90W         0.0362
     58 H25       -91.1151  -19.5627    8.6692 H         1 90W         0.0362
@<TRIPOS>BOND
     1    1    2 1  
     2    1    7 1  
     3    2    3 1  
     4    3    4 1  
     5    3    5 1  
     6    5    6 1  
     7    6    7 1  
     8    7    8 1  
     9    8    9 am 
    10    9   10 2  
    11    9   11 1  
    12   11   12 ar 
    13   11   13 ar 
    14   12   16 ar 
    15   13   14 ar 
    16   14   15 ar 
    17   15   16 ar 
    18   16   17 1  
    19   17   18 1  
    20   18   19 1  
    21   18   20 2  
    22   19   22 1  
    23   20   21 1  
    24   21   22 2  
    25   22   23 1  
    26   23   24 2  
    27   23   25 am 
    28   25   26 1  
    29   26   27 ar 
    30   26   32 ar 
    31   27   28 1  
    32   27   29 ar 
    33   29   30 ar 
    34   30   31 ar 
    35   31   32 ar 
    36   32   33 1  
    37    1   34 1  
    38    1   35 1  
    39    2   36 1  
    40    2   37 1  
    41    3   38 1  
    42    4   39 1  
    43    5   40 1  
    44    5   41 1  
    45    6   42 1  
    46    6   43 1  
    47    7   44 1  
    48    8   45 1  
    49   12   46 1  
    50   13   47 1  
    51   14   48 1  
    52   15   49 1  
    53   17   50 1  
    54   21   51 1  
    55   25   52 1  
    56   29   53 1  
    57   30   54 1  
    58   31   55 1  
    59   33   56 1  
    60   33   57 1  
    61   33   58 1  
@<TRIPOS>SUBSTRUCTURE
     1 90W         1

