### 
### Created by X-TOOL on Mon Sep 10 21:13:31 2018
### 

@<TRIPOS>MOLECULE
5nk7_ligand
   57    60     1     0     0
SMALL
GAST_HUCK


@<TRIPOS>ATOM
      1 FAX       -81.1290  -12.4910    2.4200 F         1 8ZZ        -0.2375
      2 CAW       -80.0380  -12.8840    3.1450 C.3       1 8ZZ         0.1630
      3 CAV       -78.7730  -12.6730    2.3270 C.3       1 8ZZ         0.0004
      4 NAU       -77.5850  -13.0910    3.0860 N.4       1 8ZZ         0.2291
      5 CAT       -77.6910  -14.5160    3.4340 C.3       1 8ZZ        -0.0313
      6 CAS       -78.9140  -14.7680    4.3000 C.3       1 8ZZ         0.0133
      7 CAR       -80.1590  -14.3540    3.5360 C.3       1 8ZZ         0.0823
      8 NAQ       -81.3310  -14.5170    4.4070 N.am      1 8ZZ        -0.2800
      9 CAP       -82.4220  -15.2200    4.0680 C.2       1 8ZZ         0.2027
     10 OAY       -82.5700  -15.7960    2.9920 O.2       1 8ZZ        -0.3847
     11 CAO       -83.4210  -15.2050    5.0400 C.ar      1 8ZZ         0.0407
     12 CAZ       -84.7680  -15.2310    4.6860 C.ar      1 8ZZ        -0.0177
     13 CAN       -83.0530  -15.1320    6.3770 C.ar      1 8ZZ        -0.0533
     14 CAM       -84.0300  -15.0990    7.3600 C.ar      1 8ZZ        -0.0655
     15 CAL       -85.3710  -15.1220    6.9980 C.ar      1 8ZZ        -0.0331
     16 CAK       -85.7650  -15.2060    5.6620 C.ar      1 8ZZ         0.0748
     17 NAJ       -87.0510  -15.2250    5.2530 N.pl3     1 8ZZ        -0.2325
     18 CAI       -88.0710  -15.7650    5.9500 C.2       1 8ZZ         0.2071
     19 SBA       -88.0670  -16.5640    7.4250 S.3       1 8ZZ         0.0335
     20 NAH       -89.3410  -15.7350    5.5150 N.2       1 8ZZ        -0.3005
     21 CAG       -90.2370  -16.3240    6.3430 C.2       1 8ZZ        -0.0119
     22 CAF       -89.6930  -16.8460    7.4530 C.2       1 8ZZ         0.1116
     23 CAE       -90.3390  -17.4840    8.4430 C.2       1 8ZZ         0.2254
     24 OBB       -89.7270  -17.8380    9.4490 O.2       1 8ZZ        -0.3863
     25 NAD       -91.6640  -17.6900    8.2710 N.am      1 8ZZ        -0.2385
     26 CAC       -92.3540  -18.2940    9.2610 C.ar      1 8ZZ         0.0817
     27 CAB       -92.5230  -19.6820    9.2620 C.ar      1 8ZZ         0.0531
     28 CLA       -91.8540  -20.7200    8.0190 Cl        1 8ZZ        -0.0853
     29 CBG       -93.2520  -20.2660   10.2940 C.ar      1 8ZZ        -0.0686
     30 CBF       -93.8040  -19.4840   11.3060 C.ar      1 8ZZ        -0.0834
     31 CBE       -93.6360  -18.1040   11.2950 C.ar      1 8ZZ        -0.0735
     32 CBC       -92.9110  -17.5000   10.2690 C.ar      1 8ZZ        -0.0235
     33 CBD       -92.7570  -16.1160   10.2740 C.3       1 8ZZ        -0.0351
     34 H1        -79.9798  -12.2755    4.0595 H         1 8ZZ         0.0729
     35 H2        -78.6816  -11.6068    2.0725 H         1 8ZZ         0.0843
     36 H3        -78.8378  -13.2663    1.4030 H         1 8ZZ         0.0843
     37 H4        -77.5182  -12.5446    3.9304 H         1 8ZZ         0.2014
     38 H5        -76.7607  -12.9442    2.5247 H         1 8ZZ         0.2014
     39 H6        -76.7893  -14.8212    3.9852 H         1 8ZZ         0.0814
     40 H7        -77.7743  -15.1080    2.5106 H         1 8ZZ         0.0814
     41 H8        -78.8373  -14.1789    5.2258 H         1 8ZZ         0.0340
     42 H9        -78.9741  -15.8375    4.5499 H         1 8ZZ         0.0340
     43 H10       -80.2704  -14.9750    2.6350 H         1 8ZZ         0.0588
     44 H11       -81.3144  -14.0780    5.3054 H         1 8ZZ         0.1849
     45 H12       -85.0453  -15.2712    3.6388 H         1 8ZZ         0.0590
     46 H13       -82.0047  -15.1009    6.6513 H         1 8ZZ         0.0573
     47 H14       -83.7489  -15.0555    8.4060 H         1 8ZZ         0.0600
     48 H15       -86.1290  -15.0736    7.7714 H         1 8ZZ         0.0574
     49 H16       -87.2690  -14.7959    4.3424 H         1 8ZZ         0.2235
     50 H17       -91.3034  -16.3697    6.1270 H         1 8ZZ         0.0649
     51 H18       -92.1219  -17.4016    7.4301 H         1 8ZZ         0.2226
     52 H19       -93.3917  -21.3408   10.3103 H         1 8ZZ         0.0526
     53 H20       -94.3666  -19.9532   12.1050 H         1 8ZZ         0.0471
     54 H21       -94.0683  -17.4984   12.0833 H         1 8ZZ         0.0515
     55 H22       -92.1632  -15.8100    9.4001 H         1 8ZZ         0.0362
     56 H23       -92.2399  -15.8079   11.1947 H         1 8ZZ         0.0362
     57 H24       -93.7462  -15.6368   10.2311 H         1 8ZZ         0.0362
@<TRIPOS>BOND
     1    1    2 1  
     2    2    3 1  
     3    2    7 1  
     4    3    4 1  
     5    4    5 1  
     6    5    6 1  
     7    6    7 1  
     8    7    8 1  
     9    8    9 am 
    10    9   10 2  
    11    9   11 1  
    12   11   12 ar 
    13   11   13 ar 
    14   12   16 ar 
    15   13   14 ar 
    16   14   15 ar 
    17   15   16 ar 
    18   16   17 1  
    19   17   18 1  
    20   18   19 1  
    21   18   20 2  
    22   19   22 1  
    23   20   21 1  
    24   21   22 2  
    25   22   23 1  
    26   23   24 2  
    27   23   25 am 
    28   25   26 1  
    29   26   27 ar 
    30   26   32 ar 
    31   27   28 1  
    32   27   29 ar 
    33   29   30 ar 
    34   30   31 ar 
    35   31   32 ar 
    36   32   33 1  
    37    2   34 1  
    38    3   35 1  
    39    3   36 1  
    40    4   37 1  
    41    4   38 1  
    42    5   39 1  
    43    5   40 1  
    44    6   41 1  
    45    6   42 1  
    46    7   43 1  
    47    8   44 1  
    48   12   45 1  
    49   13   46 1  
    50   14   47 1  
    51   15   48 1  
    52   17   49 1  
    53   21   50 1  
    54   25   51 1  
    55   29   52 1  
    56   30   53 1  
    57   31   54 1  
    58   33   55 1  
    59   33   56 1  
    60   33   57 1  
@<TRIPOS>SUBSTRUCTURE
     1 8ZZ         1

