### 
### Created by X-TOOL on Mon Sep 10 21:13:31 2018
### 

@<TRIPOS>MOLECULE
5nk8_ligand
   68    71     1     0     0
SMALL
GAST_HUCK


@<TRIPOS>ATOM
      1 CAS       115.7400   12.5190   43.2040 C.3       1 90Z         0.0213
      2 CAT       114.7080   11.9680   42.2840 C.3       1 90Z         0.1742
      3 CAU       114.4000   13.0390   41.2820 C.3       1 90Z        -0.0135
      4 CAV       113.4310   11.7480   43.1010 C.3       1 90Z        -0.0135
      5 NAW       115.1220   10.8560   41.4310 N.2       1 90Z         0.0391
      6 OAX       114.2950    9.9060   41.3570 O.2       1 90Z         0.2064
      7 CAY       116.5600   10.4900   41.3690 C.3       1 90Z         0.1742
      8 CAZ       117.0360   11.1010   40.0860 C.3       1 90Z        -0.0135
      9 CBA       116.8200    8.9870   41.3060 C.3       1 90Z        -0.0135
     10 CBB       117.3950   11.0510   42.4460 C.3       1 90Z         0.0213
     11 CAR       117.1270   12.4490   42.6780 C.3       1 90Z         0.0506
     12 NAQ       118.1110   12.9880   43.6260 N.am      1 90Z        -0.2829
     13 CAP       118.9720   13.9800   43.3420 C.2       1 90Z         0.2026
     14 OBC       119.0310   14.4460   42.2360 O.2       1 90Z        -0.3847
     15 CAO       119.9040   14.3160   44.3520 C.ar      1 90Z         0.0407
     16 CBD       121.2620   14.4630   44.1110 C.ar      1 90Z        -0.0177
     17 CAN       119.5090   14.4750   45.6400 C.ar      1 90Z        -0.0533
     18 CAM       120.4100   14.7320   46.6460 C.ar      1 90Z        -0.0655
     19 CAL       121.7490   14.8540   46.3650 C.ar      1 90Z        -0.0331
     20 CAK       122.2020   14.7330   45.0900 C.ar      1 90Z         0.0748
     21 NAJ       123.4930   14.8270   44.7760 N.pl3     1 90Z        -0.2325
     22 CAI       124.4900   15.2960   45.5170 C.2       1 90Z         0.2071
     23 SBE       124.4720   15.9330   47.0910 S.3       1 90Z         0.0335
     24 NAH       125.7490   15.3640   45.1100 N.2       1 90Z        -0.3005
     25 CAG       126.6000   15.8710   46.0020 C.2       1 90Z        -0.0119
     26 CAF       126.0600   16.2710   47.1560 C.2       1 90Z         0.1116
     27 CAE       126.6830   16.7970   48.2360 C.2       1 90Z         0.2254
     28 OBF       126.0110   16.9280   49.2110 O.2       1 90Z        -0.3863
     29 NAD       128.0020   17.0910   48.2090 N.am      1 90Z        -0.2385
     30 CAC       128.6070   17.5920   49.2820 C.ar      1 90Z         0.0817
     31 CAB       128.9200   16.7380   50.3140 C.ar      1 90Z         0.0531
     32 CLA       128.6190   15.1570   50.2200 Cl        1 90Z        -0.0853
     33 CBK       129.5510   17.1960   51.4610 C.ar      1 90Z        -0.0686
     34 CBJ       129.8560   18.5340   51.5840 C.ar      1 90Z        -0.0834
     35 CBI       129.5310   19.3740   50.5320 C.ar      1 90Z        -0.0735
     36 CBG       128.9010   18.9570   49.3790 C.ar      1 90Z        -0.0235
     37 CBH       128.5970   19.8990   48.3790 C.3       1 90Z        -0.0351
     38 H1        115.6998   11.9524   44.1460 H         1 90Z         0.0336
     39 H2        115.4988   13.5741   43.4001 H         1 90Z         0.0336
     40 H3        113.6378   12.6740   40.5778 H         1 90Z         0.0278
     41 H4        115.3152   13.2985   40.7296 H         1 90Z         0.0278
     42 H5        114.0209   13.9305   41.8030 H         1 90Z         0.0278
     43 H6        113.6078   10.9662   43.8543 H         1 90Z         0.0278
     44 H7        112.6167   11.4343   42.4313 H         1 90Z         0.0278
     45 H8        113.1515   12.6854   43.6041 H         1 90Z         0.0278
     46 H9        118.1052   10.8812   39.9497 H         1 90Z         0.0278
     47 H10       116.8873   12.1903   40.1212 H         1 90Z         0.0278
     48 H11       116.4651   10.6799   39.2453 H         1 90Z         0.0278
     49 H12       117.9038    8.8039   41.2626 H         1 90Z         0.0278
     50 H13       116.3414    8.5694   40.4079 H         1 90Z         0.0278
     51 H14       116.4023    8.5047   42.2020 H         1 90Z         0.0278
     52 H15       118.4533   10.9355   42.1691 H         1 90Z         0.0336
     53 H16       117.1958   10.4945   43.3737 H         1 90Z         0.0336
     54 H17       117.1941   13.0109   41.7347 H         1 90Z         0.0559
     55 H18       118.1423   12.5906   44.5431 H         1 90Z         0.1848
     56 H19       121.6095   14.3597   43.0894 H         1 90Z         0.0590
     57 H20       118.4553   14.3974   45.8823 H         1 90Z         0.0573
     58 H21       120.0617   14.8390   47.6669 H         1 90Z         0.0600
     59 H22       122.4507   15.0486   47.1680 H         1 90Z         0.0574
     60 H23       123.7514   14.4926   43.8367 H         1 90Z         0.2235
     61 H24       127.6674   15.9537   45.8024 H         1 90Z         0.0649
     62 H25       128.5281   16.9302   47.3739 H         1 90Z         0.2226
     63 H26       129.8030   16.5046   52.2569 H         1 90Z         0.0526
     64 H27       130.3358   18.9176   52.4772 H         1 90Z         0.0471
     65 H28       129.7877   20.4234   50.6207 H         1 90Z         0.0515
     66 H29       128.1000   19.3934   47.5379 H         1 90Z         0.0362
     67 H30       129.5255   20.3715   48.0258 H         1 90Z         0.0362
     68 H31       127.9278   20.6685   48.7913 H         1 90Z         0.0362
@<TRIPOS>BOND
     1    1    2 1  
     2    1   11 1  
     3    2    3 1  
     4    2    4 1  
     5    2    5 1  
     6    5    6 2  
     7    5    7 1  
     8    7    8 1  
     9    7    9 1  
    10    7   10 1  
    11   10   11 1  
    12   11   12 1  
    13   12   13 am 
    14   13   14 2  
    15   13   15 1  
    16   15   16 ar 
    17   15   17 ar 
    18   16   20 ar 
    19   17   18 ar 
    20   18   19 ar 
    21   19   20 ar 
    22   20   21 1  
    23   21   22 1  
    24   22   23 1  
    25   22   24 2  
    26   23   26 1  
    27   24   25 1  
    28   25   26 2  
    29   26   27 1  
    30   27   28 2  
    31   27   29 am 
    32   29   30 1  
    33   30   31 ar 
    34   30   36 ar 
    35   31   32 1  
    36   31   33 ar 
    37   33   34 ar 
    38   34   35 ar 
    39   35   36 ar 
    40   36   37 1  
    41    1   38 1  
    42    1   39 1  
    43    3   40 1  
    44    3   41 1  
    45    3   42 1  
    46    4   43 1  
    47    4   44 1  
    48    4   45 1  
    49    8   46 1  
    50    8   47 1  
    51    8   48 1  
    52    9   49 1  
    53    9   50 1  
    54    9   51 1  
    55   10   52 1  
    56   10   53 1  
    57   11   54 1  
    58   12   55 1  
    59   16   56 1  
    60   17   57 1  
    61   18   58 1  
    62   19   59 1  
    63   21   60 1  
    64   25   61 1  
    65   29   62 1  
    66   33   63 1  
    67   34   64 1  
    68   35   65 1  
    69   37   66 1  
    70   37   67 1  
    71   37   68 1  
@<TRIPOS>SUBSTRUCTURE
     1 90Z         1

