### 
### Created by X-TOOL on Mon Sep 10 21:13:31 2018
### 

@<TRIPOS>MOLECULE
5nk9_ligand
   61    64     1     0     0
SMALL
GAST_HUCK


@<TRIPOS>ATOM
      1 CAS       -80.1020  -10.7150    9.3500 C.3       1 912        -0.0273
      2 CAT       -78.8350  -11.4100    9.5010 C.3       1 912        -0.0222
      3 CAU       -78.7030  -11.7760   10.9330 C.3       1 912         0.0635
      4 CAW       -78.5360  -10.5290   11.7520 C.3       1 912        -0.0361
      5 OAV       -77.5450  -12.5570   10.9180 O.3       1 912        -0.3888
      6 CAX       -79.9390  -12.4740   11.5290 C.3       1 912        -0.0222
      7 CAY       -81.3070  -11.9400   10.9700 C.3       1 912        -0.0273
      8 CAR       -81.0220  -11.8380    9.5650 C.3       1 912         0.0417
      9 NAQ       -82.0750  -11.6830    8.6020 N.am      1 912        -0.2832
     10 CAP       -83.1590  -10.9880    8.4690 C.2       1 912         0.2026
     11 OAZ       -83.6850  -10.4210    9.3740 O.2       1 912        -0.3847
     12 CAO       -83.6660  -11.0480    7.1690 C.ar      1 912         0.0407
     13 CBA       -85.0150  -11.1050    6.8770 C.ar      1 912        -0.0177
     14 CAN       -82.7880  -11.0770    6.1150 C.ar      1 912        -0.0533
     15 CAM       -83.1850  -11.1410    4.8350 C.ar      1 912        -0.0655
     16 CAL       -84.5220  -11.1970    4.6090 C.ar      1 912        -0.0331
     17 CAK       -85.4570  -11.1770    5.5630 C.ar      1 912         0.0748
     18 NAJ       -86.6860  -11.2060    5.1320 N.pl3     1 912        -0.2325
     19 CAI       -87.6840  -11.7000    5.7910 C.2       1 912         0.2071
     20 SBB       -87.7000  -12.4630    7.2840 S.3       1 912         0.0335
     21 NAH       -88.8980  -11.6560    5.3500 N.2       1 912        -0.3005
     22 CAG       -89.8030  -12.1860    6.1650 C.2       1 912        -0.0119
     23 CAF       -89.3680  -12.7360    7.2960 C.2       1 912         0.1116
     24 CAE       -90.0120  -13.3680    8.3480 C.2       1 912         0.2254
     25 OBC       -89.4020  -13.5480    9.3390 O.2       1 912        -0.3863
     26 NAD       -91.2830  -13.7590    8.2330 N.am      1 912        -0.2385
     27 CAC       -91.9590  -14.3850    9.2390 C.ar      1 912         0.0817
     28 CAB       -92.4870  -13.6630   10.3030 C.ar      1 912         0.0531
     29 CLA       -92.2670  -11.9860   10.4390 Cl        1 912        -0.0853
     30 CBH       -93.1880  -14.2950   11.3100 C.ar      1 912        -0.0686
     31 CBG       -93.4070  -15.6570   11.2460 C.ar      1 912        -0.0834
     32 CBF       -92.9110  -16.3650   10.1720 C.ar      1 912        -0.0735
     33 CBD       -92.1940  -15.7560    9.1670 C.ar      1 912        -0.0235
     34 CBE       -91.6900  -16.5530    8.1290 C.3       1 912        -0.0351
     35 H1        -80.2139  -10.2794    8.3461 H         1 912         0.0288
     36 H2        -80.2311   -9.9281   10.1077 H         1 912         0.0288
     37 H3        -78.0060  -10.7515    9.2024 H         1 912         0.0293
     38 H4        -78.8258  -12.3165    8.8780 H         1 912         0.0293
     39 H5        -78.4380  -10.7983   12.8140 H         1 912         0.0257
     40 H6        -79.4150   -9.8815   11.6176 H         1 912         0.0257
     41 H7        -77.6326   -9.9935   11.4246 H         1 912         0.0257
     42 H8        -77.6944  -13.3329   10.3905 H         1 912         0.2101
     43 H9        -79.9288  -12.3243   12.6187 H         1 912         0.0293
     44 H10       -79.8703  -13.5489   11.3058 H         1 912         0.0293
     45 H11       -81.5621  -10.9604   11.4004 H         1 912         0.0288
     46 H12       -82.1248  -12.6498   11.1636 H         1 912         0.0288
     47 H13       -80.5034  -12.7713    9.3006 H         1 912         0.0555
     48 H14       -81.9308  -12.2792    7.8122 H         1 912         0.1848
     49 H15       -85.7380  -11.0934    7.6846 H         1 912         0.0590
     50 H16       -81.7252  -11.0468    6.3261 H         1 912         0.0573
     51 H17       -82.4711  -11.1477    4.0193 H         1 912         0.0600
     52 H18       -84.8555  -11.2627    3.5797 H         1 912         0.0574
     53 H19       -86.8767  -10.8078    4.2014 H         1 912         0.2235
     54 H20       -90.8632  -12.1710    5.9165 H         1 912         0.0649
     55 H21       -91.7606  -13.5855    7.3717 H         1 912         0.2226
     56 H22       -93.5660  -13.7232   12.1498 H         1 912         0.0526
     57 H23       -93.9609  -16.1622   12.0290 H         1 912         0.0471
     58 H24       -93.0909  -17.4326   10.1173 H         1 912         0.0515
     59 H25       -91.1458  -15.9205    7.4122 H         1 912         0.0362
     60 H26       -92.5226  -17.0560    7.6155 H         1 912         0.0362
     61 H27       -91.0062  -17.3076    8.5450 H         1 912         0.0362
@<TRIPOS>BOND
     1    1    2 1  
     2    1    8 1  
     3    2    3 1  
     4    3    4 1  
     5    3    5 1  
     6    3    6 1  
     7    6    7 1  
     8    7    8 1  
     9    8    9 1  
    10    9   10 am 
    11   10   11 2  
    12   10   12 1  
    13   12   13 ar 
    14   12   14 ar 
    15   13   17 ar 
    16   14   15 ar 
    17   15   16 ar 
    18   16   17 ar 
    19   17   18 1  
    20   18   19 1  
    21   19   20 1  
    22   19   21 2  
    23   20   23 1  
    24   21   22 1  
    25   22   23 2  
    26   23   24 1  
    27   24   25 2  
    28   24   26 am 
    29   26   27 1  
    30   27   28 ar 
    31   27   33 ar 
    32   28   29 1  
    33   28   30 ar 
    34   30   31 ar 
    35   31   32 ar 
    36   32   33 ar 
    37   33   34 1  
    38    1   35 1  
    39    1   36 1  
    40    2   37 1  
    41    2   38 1  
    42    4   39 1  
    43    4   40 1  
    44    4   41 1  
    45    5   42 1  
    46    6   43 1  
    47    6   44 1  
    48    7   45 1  
    49    7   46 1  
    50    8   47 1  
    51    9   48 1  
    52   13   49 1  
    53   14   50 1  
    54   15   51 1  
    55   16   52 1  
    56   18   53 1  
    57   22   54 1  
    58   26   55 1  
    59   30   56 1  
    60   31   57 1  
    61   32   58 1  
    62   34   59 1  
    63   34   60 1  
    64   34   61 1  
@<TRIPOS>SUBSTRUCTURE
     1 912         1

