### 
### Created by X-TOOL on Mon Sep 10 21:13:31 2018
### 

@<TRIPOS>MOLECULE
5nka_ligand
   59    62     1     0     0
SMALL
GAST_HUCK


@<TRIPOS>ATOM
      1 CAS        88.4050   17.0380    3.3770 C.3       1 91H        -0.0282
      2 CAT        87.5290   17.2970    2.1390 C.3       1 91H        -0.0365
      3 CAU        88.2590   18.1400    1.0600 C.3       1 91H         0.0119
      4 CAV        88.6600   17.3100   -0.1820 C.2       1 91H         0.0379
      5 OAX        89.8790   17.2020   -0.4480 O.co2     1 91H        -0.5687
      6 OAW        87.7220   16.8490   -0.8710 O.co2     1 91H        -0.5687
      7 CAY        89.4570   18.8950    1.6680 C.3       1 91H        -0.0365
      8 CAZ        90.4690   17.9830    2.3720 C.3       1 91H        -0.0282
      9 CAR        89.8070   16.7190    2.9120 C.3       1 91H         0.0418
     10 NAQ        90.6440   16.2260    4.0090 N.am      1 91H        -0.2832
     11 CAP        90.7500   14.9360    4.3390 C.2       1 91H         0.2026
     12 OBA        90.2000   14.0020    3.7500 O.2       1 91H        -0.3847
     13 CAO        91.6480   14.7250    5.3720 C.ar      1 91H         0.0407
     14 CBB        92.9980   14.7650    5.0480 C.ar      1 91H        -0.0177
     15 CAN        91.2470   14.5140    6.6760 C.ar      1 91H        -0.0533
     16 CAM        92.2000   14.3130    7.6600 C.ar      1 91H        -0.0655
     17 CAL        93.5550   14.3520    7.3220 C.ar      1 91H        -0.0331
     18 CAK        93.9540   14.6100    6.0050 C.ar      1 91H         0.0748
     19 NAJ        95.2470   14.6300    5.5310 N.pl3     1 91H        -0.2325
     20 CAI        96.2760   15.0700    6.2610 C.2       1 91H         0.2071
     21 SBC        96.1530   15.8500    7.8060 S.3       1 91H         0.0335
     22 NAH        97.5500   15.0240    5.8500 N.2       1 91H        -0.3005
     23 CAG        98.4430   15.5240    6.7630 C.2       1 91H        -0.0119
     24 CAF        97.8820   16.0540    7.9030 C.2       1 91H         0.1116
     25 CAE        98.4460   16.6080    9.0230 C.2       1 91H         0.2254
     26 OBD        97.7050   16.8210    9.9840 O.2       1 91H        -0.3863
     27 NAD        99.7830   16.8770    9.0890 N.am      1 91H        -0.2385
     28 CAC       100.3690   17.3610   10.2280 C.ar      1 91H         0.0817
     29 CAB       100.6870   18.7180   10.3140 C.ar      1 91H         0.0531
     30 CLA       100.2960   19.8250    9.0440 Cl        1 91H        -0.0853
     31 CBI       101.3640   19.2090   11.4430 C.ar      1 91H        -0.0686
     32 CBH       101.6770   18.3570   12.4970 C.ar      1 91H        -0.0834
     33 CBG       101.3610   16.9990   12.4030 C.ar      1 91H        -0.0735
     34 CBE       100.7340   16.4950   11.2740 C.ar      1 91H        -0.0235
     35 CBF       100.4440   15.1080   11.2280 C.3       1 91H        -0.0351
     36 H1         88.0006   16.1886    3.9470 H         1 91H         0.0288
     37 H2         88.4203   17.9338    4.0151 H         1 91H         0.0288
     38 H3         86.6232   17.8357    2.4542 H         1 91H         0.0286
     39 H4         87.2457   16.3296    1.6987 H         1 91H         0.0286
     40 H5         87.5440   18.9000    0.7121 H         1 91H         0.0466
     41 H6         89.0743   19.6200    2.4014 H         1 91H         0.0286
     42 H7         89.9762   19.4306    0.8596 H         1 91H         0.0286
     43 H8         90.9232   18.5333    3.2092 H         1 91H         0.0288
     44 H9         91.2514   17.6969    1.6537 H         1 91H         0.0288
     45 H10        89.7558   15.9570    2.1203 H         1 91H         0.0555
     46 H11        91.1655   16.8932    4.5408 H         1 91H         0.1848
     47 H12        93.2951   14.9220    4.0174 H         1 91H         0.0590
     48 H13        90.1927   14.5057    6.9279 H         1 91H         0.0573
     49 H14        91.8973   14.1269    8.6841 H         1 91H         0.0600
     50 H15        94.3043   14.1809    8.0864 H         1 91H         0.0574
     51 H16        95.4281   14.2921    4.5750 H         1 91H         0.2235
     52 H17        99.5192   15.5032    6.5979 H         1 91H         0.0649
     53 H18       100.3509   16.7158    8.2818 H         1 91H         0.2226
     54 H19       101.6433   20.2552   11.4928 H         1 91H         0.0526
     55 H20       102.1628   18.7439   13.3855 H         1 91H         0.0471
     56 H21       101.6087   16.3328   13.2214 H         1 91H         0.0515
     57 H22        99.9505   14.8680   10.2747 H         1 91H         0.0362
     58 H23        99.7773   14.8449   12.0624 H         1 91H         0.0362
     59 H24       101.3792   14.5349   11.3111 H         1 91H         0.0362
@<TRIPOS>BOND
     1    1    2 1  
     2    1    9 1  
     3    2    3 1  
     4    3    4 1  
     5    3    7 1  
     6    4    5 ar 
     7    4    6 ar 
     8    7    8 1  
     9    8    9 1  
    10    9   10 1  
    11   10   11 am 
    12   11   12 2  
    13   11   13 1  
    14   13   14 ar 
    15   13   15 ar 
    16   14   18 ar 
    17   15   16 ar 
    18   16   17 ar 
    19   17   18 ar 
    20   18   19 1  
    21   19   20 1  
    22   20   21 1  
    23   20   22 2  
    24   21   24 1  
    25   22   23 1  
    26   23   24 2  
    27   24   25 1  
    28   25   26 2  
    29   25   27 am 
    30   27   28 1  
    31   28   29 ar 
    32   28   34 ar 
    33   29   30 1  
    34   29   31 ar 
    35   31   32 ar 
    36   32   33 ar 
    37   33   34 ar 
    38   34   35 1  
    39    1   36 1  
    40    1   37 1  
    41    2   38 1  
    42    2   39 1  
    43    3   40 1  
    44    7   41 1  
    45    7   42 1  
    46    8   43 1  
    47    8   44 1  
    48    9   45 1  
    49   10   46 1  
    50   14   47 1  
    51   15   48 1  
    52   16   49 1  
    53   17   50 1  
    54   19   51 1  
    55   23   52 1  
    56   27   53 1  
    57   31   54 1  
    58   32   55 1  
    59   33   56 1  
    60   35   57 1  
    61   35   58 1  
    62   35   59 1  
@<TRIPOS>SUBSTRUCTURE
     1 91H         1

