### 
### Created by X-TOOL on Mon Sep 10 21:13:31 2018
### 

@<TRIPOS>MOLECULE
5nkb_ligand
   63    67     1     0     0
SMALL
GAST_HUCK


@<TRIPOS>ATOM
      1 CAL       -82.4110  -14.9390    3.1250 C.3       1 8ZT         0.0498
      2 CAM       -81.3620  -15.2430    2.0420 C.3       1 8ZT         0.0673
      3 OAN       -80.0650  -15.0920    2.6570 O.3       1 8ZT        -0.3759
      4 CAO       -79.9200  -16.2520    3.5230 C.3       1 8ZT         0.0673
      5 CAP       -80.8520  -16.0780    4.7320 C.3       1 8ZT         0.0498
      6 NAK       -82.2220  -15.7070    4.3300 N.pl3     1 8ZT        -0.3091
      7 CAJ       -83.2520  -15.8450    5.2300 C.ar      1 8ZT         0.0186
      8 CAI       -84.5900  -15.8400    4.8130 C.ar      1 8ZT        -0.0344
      9 CAQ       -82.9780  -15.9410    6.5810 C.ar      1 8ZT        -0.0394
     10 CAR       -83.9730  -16.0250    7.5480 C.ar      1 8ZT         0.0186
     11 NAS       -83.6980  -16.1330    8.8710 N.pl3     1 8ZT        -0.3091
     12 CAT       -82.5860  -16.9670    9.3000 C.3       1 8ZT         0.0498
     13 CAU       -82.1930  -16.7360   10.7190 C.3       1 8ZT         0.0673
     14 OAV       -83.3670  -16.6890   11.5500 O.3       1 8ZT        -0.3759
     15 CAW       -84.2020  -15.5440   11.2320 C.3       1 8ZT         0.0673
     16 CAX       -84.7150  -15.6510    9.8020 C.3       1 8ZT         0.0498
     17 CAY       -85.2900  -16.0350    7.1360 C.ar      1 8ZT        -0.0344
     18 CAH       -85.6140  -15.9600    5.7840 C.ar      1 8ZT         0.0460
     19 NAG       -86.8730  -15.9510    5.2490 N.pl3     1 8ZT        -0.2392
     20 CAF       -87.9550  -16.4670    5.8530 C.2       1 8ZT         0.2067
     21 SAZ       -88.0610  -17.2710    7.3730 S.3       1 8ZT         0.0336
     22 NAE       -89.2100  -16.3300    5.3730 N.2       1 8ZT        -0.3005
     23 CAD       -90.1570  -16.8870    6.1770 C.2       1 8ZT        -0.0119
     24 CAC       -89.7420  -17.4600    7.3440 C.2       1 8ZT         0.1116
     25 CAB       -90.4390  -18.0950    8.3590 C.2       1 8ZT         0.2254
     26 OAA       -89.8640  -18.2510    9.4410 O.2       1 8ZT        -0.3863
     27 NBA       -91.7280  -18.5030    8.1990 N.am      1 8ZT        -0.2385
     28 CBB       -92.4270  -19.1110    9.2530 C.ar      1 8ZT         0.0817
     29 CBC       -92.9570  -18.3600   10.2960 C.ar      1 8ZT         0.0531
     30 CLB       -92.7400  -16.6350   10.4100 Cl        1 8ZT        -0.0853
     31 CBE       -93.6650  -19.0270   11.3090 C.ar      1 8ZT        -0.0686
     32 CBF       -93.8440  -20.4130   11.2860 C.ar      1 8ZT        -0.0834
     33 CBG       -93.3510  -21.1800   10.2110 C.ar      1 8ZT        -0.0735
     34 CBH       -92.6340  -20.4910    9.2120 C.ar      1 8ZT        -0.0235
     35 CBI       -92.1230  -21.2200    8.1200 C.3       1 8ZT        -0.0351
     36 H1        -83.4081  -15.1650    2.7192 H         1 8ZT         0.0536
     37 H2        -82.3520  -13.8703    3.3787 H         1 8ZT         0.0536
     38 H3        -81.4677  -14.5372    1.2049 H         1 8ZT         0.0579
     39 H4        -81.4875  -16.2715    1.6725 H         1 8ZT         0.0579
     40 H5        -78.8779  -16.3307    3.8663 H         1 8ZT         0.0579
     41 H6        -80.1942  -17.1633    2.9714 H         1 8ZT         0.0579
     42 H7        -80.4469  -15.2876    5.3809 H         1 8ZT         0.0536
     43 H8        -80.8906  -17.0258    5.2890 H         1 8ZT         0.0536
     44 H9        -84.8377  -15.7456    3.7619 H         1 8ZT         0.0328
     45 H10       -81.9422  -15.9512    6.9005 H         1 8ZT         0.0320
     46 H11       -81.7193  -16.7519    8.6577 H         1 8ZT         0.0536
     47 H12       -82.8752  -18.0220    9.1845 H         1 8ZT         0.0536
     48 H13       -81.6522  -15.7813   10.7971 H         1 8ZT         0.0579
     49 H14       -81.5407  -17.5555   11.0550 H         1 8ZT         0.0579
     50 H15       -83.6113  -14.6222   11.3385 H         1 8ZT         0.0579
     51 H16       -85.0567  -15.5138   11.9237 H         1 8ZT         0.0579
     52 H17       -85.5658  -16.3480    9.7850 H         1 8ZT         0.0536
     53 H18       -85.0494  -14.6560    9.4732 H         1 8ZT         0.0536
     54 H19       -86.0815  -16.1020    7.8736 H         1 8ZT         0.0328
     55 H20       -86.9989  -15.5201    4.3220 H         1 8ZT         0.2230
     56 H21       -91.2097  -16.8757    5.8984 H         1 8ZT         0.0649
     57 H22       -92.1827  -18.3676    7.3187 H         1 8ZT         0.2226
     58 H23       -94.0827  -18.4532   12.1284 H         1 8ZT         0.0526
     59 H24       -94.3658  -20.9017   12.1009 H         1 8ZT         0.0471
     60 H25       -93.5156  -22.2500   10.1552 H         1 8ZT         0.0515
     61 H26       -91.5946  -20.5372    7.4384 H         1 8ZT         0.0362
     62 H27       -92.9514  -21.7054    7.5833 H         1 8ZT         0.0362
     63 H28       -91.4239  -21.9865    8.4857 H         1 8ZT         0.0362
@<TRIPOS>BOND
     1    1    2 1  
     2    1    6 1  
     3    2    3 1  
     4    3    4 1  
     5    4    5 1  
     6    5    6 1  
     7    6    7 1  
     8    7    8 ar 
     9    7    9 ar 
    10    8   18 ar 
    11    9   10 ar 
    12   10   11 1  
    13   10   17 ar 
    14   11   12 1  
    15   11   16 1  
    16   12   13 1  
    17   13   14 1  
    18   14   15 1  
    19   15   16 1  
    20   17   18 ar 
    21   18   19 1  
    22   19   20 1  
    23   20   21 1  
    24   20   22 2  
    25   21   24 1  
    26   22   23 1  
    27   23   24 2  
    28   24   25 1  
    29   25   26 2  
    30   25   27 am 
    31   27   28 1  
    32   28   29 ar 
    33   28   34 ar 
    34   29   30 1  
    35   29   31 ar 
    36   31   32 ar 
    37   32   33 ar 
    38   33   34 ar 
    39   34   35 1  
    40    1   36 1  
    41    1   37 1  
    42    2   38 1  
    43    2   39 1  
    44    4   40 1  
    45    4   41 1  
    46    5   42 1  
    47    5   43 1  
    48    8   44 1  
    49    9   45 1  
    50   12   46 1  
    51   12   47 1  
    52   13   48 1  
    53   13   49 1  
    54   15   50 1  
    55   15   51 1  
    56   16   52 1  
    57   16   53 1  
    58   17   54 1  
    59   19   55 1  
    60   23   56 1  
    61   27   57 1  
    62   31   58 1  
    63   32   59 1  
    64   33   60 1  
    65   35   61 1  
    66   35   62 1  
    67   35   63 1  
@<TRIPOS>SUBSTRUCTURE
     1 8ZT         1

