### 
### Created by X-TOOL on Mon Sep 10 21:13:31 2018
### 

@<TRIPOS>MOLECULE
5nkc_ligand
   53    56     1     0     0
SMALL
GAST_HUCK


@<TRIPOS>ATOM
      1 OAV       -82.4520  -15.2930    1.5140 O.co2     1 90T        -0.5687
      2 CAU       -81.3260  -14.8110    1.2670 C.2       1 90T         0.0399
      3 OAW       -80.8820  -14.4870    0.1380 O.co2     1 90T        -0.5687
      4 CAT       -80.4210  -14.6190    2.4710 C.3       1 90T         0.0339
      5 CAX       -81.2740  -14.1530    3.6330 C.3       1 90T         0.0477
      6 CAS       -79.5270  -13.4230    2.2810 C.3       1 90T        -0.0163
      7 CAR       -80.5550  -12.3090    2.2460 C.3       1 90T         0.0353
      8 NAQ       -81.5030  -12.7230    3.3270 N.am      1 90T        -0.2705
      9 CAP       -82.3370  -11.8290    3.8700 C.2       1 90T         0.2049
     10 OAY       -82.3080  -10.6640    3.4590 O.2       1 90T        -0.3845
     11 CAO       -83.2500  -12.1720    4.8930 C.ar      1 90T         0.0408
     12 CAZ       -84.6110  -12.3120    4.6050 C.ar      1 90T        -0.0176
     13 CAN       -82.8440  -12.3250    6.2190 C.ar      1 90T        -0.0533
     14 CAM       -83.7670  -12.6160    7.2150 C.ar      1 90T        -0.0655
     15 CAL       -85.1210  -12.7400    6.9090 C.ar      1 90T        -0.0331
     16 CAK       -85.5480  -12.6040    5.5940 C.ar      1 90T         0.0748
     17 NAJ       -86.8290  -12.6710    5.1620 N.pl3     1 90T        -0.2325
     18 CAI       -87.8590  -13.1720    5.8630 C.2       1 90T         0.2071
     19 SBA       -87.8890  -13.9550    7.3850 S.3       1 90T         0.0335
     20 NAH       -89.1200  -13.1090    5.3860 N.2       1 90T        -0.3005
     21 CAG       -90.0660  -13.6730    6.1960 C.2       1 90T        -0.0119
     22 CAF       -89.5900  -14.1910    7.3480 C.2       1 90T         0.1116
     23 CAE       -90.2440  -14.8260    8.3730 C.2       1 90T         0.2254
     24 OBB       -89.6080  -15.0700    9.3960 O.2       1 90T        -0.3863
     25 NAD       -91.5380  -15.2070    8.2230 N.am      1 90T        -0.2385
     26 CAC       -92.2140  -15.8520    9.2470 C.ar      1 90T         0.0817
     27 CAB       -92.7250  -15.1240   10.3220 C.ar      1 90T         0.0531
     28 CL1       -92.4860  -13.4100   10.4310 Cl        1 90T        -0.0853
     29 CBG       -93.4340  -15.7840   11.3310 C.ar      1 90T        -0.0686
     30 CBF       -93.6460  -17.1650   11.2590 C.ar      1 90T        -0.0834
     31 CBE       -93.1500  -17.8990   10.1790 C.ar      1 90T        -0.0735
     32 CBC       -92.4380  -17.2280    9.1770 C.ar      1 90T        -0.0235
     33 CBD       -91.9480  -17.9560    8.0880 C.3       1 90T        -0.0351
     34 H1        -79.8560  -15.5367    2.6914 H         1 90T         0.0486
     35 H2        -80.7406  -14.2723    4.5876 H         1 90T         0.0543
     36 H3        -82.2242  -14.7057    3.6723 H         1 90T         0.0543
     37 H4        -78.9627  -13.4839    1.3388 H         1 90T         0.0306
     38 H5        -78.8267  -13.3025    3.1207 H         1 90T         0.0306
     39 H6        -81.0592  -12.2615    1.2695 H         1 90T         0.0523
     40 H7        -80.0957  -11.3347    2.4693 H         1 90T         0.0523
     41 H8        -84.9472  -12.1897    3.5817 H         1 90T         0.0590
     42 H9        -81.7963  -12.2155    6.4747 H         1 90T         0.0573
     43 H10       -83.4320  -12.7476    8.2375 H         1 90T         0.0600
     44 H11       -85.8393  -12.9421    7.6953 H         1 90T         0.0574
     45 H12       -87.0301  -12.3083    4.2192 H         1 90T         0.2235
     46 H13       -91.1222  -13.7021    5.9321 H         1 90T         0.0649
     47 H14       -92.0104  -15.0198    7.3617 H         1 90T         0.2226
     48 H15       -93.8213  -15.2224   12.1734 H         1 90T         0.0526
     49 H16       -94.1978  -17.6678   12.0450 H         1 90T         0.0471
     50 H17       -93.3133  -18.9689   10.1176 H         1 90T         0.0515
     51 H18       -91.4183  -17.2782    7.4024 H         1 90T         0.0362
     52 H19       -92.7862  -18.4319    7.5581 H         1 90T         0.0362
     53 H20       -91.2541  -18.7303    8.4469 H         1 90T         0.0362
@<TRIPOS>BOND
     1    1    2 ar 
     2    2    3 ar 
     3    2    4 1  
     4    4    5 1  
     5    4    6 1  
     6    5    8 1  
     7    6    7 1  
     8    7    8 1  
     9    8    9 am 
    10    9   10 2  
    11    9   11 1  
    12   11   12 ar 
    13   11   13 ar 
    14   12   16 ar 
    15   13   14 ar 
    16   14   15 ar 
    17   15   16 ar 
    18   16   17 1  
    19   17   18 1  
    20   18   19 1  
    21   18   20 2  
    22   19   22 1  
    23   20   21 1  
    24   21   22 2  
    25   22   23 1  
    26   23   24 2  
    27   23   25 am 
    28   25   26 1  
    29   26   27 ar 
    30   26   32 ar 
    31   27   28 1  
    32   27   29 ar 
    33   29   30 ar 
    34   30   31 ar 
    35   31   32 ar 
    36   32   33 1  
    37    4   34 1  
    38    5   35 1  
    39    5   36 1  
    40    6   37 1  
    41    6   38 1  
    42    7   39 1  
    43    7   40 1  
    44   12   41 1  
    45   13   42 1  
    46   14   43 1  
    47   15   44 1  
    48   17   45 1  
    49   21   46 1  
    50   25   47 1  
    51   29   48 1  
    52   30   49 1  
    53   31   50 1  
    54   33   51 1  
    55   33   52 1  
    56   33   53 1  
@<TRIPOS>SUBSTRUCTURE
     1 90T         1

