### 
### Created by X-TOOL on Mon Sep 10 21:13:32 2018
### 

@<TRIPOS>MOLECULE
5nkd_ligand
   56    59     1     0     0
SMALL
GAST_HUCK


@<TRIPOS>ATOM
      1 OAW       -79.2830  -17.7780   -0.7400 O.co2     1 91K        -0.5690
      2 CAV       -78.4760  -17.7230    0.2220 C.2       1 91K         0.0351
      3 OAX       -77.4680  -18.4530    0.3750 O.co2     1 91K        -0.5690
      4 CAU       -78.7360  -16.6710    1.3190 C.3       1 91K         0.0049
      5 CAT       -80.2090  -16.2650    1.2990 C.3       1 91K        -0.0073
      6 CAY       -80.4490  -15.0370    2.1860 C.3       1 91K         0.0378
      7 CAS       -81.0710  -17.3620    1.9140 C.3       1 91K        -0.0264
      8 CAR       -81.1520  -16.9750    3.3670 C.3       1 91K         0.0338
      9 NAQ       -81.3800  -15.5290    3.2430 N.am      1 91K        -0.2721
     10 CAP       -82.2090  -14.6640    3.8480 C.2       1 91K         0.2048
     11 OAZ       -82.1430  -13.4660    3.5380 O.2       1 91K        -0.3845
     12 CAO       -83.1200  -15.0340    4.8600 C.ar      1 91K         0.0408
     13 CBA       -84.5000  -15.1170    4.5800 C.ar      1 91K        -0.0176
     14 CAN       -82.6930  -15.2260    6.1670 C.ar      1 91K        -0.0533
     15 CAM       -83.6390  -15.5200    7.1390 C.ar      1 91K        -0.0655
     16 CAL       -85.0090  -15.5980    6.8560 C.ar      1 91K        -0.0331
     17 CAK       -85.4610  -15.4180    5.5470 C.ar      1 91K         0.0748
     18 NAJ       -86.7530  -15.4620    5.1280 N.pl3     1 91K        -0.2325
     19 CAI       -87.7990  -15.9530    5.8350 C.2       1 91K         0.2071
     20 SBB       -87.8190  -16.7280    7.3340 S.3       1 91K         0.0335
     21 NAH       -89.0590  -15.8880    5.3570 N.2       1 91K        -0.3005
     22 CAG       -90.0040  -16.4430    6.1640 C.2       1 91K        -0.0119
     23 CAF       -89.5230  -16.9530    7.3210 C.2       1 91K         0.1116
     24 CAE       -90.1750  -17.6000    8.3340 C.2       1 91K         0.2254
     25 OBC       -89.5610  -17.8520    9.3660 O.2       1 91K        -0.3863
     26 NAD       -91.4690  -17.9940    8.1850 N.am      1 91K        -0.2385
     27 CAC       -92.1210  -18.6580    9.2060 C.ar      1 91K         0.0817
     28 CAB       -92.6250  -17.9460   10.2880 C.ar      1 91K         0.0531
     29 CL1       -92.3970  -16.2220   10.3630 Cl        1 91K        -0.0853
     30 CBH       -93.3130  -18.5990   11.3150 C.ar      1 91K        -0.0686
     31 CBG       -93.4940  -19.9810   11.2380 C.ar      1 91K        -0.0834
     32 CBF       -93.0060  -20.6970   10.1450 C.ar      1 91K        -0.0735
     33 CBD       -92.3170  -20.0400    9.1320 C.ar      1 91K        -0.0235
     34 CBE       -91.8400  -20.7830    8.0460 C.3       1 91K        -0.0351
     35 H1        -78.1096  -15.7860    1.1338 H         1 91K         0.0434
     36 H2        -78.4869  -17.0974    2.3019 H         1 91K         0.0434
     37 H3        -80.5194  -16.0613    0.2636 H         1 91K         0.0339
     38 H4        -80.9095  -14.2219    1.6085 H         1 91K         0.0526
     39 H5        -79.5058  -14.6849    2.6293 H         1 91K         0.0526
     40 H6        -80.5964  -18.3473    1.7958 H         1 91K         0.0289
     41 H7        -82.0709  -17.3793    1.4558 H         1 91K         0.0289
     42 H8        -80.2148  -17.1947    3.8993 H         1 91K         0.0522
     43 H9        -81.9887  -17.4765    3.8754 H         1 91K         0.0522
     44 H10       -84.8309  -14.9382    3.5633 H         1 91K         0.0590
     45 H11       -81.6426  -15.1479    6.4230 H         1 91K         0.0573
     46 H12       -83.3054  -15.6959    8.1553 H         1 91K         0.0600
     47 H13       -85.7171  -15.7978    7.6521 H         1 91K         0.0574
     48 H14       -86.9549  -15.0888    4.1894 H         1 91K         0.2235
     49 H15       -91.0601  -16.4740    5.9001 H         1 91K         0.0649
     50 H16       -91.9513  -17.8015    7.3304 H         1 91K         0.2226
     51 H17       -93.7004  -18.0401   12.1591 H         1 91K         0.0526
     52 H18       -94.0170  -20.5009   12.0325 H         1 91K         0.0471
     53 H19       -93.1643  -21.7677   10.0853 H         1 91K         0.0515
     54 H20       -91.3231  -20.1137    7.3426 H         1 91K         0.0362
     55 H21       -92.6841  -21.2698    7.5357 H         1 91K         0.0362
     56 H22       -91.1379  -21.5494    8.4061 H         1 91K         0.0362
@<TRIPOS>BOND
     1    1    2 ar 
     2    2    3 ar 
     3    2    4 1  
     4    4    5 1  
     5    5    6 1  
     6    5    7 1  
     7    6    9 1  
     8    7    8 1  
     9    8    9 1  
    10    9   10 am 
    11   10   11 2  
    12   10   12 1  
    13   12   13 ar 
    14   12   14 ar 
    15   13   17 ar 
    16   14   15 ar 
    17   15   16 ar 
    18   16   17 ar 
    19   17   18 1  
    20   18   19 1  
    21   19   20 1  
    22   19   21 2  
    23   20   23 1  
    24   21   22 1  
    25   22   23 2  
    26   23   24 1  
    27   24   25 2  
    28   24   26 am 
    29   26   27 1  
    30   27   28 ar 
    31   27   33 ar 
    32   28   29 1  
    33   28   30 ar 
    34   30   31 ar 
    35   31   32 ar 
    36   32   33 ar 
    37   33   34 1  
    38    4   35 1  
    39    4   36 1  
    40    5   37 1  
    41    6   38 1  
    42    6   39 1  
    43    7   40 1  
    44    7   41 1  
    45    8   42 1  
    46    8   43 1  
    47   13   44 1  
    48   14   45 1  
    49   15   46 1  
    50   16   47 1  
    51   18   48 1  
    52   22   49 1  
    53   26   50 1  
    54   30   51 1  
    55   31   52 1  
    56   32   53 1  
    57   34   54 1  
    58   34   55 1  
    59   34   56 1  
@<TRIPOS>SUBSTRUCTURE
     1 91K         1

