### 
### Created by X-TOOL on Mon Sep 10 21:13:31 2018
### 

@<TRIPOS>MOLECULE
5nkg_ligand
   63    66     1     0     0
SMALL
GAST_HUCK


@<TRIPOS>ATOM
      1 CAU       -80.3100  -13.1690    1.7210 C.3       1 8ZK         0.0106
      2 CAV       -78.9960  -13.1880    2.5010 C.3       1 8ZK        -0.0315
      3 NAW       -78.8920  -11.9850    3.3390 N.4       1 8ZK         0.2271
      4 CAX       -79.9870  -12.0330    4.3230 C.3       1 8ZK        -0.0315
      5 CAY       -81.3500  -12.1120    3.6690 C.3       1 8ZK         0.0106
      6 CAT       -81.4510  -13.2630    2.7090 C.3       1 8ZK         0.0512
      7 NAS       -81.1620  -14.5270    3.3130 N.am      1 8ZK        -0.2829
      8 CAR       -81.7000  -15.2400    4.2820 C.2       1 8ZK         0.2011
      9 OAZ       -81.1790  -16.3230    4.5430 O.2       1 8ZK        -0.3847
     10 CAQ       -82.7870  -14.8610    5.0750 C.ar      1 8ZK         0.0342
     11 CBA       -84.1220  -14.8460    4.6580 C.ar      1 8ZK        -0.0245
     12 CAP       -82.4870  -14.6170    6.4070 C.ar      1 8ZK        -0.0519
     13 CAM       -83.4710  -14.3120    7.3260 C.ar      1 8ZK        -0.0472
     14 CAN       -83.1200  -14.0450    8.6540 C.3       1 8ZK        -0.0236
     15 CAO       -84.0010  -14.7130    9.7010 C.3       1 8ZK        -0.0555
     16 CAL       -84.7930  -14.3020    6.8960 C.ar      1 8ZK        -0.0322
     17 CAK       -85.1270  -14.5820    5.5850 C.ar      1 8ZK         0.0680
     18 NAJ       -86.3850  -14.5660    5.1360 N.pl3     1 8ZK        -0.2340
     19 CAI       -87.4300  -15.0810    5.8070 C.2       1 8ZK         0.2070
     20 SBB       -87.3700  -15.9150    7.3280 S.3       1 8ZK         0.0335
     21 NAH       -88.6590  -15.0190    5.2820 N.2       1 8ZK        -0.3005
     22 CAG       -89.5800  -15.6000    6.0940 C.2       1 8ZK        -0.0119
     23 CAF       -89.1350  -16.1650    7.2610 C.2       1 8ZK         0.1116
     24 CAE       -89.8330  -16.8080    8.3040 C.2       1 8ZK         0.2254
     25 OBC       -89.2370  -16.9910    9.3730 O.2       1 8ZK        -0.3863
     26 NAD       -91.1340  -17.2030    8.1440 N.am      1 8ZK        -0.2385
     27 CAC       -91.8130  -17.8250    9.1960 C.ar      1 8ZK         0.0817
     28 CAB       -92.2580  -17.0650   10.2790 C.ar      1 8ZK         0.0531
     29 CL        -91.9830  -15.3340   10.3340 Cl        1 8ZK        -0.0853
     30 CBH       -92.9640  -17.6950   11.3120 C.ar      1 8ZK        -0.0686
     31 CBG       -93.2060  -19.0670   11.2820 C.ar      1 8ZK        -0.0834
     32 CBF       -92.7830  -19.8280   10.1960 C.ar      1 8ZK        -0.0735
     33 CBD       -92.0890  -19.2050    9.1450 C.ar      1 8ZK        -0.0235
     34 CBE       -91.6540  -19.9830    8.0670 C.3       1 8ZK        -0.0351
     35 H1        -80.3448  -14.0244    1.0304 H         1 8ZK         0.0339
     36 H2        -80.3895  -12.2326    1.1493 H         1 8ZK         0.0339
     37 H3        -78.1532  -13.2139    1.7946 H         1 8ZK         0.0814
     38 H4        -78.9653  -14.0818    3.1414 H         1 8ZK         0.0814
     39 H5        -78.9792  -11.1592    2.7676 H         1 8ZK         0.2013
     40 H6        -78.0031  -11.9726    3.8141 H         1 8ZK         0.2013
     41 H7        -79.9449  -11.1250    4.9424 H         1 8ZK         0.0814
     42 H8        -79.8498  -12.9186    4.9608 H         1 8ZK         0.0814
     43 H9        -81.5353  -11.1762    3.1213 H         1 8ZK         0.0339
     44 H10       -82.1125  -12.2356    4.4522 H         1 8ZK         0.0339
     45 H11       -82.4364  -13.2618    2.2202 H         1 8ZK         0.0559
     46 H12       -80.3660  -14.9739    2.9047 H         1 8ZK         0.1848
     47 H13       -84.3724  -15.0384    3.6210 H         1 8ZK         0.0534
     48 H14       -81.4548  -14.6670    6.7344 H         1 8ZK         0.0514
     49 H15       -83.1723  -12.9571    8.8083 H         1 8ZK         0.0422
     50 H16       -82.0865  -14.3881    8.8090 H         1 8ZK         0.0422
     51 H17       -83.6452  -14.4425   10.7061 H         1 8ZK         0.0252
     52 H18       -83.9542  -15.8050    9.5770 H         1 8ZK         0.0252
     53 H19       -85.0400  -14.3740    9.5763 H         1 8ZK         0.0252
     54 H20       -85.5792  -14.0693    7.6051 H         1 8ZK         0.0510
     55 H21       -86.5655  -14.1324    4.2193 H         1 8ZK         0.2234
     56 H22       -90.6357  -15.6164    5.8271 H         1 8ZK         0.0649
     57 H23       -91.5996  -17.0463    7.2730 H         1 8ZK         0.2226
     58 H24       -93.3273  -17.1067   12.1468 H         1 8ZK         0.0526
     59 H25       -93.7249  -19.5427   12.1063 H         1 8ZK         0.0471
     60 H26       -92.9872  -20.8920   10.1614 H         1 8ZK         0.0515
     61 H27       -91.1329  -19.3431    7.3397 H         1 8ZK         0.0362
     62 H28       -92.5209  -20.4570    7.5834 H         1 8ZK         0.0362
     63 H29       -90.9660  -20.7607    8.4301 H         1 8ZK         0.0362
@<TRIPOS>BOND
     1    1    2 1  
     2    1    6 1  
     3    2    3 1  
     4    3    4 1  
     5    4    5 1  
     6    5    6 1  
     7    6    7 1  
     8    7    8 am 
     9    8    9 2  
    10    8   10 1  
    11   10   11 ar 
    12   10   12 ar 
    13   11   17 ar 
    14   12   13 ar 
    15   13   14 1  
    16   13   16 ar 
    17   14   15 1  
    18   16   17 ar 
    19   17   18 1  
    20   18   19 1  
    21   19   20 1  
    22   19   21 2  
    23   20   23 1  
    24   21   22 1  
    25   22   23 2  
    26   23   24 1  
    27   24   25 2  
    28   24   26 am 
    29   26   27 1  
    30   27   28 ar 
    31   27   33 ar 
    32   28   29 1  
    33   28   30 ar 
    34   30   31 ar 
    35   31   32 ar 
    36   32   33 ar 
    37   33   34 1  
    38    1   35 1  
    39    1   36 1  
    40    2   37 1  
    41    2   38 1  
    42    3   39 1  
    43    3   40 1  
    44    4   41 1  
    45    4   42 1  
    46    5   43 1  
    47    5   44 1  
    48    6   45 1  
    49    7   46 1  
    50   11   47 1  
    51   12   48 1  
    52   14   49 1  
    53   14   50 1  
    54   15   51 1  
    55   15   52 1  
    56   15   53 1  
    57   16   54 1  
    58   18   55 1  
    59   22   56 1  
    60   26   57 1  
    61   30   58 1  
    62   31   59 1  
    63   32   60 1  
    64   34   61 1  
    65   34   62 1  
    66   34   63 1  
@<TRIPOS>SUBSTRUCTURE
     1 8ZK         1

