### 
### Created by X-TOOL on Mon Sep 10 21:13:31 2018
### 

@<TRIPOS>MOLECULE
5nkh_ligand
   69    73     1     0     0
SMALL
GAST_HUCK


@<TRIPOS>ATOM
      1 CAZ       117.0020   13.7570   42.1740 C.3       1 8ZQ         0.0106
      2 CBA       115.9450   12.9190   41.6050 C.3       1 8ZQ        -0.0315
      3 NBB       115.7580   11.6860   42.3750 N.4       1 8ZQ         0.2271
      4 CBC       116.9140   10.9170   42.1600 C.3       1 8ZQ        -0.0315
      5 CBD       117.9480   11.6570   42.9320 C.3       1 8ZQ         0.0106
      6 CAY       118.1940   12.9400   42.2970 C.3       1 8ZQ         0.0512
      7 NAX       118.9340   13.5190   43.3120 N.am      1 8ZQ        -0.2828
      8 CAW       119.4250   14.6820   43.2840 C.2       1 8ZQ         0.2023
      9 OBE       119.4560   15.3330   42.2700 O.2       1 8ZQ        -0.3846
     10 CAV       120.2420   14.9110   44.4030 C.ar      1 8ZQ         0.0394
     11 CBF       121.6060   14.6840   44.2900 C.ar      1 8ZQ        -0.0196
     12 CAU       119.7620   15.3220   45.6080 C.ar      1 8ZQ        -0.0487
     13 CAM       120.6120   15.5150   46.6780 C.ar      1 8ZQ        -0.0276
     14 CAN       120.1410   15.9940   47.9310 C.ar      1 8ZQ        -0.0003
     15 CAO       120.8580   17.0060   48.5900 C.ar      1 8ZQ        -0.0647
     16 CAP       120.4220   17.5070   49.8060 C.ar      1 8ZQ        -0.0739
     17 CAQ       119.2710   17.0510   50.3930 C.ar      1 8ZQ        -0.0730
     18 CAR       118.5760   16.1050   49.7600 C.ar      1 8ZQ        -0.0426
     19 CAS       118.9710   15.6010   48.5640 C.ar      1 8ZQ         0.0461
     20 NAT       118.2460   14.7050   47.9860 N.pl3     1 8ZQ        -0.3345
     21 CAL       121.9670   15.2530   46.5030 C.ar      1 8ZQ        -0.0294
     22 CAK       122.5120   14.8490   45.3050 C.ar      1 8ZQ         0.0727
     23 NAJ       123.8360   14.5980   45.0290 N.pl3     1 8ZQ        -0.2331
     24 CAI       124.8840   15.1000   45.7240 C.2       1 8ZQ         0.2070
     25 SBG       124.8490   15.8910   47.2790 S.3       1 8ZQ         0.0335
     26 NAH       126.1520   15.1080   45.3000 N.2       1 8ZQ        -0.3005
     27 CAG       127.0760   15.6510   46.1190 C.2       1 8ZQ        -0.0119
     28 CAF       126.6100   16.1590   47.2720 C.2       1 8ZQ         0.1116
     29 CAE       127.2070   16.7410   48.3140 C.2       1 8ZQ         0.2254
     30 OBH       126.5460   16.9560   49.2870 O.2       1 8ZQ        -0.3863
     31 NAD       128.5170   17.0490   48.2850 N.am      1 8ZQ        -0.2385
     32 CAC       129.1310   17.6430   49.3680 C.ar      1 8ZQ         0.0817
     33 CAB       129.5160   16.8450   50.4290 C.ar      1 8ZQ         0.0531
     34 CL        129.2690   15.1360   50.3990 Cl        1 8ZQ        -0.0853
     35 CBM       130.1370   17.3910   51.5230 C.ar      1 8ZQ        -0.0686
     36 CBL       130.4150   18.7290   51.5200 C.ar      1 8ZQ        -0.0834
     37 CBK       130.0110   19.5300   50.4720 C.ar      1 8ZQ        -0.0735
     38 CBI       129.3830   19.0130   49.3660 C.ar      1 8ZQ        -0.0235
     39 CBJ       129.0110   19.9080   48.2440 C.3       1 8ZQ        -0.0351
     40 H1        116.6961   14.1249   43.1645 H         1 8ZQ         0.0339
     41 H2        117.2005   14.6117   41.5106 H         1 8ZQ         0.0339
     42 H3        116.2155   12.6565   40.5716 H         1 8ZQ         0.0814
     43 H4        115.0021   13.4856   41.6046 H         1 8ZQ         0.0814
     44 H5        114.9423   11.1906   42.0505 H         1 8ZQ         0.2013
     45 H6        115.6551   11.8972   43.3552 H         1 8ZQ         0.2013
     46 H7        117.1704   10.8768   41.0911 H         1 8ZQ         0.0814
     47 H8        116.7875    9.8946   42.5455 H         1 8ZQ         0.0814
     48 H9        118.8796   11.0725   42.9526 H         1 8ZQ         0.0339
     49 H10       117.5934   11.8181   43.9607 H         1 8ZQ         0.0339
     50 H11       118.7227   12.8495   41.3367 H         1 8ZQ         0.0559
     51 H12       119.0930   12.9725   44.1343 H         1 8ZQ         0.1848
     52 H13       121.9825   14.3520   43.3292 H         1 8ZQ         0.0575
     53 H14       118.6996   15.4999   45.7290 H         1 8ZQ         0.0563
     54 H15       121.7632   17.3998   48.1420 H         1 8ZQ         0.0589
     55 H16       121.0033   18.2753   50.3030 H         1 8ZQ         0.0509
     56 H17       118.9350   17.4476   51.3443 H         1 8ZQ         0.0587
     57 H18       117.6676   15.7272   50.2151 H         1 8ZQ         0.0516
     58 H19       118.5360   14.3152   47.0778 H         1 8ZQ         0.1736
     59 H20       117.3769   14.3791   48.4325 H         1 8ZQ         0.1736
     60 H21       122.6278   15.3731   47.3538 H         1 8ZQ         0.0555
     61 H22       124.0465   13.9804   44.2320 H         1 8ZQ         0.2233
     62 H23       128.1338   15.6760   45.8616 H         1 8ZQ         0.0649
     63 H24       129.0531   16.8441   47.4661 H         1 8ZQ         0.2226
     64 H25       130.4022   16.7734   52.3735 H         1 8ZQ         0.0526
     65 H26       130.9588   19.1656   52.3499 H         1 8ZQ         0.0471
     66 H27       130.1945   20.5971   50.5232 H         1 8ZQ         0.0515
     67 H28       128.5214   19.3206   47.4533 H         1 8ZQ         0.0362
     68 H29       129.9161   20.3846   47.8395 H         1 8ZQ         0.0362
     69 H30       128.3195   20.6827   48.6067 H         1 8ZQ         0.0362
@<TRIPOS>BOND
     1    1    2 1  
     2    1    6 1  
     3    2    3 1  
     4    3    4 1  
     5    4    5 1  
     6    5    6 1  
     7    6    7 1  
     8    7    8 am 
     9    8    9 2  
    10    8   10 1  
    11   10   11 ar 
    12   10   12 ar 
    13   11   22 ar 
    14   12   13 ar 
    15   13   14 1  
    16   13   21 ar 
    17   14   15 ar 
    18   14   19 ar 
    19   15   16 ar 
    20   16   17 ar 
    21   17   18 ar 
    22   18   19 ar 
    23   19   20 1  
    24   21   22 ar 
    25   22   23 1  
    26   23   24 1  
    27   24   25 1  
    28   24   26 2  
    29   25   28 1  
    30   26   27 1  
    31   27   28 2  
    32   28   29 1  
    33   29   30 2  
    34   29   31 am 
    35   31   32 1  
    36   32   33 ar 
    37   32   38 ar 
    38   33   34 1  
    39   33   35 ar 
    40   35   36 ar 
    41   36   37 ar 
    42   37   38 ar 
    43   38   39 1  
    44    1   40 1  
    45    1   41 1  
    46    2   42 1  
    47    2   43 1  
    48    3   44 1  
    49    3   45 1  
    50    4   46 1  
    51    4   47 1  
    52    5   48 1  
    53    5   49 1  
    54    6   50 1  
    55    7   51 1  
    56   11   52 1  
    57   12   53 1  
    58   15   54 1  
    59   16   55 1  
    60   17   56 1  
    61   18   57 1  
    62   20   58 1  
    63   20   59 1  
    64   21   60 1  
    65   23   61 1  
    66   27   62 1  
    67   31   63 1  
    68   35   64 1  
    69   36   65 1  
    70   37   66 1  
    71   39   67 1  
    72   39   68 1  
    73   39   69 1  
@<TRIPOS>SUBSTRUCTURE
     1 8ZQ         1

