### 
### Created by X-TOOL on Mon Sep 10 21:13:31 2018
### 

@<TRIPOS>MOLECULE
5nki_ligand
   56    59     1     0     0
SMALL
GAST_HUCK


@<TRIPOS>ATOM
      1 CAO       -93.3620  -13.5980   43.1500 C.3       1 8ZW         0.0500
      2 CAP       -92.3680  -12.7770   42.3400 C.3       1 8ZW         0.0673
      3 OAQ       -92.5600  -13.0290   40.9360 O.3       1 8ZW        -0.3759
      4 CAR       -93.8170  -12.4440   40.5440 C.3       1 8ZW         0.0673
      5 CAS       -94.9750  -13.1850   41.2110 C.3       1 8ZW         0.0500
      6 NAN       -94.7430  -13.4200   42.6490 N.pl3     1 8ZW        -0.3066
      7 CAM       -95.7690  -13.4620   43.5220 C.ar      1 8ZW         0.0322
      8 CAL       -97.0910  -13.4690   43.0800 C.ar      1 8ZW        -0.0212
      9 CAT       -95.5000  -13.4890   44.8870 C.ar      1 8ZW        -0.0309
     10 CAU       -96.5520  -13.5220   45.7890 C.ar      1 8ZW         0.0678
     11 SAV       -96.2860  -13.5620   47.5090 S.o2      1 8ZW        -0.0110
     12 OAW       -94.7950  -13.4310   47.8140 O.2       1 8ZW        -0.1700
     13 OAY       -97.0750  -12.4180   48.1490 O.2       1 8ZW        -0.1700
     14 CAX       -96.8840  -15.1120   48.1460 C.3       1 8ZW         0.0591
     15 CAZ       -97.8610  -13.5250   45.3320 C.ar      1 8ZW        -0.0260
     16 CAK       -98.1590  -13.5210   43.9710 C.ar      1 8ZW         0.0590
     17 NAJ       -99.4260  -13.5140   43.4690 N.pl3     1 8ZW        -0.2362
     18 CAI      -100.5030  -14.0250   44.0950 C.2       1 8ZW         0.2069
     19 SBA      -100.6110  -14.7590   45.6150 S.3       1 8ZW         0.0335
     20 NAH      -101.7430  -14.0460   43.5540 N.2       1 8ZW        -0.3005
     21 CAG      -102.6890  -14.6030   44.3520 C.2       1 8ZW        -0.0119
     22 CAF      -102.2290  -15.0660   45.5290 C.2       1 8ZW         0.1116
     23 CAE      -102.9170  -15.6740   46.5240 C.2       1 8ZW         0.2254
     24 OBB      -102.3590  -15.8840   47.5980 O.2       1 8ZW        -0.3863
     25 NAD      -104.1870  -16.0630   46.2870 N.am      1 8ZW        -0.2385
     26 CAC      -104.8790  -16.6890   47.2820 C.ar      1 8ZW         0.0817
     27 CAB      -105.3930  -15.9590   48.3600 C.ar      1 8ZW         0.0531
     28 CLA      -105.1750  -14.2480   48.5200 Cl        1 8ZW        -0.0853
     29 CBG      -106.1100  -16.6260   49.3540 C.ar      1 8ZW        -0.0686
     30 CBF      -106.3180  -18.0000   49.2850 C.ar      1 8ZW        -0.0834
     31 CBE      -105.8070  -18.7190   48.2110 C.ar      1 8ZW        -0.0735
     32 CBC      -105.0870  -18.0690   47.2070 C.ar      1 8ZW        -0.0235
     33 CBD      -104.5950  -18.8170   46.1410 C.3       1 8ZW        -0.0351
     34 H1        -93.3185  -13.2775   44.2014 H         1 8ZW         0.0536
     35 H2        -93.0898  -14.6614   43.0793 H         1 8ZW         0.0536
     36 H3        -91.3435  -13.0582   42.6250 H         1 8ZW         0.0579
     37 H4        -92.5250  -11.7076   42.5442 H         1 8ZW         0.0579
     38 H5        -93.9240  -12.5113   39.4513 H         1 8ZW         0.0579
     39 H6        -93.8373  -11.3877   40.8501 H         1 8ZW         0.0579
     40 H7        -95.1063  -14.1563   40.7117 H         1 8ZW         0.0536
     41 H8        -95.8904  -12.5862   41.0948 H         1 8ZW         0.0536
     42 H9        -97.2923  -13.4330   42.0155 H         1 8ZW         0.0429
     43 H10       -94.4758  -13.4843   45.2422 H         1 8ZW         0.0443
     44 H11       -96.7211  -15.1489   49.2332 H         1 8ZW         0.0468
     45 H12       -96.3415  -15.9396   47.6657 H         1 8ZW         0.0468
     46 H13       -97.9591  -15.2057   47.9330 H         1 8ZW         0.0468
     47 H14       -98.6722  -13.5306   46.0510 H         1 8ZW         0.0450
     48 H15       -99.5702  -13.0866   42.5430 H         1 8ZW         0.2232
     49 H16      -103.7368  -14.6700   44.0630 H         1 8ZW         0.0649
     50 H17      -104.6133  -15.8954   45.3980 H         1 8ZW         0.2226
     51 H18      -106.5104  -16.0661   50.1914 H         1 8ZW         0.0526
     52 H19      -106.8754  -18.5068   50.0645 H         1 8ZW         0.0471
     53 H20      -105.9682  -19.7894   48.1526 H         1 8ZW         0.0515
     54 H21      -104.0567  -18.1554   45.4464 H         1 8ZW         0.0362
     55 H22      -105.4317  -19.2989   45.6141 H         1 8ZW         0.0362
     56 H23      -103.9077  -19.5877   46.5201 H         1 8ZW         0.0362
@<TRIPOS>BOND
     1    1    2 1  
     2    1    6 1  
     3    2    3 1  
     4    3    4 1  
     5    4    5 1  
     6    5    6 1  
     7    6    7 1  
     8    7    8 ar 
     9    7    9 ar 
    10    8   16 ar 
    11    9   10 ar 
    12   10   11 1  
    13   10   15 ar 
    14   11   12 2  
    15   11   13 2  
    16   11   14 1  
    17   15   16 ar 
    18   16   17 1  
    19   17   18 1  
    20   18   19 1  
    21   18   20 2  
    22   19   22 1  
    23   20   21 1  
    24   21   22 2  
    25   22   23 1  
    26   23   24 2  
    27   23   25 am 
    28   25   26 1  
    29   26   27 ar 
    30   26   32 ar 
    31   27   28 1  
    32   27   29 ar 
    33   29   30 ar 
    34   30   31 ar 
    35   31   32 ar 
    36   32   33 1  
    37    1   34 1  
    38    1   35 1  
    39    2   36 1  
    40    2   37 1  
    41    4   38 1  
    42    4   39 1  
    43    5   40 1  
    44    5   41 1  
    45    8   42 1  
    46    9   43 1  
    47   14   44 1  
    48   14   45 1  
    49   14   46 1  
    50   15   47 1  
    51   17   48 1  
    52   21   49 1  
    53   25   50 1  
    54   29   51 1  
    55   30   52 1  
    56   31   53 1  
    57   33   54 1  
    58   33   55 1  
    59   33   56 1  
@<TRIPOS>SUBSTRUCTURE
     1 8ZW         1

