### 
### Created by X-TOOL on Wed Jan  1 15:39:37 2020
### 

@<TRIPOS>MOLECULE
5nkn_ligand
   54    56     1     0     0
SMALL
GAST_HUCK


@<TRIPOS>ATOM
      1 O4         -9.2070   15.7180  -23.2580 O.2       1 LOC        -0.3972
      2 C12       -10.0710   16.4370  -23.7430 C.2       1 LOC         0.1753
      3 C13        -9.8620   17.1080  -25.0690 C.3       1 LOC         0.0258
      4 N1        -11.2460   16.6870  -23.1510 N.am      1 LOC        -0.2705
      5 C11       -11.6220   16.0920  -21.8710 C.3       1 LOC         0.0828
      6 C14       -12.2290   14.7090  -21.9620 C.2       1 LOC        -0.0038
      7 C15       -12.8770   14.4090  -23.1010 C.2       1 LOC        -0.0143
      8 C10       -12.5930   16.9960  -21.1060 C.3       1 LOC        -0.0094
      9 C9        -12.9570   16.4980  -19.7000 C.3       1 LOC        -0.0226
     10 C8        -11.8520   15.7260  -19.0000 C.ar      1 LOC        -0.0580
     11 C7        -11.2540   16.2470  -17.8430 C.ar      1 LOC        -0.0473
     12 C5        -10.2260   15.5780  -17.1620 C.ar      1 LOC         0.1074
     13 C3         -9.7470   14.2730  -17.6540 C.ar      1 LOC         0.1422
     14 C1        -10.3480   13.6750  -18.8550 C.ar      1 LOC         0.1169
     15 O1         -9.8830   12.4720  -19.2960 O.3       1 LOC        -0.3270
     16 C2         -8.7270   12.4570  -20.1350 C.3       1 LOC         0.0572
     17 O2         -8.7750   13.5950  -16.9800 O.3       1 LOC        -0.3339
     18 C4         -9.2020   12.6090  -16.0450 C.3       1 LOC         0.0526
     19 O3         -9.6130   16.0520  -16.0250 O.3       1 LOC        -0.3280
     20 C6         -9.8270   17.3510  -15.4730 C.3       1 LOC         0.0570
     21 C22       -11.4180   14.4160  -19.5600 C.ar      1 LOC        -0.0006
     22 C21       -12.0910   13.8590  -20.7810 C.2       1 LOC        -0.0155
     23 C20       -12.5940   12.6320  -20.5880 C.2       1 LOC        -0.0540
     24 C19       -13.3180   11.7530  -21.4810 C.2       1 LOC        -0.0134
     25 C17       -13.7360   11.9640  -22.7280 C.2       1 LOC         0.1536
     26 C16       -13.5690   13.1770  -23.4940 C.2       1 LOC         0.1391
     27 O5        -14.0790   13.1960  -24.6040 O.2       1 LOC        -0.4348
     28 O6        -14.4550   10.9010  -23.4210 O.3       1 LOC        -0.3002
     29 C18       -14.3750    9.5080  -23.0980 C.3       1 LOC         0.0662
     30 H1        -10.7511   17.7041  -25.3224 H         1 LOC         0.0467
     31 H2         -9.6989   16.3450  -25.8444 H         1 LOC         0.0467
     32 H3         -8.9829   17.7668  -25.0121 H         1 LOC         0.0467
     33 H4        -11.8903   17.3044  -23.6023 H         1 LOC         0.1885
     34 H5        -10.6991   16.0051  -21.2789 H         1 LOC         0.0753
     35 H6        -12.8901   15.2028  -23.8465 H         1 LOC         0.0486
     36 H7        -13.5204   17.0770  -21.6920 H         1 LOC         0.0335
     37 H8        -12.1323   17.9902  -21.0092 H         1 LOC         0.0335
     38 H9        -13.8348   15.8406  -19.7848 H         1 LOC         0.0413
     39 H10       -13.2112   17.3712  -19.0812 H         1 LOC         0.0413
     40 H11       -11.5987   17.2012  -17.4612 H         1 LOC         0.0376
     41 H12        -8.4816   11.4186  -20.4026 H         1 LOC         0.0575
     42 H13        -7.8788   12.9076  -19.5988 H         1 LOC         0.0575
     43 H14        -8.9303   13.0331  -21.0497 H         1 LOC         0.0575
     44 H15        -8.3227   12.1429  -15.5765 H         1 LOC         0.0565
     45 H16        -9.7906   11.8398  -16.5664 H         1 LOC         0.0565
     46 H17        -9.8224   13.0828  -15.2700 H         1 LOC         0.0565
     47 H18        -9.2146   17.4698  -14.5670 H         1 LOC         0.0574
     48 H19       -10.8898   17.4694  -15.2153 H         1 LOC         0.0574
     49 H20        -9.5414   18.1148  -16.2113 H         1 LOC         0.0574
     50 H21       -12.4302   12.2279  -19.5901 H         1 LOC         0.0649
     51 H22       -13.5568   10.7722  -21.0723 H         1 LOC         0.0579
     52 H23       -15.0196    8.9356  -23.7812 H         1 LOC         0.0593
     53 H24       -14.7093    9.3521  -22.0617 H         1 LOC         0.0593
     54 H25       -13.3347    9.1664  -23.2030 H         1 LOC         0.0593
@<TRIPOS>BOND
     1    1    2 2  
     2    2    3 1  
     3    2    4 am 
     4    4    5 1  
     5    5    6 1  
     6    5    8 1  
     7    6    7 2  
     8    6   22 1  
     9    7   26 1  
    10    8    9 1  
    11    9   10 1  
    12   10   11 ar 
    13   10   21 ar 
    14   11   12 ar 
    15   12   13 ar 
    16   12   19 1  
    17   13   14 ar 
    18   13   17 1  
    19   14   15 1  
    20   14   21 ar 
    21   15   16 1  
    22   17   18 1  
    23   19   20 1  
    24   21   22 1  
    25   22   23 2  
    26   23   24 1  
    27   24   25 2  
    28   25   26 1  
    29   25   28 1  
    30   26   27 2  
    31   28   29 1  
    32    3   30 1  
    33    3   31 1  
    34    3   32 1  
    35    4   33 1  
    36    5   34 1  
    37    7   35 1  
    38    8   36 1  
    39    8   37 1  
    40    9   38 1  
    41    9   39 1  
    42   11   40 1  
    43   16   41 1  
    44   16   42 1  
    45   16   43 1  
    46   18   44 1  
    47   18   45 1  
    48   18   46 1  
    49   20   47 1  
    50   20   48 1  
    51   20   49 1  
    52   23   50 1  
    53   24   51 1  
    54   29   52 1  
    55   29   53 1  
    56   29   54 1  
@<TRIPOS>SUBSTRUCTURE
     1 LOC         1

