### 
### Created by X-TOOL on Wed Jan  1 15:39:36 2020
### 

@<TRIPOS>MOLECULE
5nlk_ligand
   56    58     1     0     0
SMALL
GAST_HUCK


@<TRIPOS>ATOM
      1 CAA        13.5950   16.9720    8.7760 C.3       1 92E        -0.0374
      2 CAB        14.6700    8.6080   13.4050 C.3       1 92E         0.0316
      3 CAC         6.4080   12.0500    9.3140 C.3       1 92E         0.0088
      4 CAH        17.8690    8.0400    3.4450 C.2       1 92E        -0.0557
      5 CAI        17.1120    8.4370    2.4160 C.2       1 92E         0.0866
      6 CAJ        17.2530    8.3530    4.5930 C.2       1 92E        -0.0431
      7 CAK         8.2250   15.3520    8.9220 C.ar      1 92E        -0.0667
      8 CAL         9.5490   15.7880    8.8550 C.ar      1 92E        -0.0389
      9 CAM        14.9780    9.2810    8.7550 C.ar      1 92E        -0.0184
     10 CAN        13.3390   10.7530    9.7240 C.ar      1 92E        -0.0362
     11 CAO        13.8900   10.9020    7.3810 C.ar      1 92E        -0.0363
     12 CAP         9.0020   13.0970    9.2330 C.ar      1 92E        -0.0305
     13 CAQ        12.0920   16.6860    8.7990 C.3       1 92E         0.0659
     14 CAW        14.2810    9.5570   12.2630 C.2       1 92E         0.2002
     15 CAX         6.6240   13.5630    9.1580 C.2       1 92E         0.1183
     16 CAY        12.2250   12.4140    8.2990 C.2       1 92E         0.2229
     17 CAZ        15.1940    9.4160    5.1830 C.2       1 92E         0.2555
     18 CBA        14.2650    9.7110    9.8720 C.ar      1 92E         0.0575
     19 CBB        14.7990    9.8470    7.5000 C.ar      1 92E         0.0568
     20 CBC         7.9480   14.0010    9.1100 C.ar      1 92E         0.0073
     21 CBD        13.1510   11.3670    8.4820 C.ar      1 92E         0.0294
     22 CBE        10.3330   13.5170    9.1680 C.ar      1 92E         0.1026
     23 CBF        10.6020   14.8840    8.9830 C.ar      1 92E         0.1189
     24 CBG        16.0990    8.9470    4.3030 C.2       1 92E         0.1903
     25 NAR        14.5250    9.0520   11.0260 N.am      1 92E        -0.2368
     26 NAS        15.5660    9.3710    6.4890 N.am      1 92E        -0.2359
     27 NAT        11.3310   12.6100    9.2940 N.am      1 92E        -0.2352
     28 OAD        13.7990   10.6600   12.5270 O.2       1 92E        -0.3853
     29 OAE         5.6770   14.3360    9.0290 O.2       1 92E        -0.3843
     30 OAF        12.2260   13.0680    7.2590 O.2       1 92E        -0.3746
     31 OAG        14.1190    9.8440    4.7640 O.2       1 92E        -0.3785
     32 OAU        11.9090   15.2720    8.9270 O.3       1 92E        -0.3204
     33 OAV        15.9550    9.0290    2.9530 O.3       1 92E        -0.2500
     34 H1         13.7607   18.0550    8.6780 H         1 92E         0.0255
     35 H2         14.0542   16.4521    7.9223 H         1 92E         0.0255
     36 H3         14.0506   16.6145    9.7112 H         1 92E         0.0255
     37 H4         14.4440    9.0842   14.3705 H         1 92E         0.0472
     38 H5         15.7461    8.3874   13.3480 H         1 92E         0.0472
     39 H6         14.0986    7.6724   13.3150 H         1 92E         0.0472
     40 H7          5.3297   11.8342    9.3386 H         1 92E         0.0447
     41 H8          6.8718   11.7081   10.2510 H         1 92E         0.0447
     42 H9          6.8678   11.5244    8.4641 H         1 92E         0.0447
     43 H10        18.8336    7.5412    3.3627 H         1 92E         0.0364
     44 H11        17.3479    8.3229    1.3590 H         1 92E         0.1039
     45 H12        17.6330    8.1546    5.5941 H         1 92E         0.0434
     46 H13         7.4135   16.0645    8.8278 H         1 92E         0.0520
     47 H14         9.7605   16.8401    8.7019 H         1 92E         0.0512
     48 H15        15.6966    8.4776    8.8696 H         1 92E         0.0411
     49 H16        12.7635   11.0857   10.5802 H         1 92E         0.0432
     50 H17        13.7516   11.3735    6.4148 H         1 92E         0.0432
     51 H18         8.7843   12.0456    9.3823 H         1 92E         0.0517
     52 H19        11.6313   17.0382    7.8643 H         1 92E         0.0608
     53 H20        11.6278   17.2006    9.6532 H         1 92E         0.0608
     54 H21        14.9215    8.1361   10.9636 H         1 92E         0.2252
     55 H22        16.4515    8.9657    6.7160 H         1 92E         0.2242
     56 H23        11.4078   12.0768   10.1365 H         1 92E         0.2219
@<TRIPOS>BOND
     1   13    1 1  
     2   14    2 1  
     3   15    3 1  
     4    4    5 2  
     5    6    4 1  
     6    5   33 1  
     7   24    6 2  
     8    8    7 ar 
     9    7   20 ar 
    10   23    8 ar 
    11   18    9 ar 
    12   19    9 ar 
    13   10   18 ar 
    14   21   10 ar 
    15   11   19 ar 
    16   21   11 ar 
    17   12   20 ar 
    18   22   12 ar 
    19   32   13 1  
    20   25   14 am 
    21   14   28 2  
    22   20   15 1  
    23   15   29 2  
    24   16   21 1  
    25   27   16 am 
    26   16   30 2  
    27   17   24 1  
    28   26   17 am 
    29   17   31 2  
    30   18   25 1  
    31   19   26 1  
    32   23   22 ar 
    33   22   27 1  
    34   23   32 1  
    35   24   33 1  
    36    1   34 1  
    37    1   35 1  
    38    1   36 1  
    39    2   37 1  
    40    2   38 1  
    41    2   39 1  
    42    3   40 1  
    43    3   41 1  
    44    3   42 1  
    45    4   43 1  
    46    5   44 1  
    47    6   45 1  
    48    7   46 1  
    49    8   47 1  
    50    9   48 1  
    51   10   49 1  
    52   11   50 1  
    53   12   51 1  
    54   13   52 1  
    55   13   53 1  
    56   25   54 1  
    57   26   55 1  
    58   27   56 1  
@<TRIPOS>SUBSTRUCTURE
     1 92E         1

