### 
### Created by X-TOOL on Wed Jan  1 15:39:35 2020
### 

@<TRIPOS>MOLECULE
5nn0_ligand
   73    77     1     0     0
SMALL
GAST_HUCK


@<TRIPOS>ATOM
      1 CAA        -6.8220   39.1760   40.6410 C.3       1 92H        -0.0433
      2 CAC        -7.7740   37.9850   38.8020 C.3       1 92H        -0.0116
      3 CAD        -8.5740   36.7460   38.4240 C.3       1 92H         0.0733
      4 CAF        -9.0260   36.9100   35.9790 C.3       1 92H         0.0412
      5 CAG       -10.3020   36.1620   35.6000 C.3       1 92H         0.0197
      6 CAH       -10.5720   36.3540   34.0930 C.3       1 92H        -0.0387
      7 CAI       -11.5470   37.5180   33.8730 C.3       1 92H        -0.0120
      8 CAJ       -12.8880   37.0600   34.4780 C.3       1 92H        -0.0313
      9 CAL       -13.9800   36.5740   36.6070 C.3       1 92H        -0.0039
     10 CAM       -13.8010   36.9170   38.0980 C.3       1 92H         0.0234
     11 CAN       -15.1190   37.4210   38.3390 C.ar      1 92H        -0.0353
     12 CAO       -15.8590   37.4490   39.4520 C.ar      1 92H        -0.0667
     13 CAP       -17.1450   37.9900   39.4740 C.ar      1 92H        -0.0755
     14 CAQ       -17.6710   38.5100   38.3020 C.ar      1 92H        -0.0755
     15 CAR       -16.8710   38.4620   37.1690 C.ar      1 92H        -0.0667
     16 CAS       -15.6440   37.9300   37.2040 C.ar      1 92H        -0.0353
     17 CAT       -14.7200   37.8030   36.1810 C.3       1 92H         0.0234
     18 CAU       -11.4780   36.7210   36.4220 C.3       1 92H        -0.0266
     19 CAV        -7.8210   37.0250   41.0260 C.3       1 92H        -0.0433
     20 CAW        -7.2200   35.4280   36.8910 C.2       1 92H         0.2073
     21 CAX        -6.9750   34.9720   35.6010 C.ar      1 92H         0.0505
     22 CAZ        -7.3990   33.6770   35.3300 C.ar      1 92H        -0.0329
     23 CBA        -7.2090   33.1250   34.0730 C.ar      1 92H        -0.0116
     24 CBB        -6.5860   33.8710   33.0780 C.ar      1 92H        -0.0152
     25 CBC        -6.1470   35.1670   33.3440 C.ar      1 92H        -0.0509
     26 CBD        -6.3340   35.7190   34.6110 C.ar      1 92H        -0.0432
     27 CBE        -7.6420   31.8300   33.8250 C.ar      1 92H        -0.0517
     28 CBF        -7.4520   31.2690   32.5660 C.ar      1 92H        -0.0596
     29 CBG        -6.8280   32.0130   31.5700 C.ar      1 92H        -0.0598
     30 CBH        -6.3940   33.3120   31.8220 C.ar      1 92H        -0.0524
     31 NAB        -7.9080   38.2690   40.2410 N.4       1 92H         0.2323
     32 NAE        -8.2380   36.2910   37.0720 N.am      1 92H        -0.2669
     33 NAK       -12.7520   36.3600   35.7840 N.4       1 92H         0.2403
     34 OAY        -6.5920   34.9520   37.8290 O.2       1 92H        -0.3847
     35 H1         -6.9072   39.3988   41.7148 H         1 92H         0.0777
     36 H2         -6.8943   40.1108   40.0657 H         1 92H         0.0777
     37 H3         -5.8520   38.6969   40.4418 H         1 92H         0.0777
     38 H4         -8.1471   38.8456   38.2274 H         1 92H         0.0834
     39 H5         -6.7133   37.8171   38.5639 H         1 92H         0.0834
     40 H6         -9.6469   36.9849   38.4660 H         1 92H         0.0575
     41 H7         -8.3492   35.9414   39.1396 H         1 92H         0.0575
     42 H8         -9.3067   37.9259   36.2938 H         1 92H         0.0526
     43 H9         -8.3856   36.9665   35.0864 H         1 92H         0.0526
     44 H10       -10.1804   35.0904   35.8167 H         1 92H         0.0372
     45 H11       -11.0085   35.4319   33.6818 H         1 92H         0.0272
     46 H12        -9.6242   36.5720   33.5790 H         1 92H         0.0272
     47 H13       -11.6617   37.7242   32.7986 H         1 92H         0.0317
     48 H14       -11.1853   38.4228   34.3834 H         1 92H         0.0317
     49 H15       -13.3730   36.3752   33.7668 H         1 92H         0.0814
     50 H16       -13.5227   37.9464   34.6245 H         1 92H         0.0814
     51 H17       -14.6064   35.6758   36.5032 H         1 92H         0.0895
     52 H18       -13.0257   37.6800   38.2611 H         1 92H         0.0468
     53 H19       -13.5755   36.0291   38.7069 H         1 92H         0.0468
     54 H20       -15.4468   37.0383   40.3666 H         1 92H         0.0537
     55 H21       -17.7223   38.0033   40.3914 H         1 92H         0.0541
     56 H22       -18.6669   38.9369   38.2715 H         1 92H         0.0541
     57 H23       -17.2484   38.8641   36.2358 H         1 92H         0.0537
     58 H24       -15.2131   37.6595   35.2083 H         1 92H         0.0468
     59 H25       -14.0538   38.6768   36.1291 H         1 92H         0.0468
     60 H26       -11.3958   37.8165   36.4776 H         1 92H         0.0818
     61 H27       -11.4463   36.2989   37.4373 H         1 92H         0.0818
     62 H28        -7.9232   37.2588   42.0960 H         1 92H         0.0777
     63 H29        -6.8473   36.5457   40.8468 H         1 92H         0.0777
     64 H30        -8.6276   36.3419   40.7213 H         1 92H         0.0777
     65 H31        -7.8815   33.0946   36.1066 H         1 92H         0.0695
     66 H32        -5.6607   35.7453   32.5667 H         1 92H         0.0627
     67 H33        -5.9837   36.7221   34.8258 H         1 92H         0.0652
     68 H34        -8.1260   31.2582   34.6085 H         1 92H         0.0636
     69 H35        -7.7881   30.2587   32.3626 H         1 92H         0.0622
     70 H36        -6.6782   31.5776   30.5886 H         1 92H         0.0630
     71 H37        -5.9080   33.8845   31.0402 H         1 92H         0.0626
     72 H38        -8.7982   38.7090   40.4140 H         1 92H         0.2028
     73 H39       -12.7047   35.3709   35.5954 H         1 92H         0.2039
@<TRIPOS>BOND
     1   31    1 1  
     2    3    2 1  
     3    2   31 1  
     4   32    3 1  
     5    4    5 1  
     6   32    4 1  
     7    5    6 1  
     8    5   18 1  
     9    6    7 1  
    10    7    8 1  
    11   33    8 1  
    12    9   10 1  
    13    9   17 1  
    14   33    9 1  
    15   10   11 1  
    16   11   12 ar 
    17   16   11 ar 
    18   12   13 ar 
    19   14   13 ar 
    20   15   14 ar 
    21   16   15 ar 
    22   17   16 1  
    23   18   33 1  
    24   31   19 1  
    25   20   21 1  
    26   20   32 am 
    27   20   34 2  
    28   21   22 ar 
    29   21   26 ar 
    30   22   23 ar 
    31   23   24 ar 
    32   23   27 ar 
    33   24   25 ar 
    34   24   30 ar 
    35   25   26 ar 
    36   27   28 ar 
    37   28   29 ar 
    38   29   30 ar 
    39    1   35 1  
    40    1   36 1  
    41    1   37 1  
    42    2   38 1  
    43    2   39 1  
    44    3   40 1  
    45    3   41 1  
    46    4   42 1  
    47    4   43 1  
    48    5   44 1  
    49    6   45 1  
    50    6   46 1  
    51    7   47 1  
    52    7   48 1  
    53    8   49 1  
    54    8   50 1  
    55    9   51 1  
    56   10   52 1  
    57   10   53 1  
    58   12   54 1  
    59   13   55 1  
    60   14   56 1  
    61   15   57 1  
    62   17   58 1  
    63   17   59 1  
    64   18   60 1  
    65   18   61 1  
    66   19   62 1  
    67   19   63 1  
    68   19   64 1  
    69   22   65 1  
    70   25   66 1  
    71   26   67 1  
    72   27   68 1  
    73   28   69 1  
    74   29   70 1  
    75   30   71 1  
    76   31   72 1  
    77   33   73 1  
@<TRIPOS>SUBSTRUCTURE
     1 92H         1

