### 
### Created by X-TOOL on Mon Sep 10 21:13:31 2018
### 

@<TRIPOS>MOLECULE
5nn4_ligand
   18    17     1     0     0
SMALL
GAST_HUCK


@<TRIPOS>ATOM
      1 C         -10.1440   -4.8150  102.0560 C.2       1 SC2         0.0609
      2 CB         -7.9010   -5.9270  102.3200 C.3       1 SC2         0.0256
      3 CT         -8.0230   -3.9550  104.9340 C.2       1 SC2         0.1746
      4 CA         -8.7630   -4.7160  102.6720 C.3       1 SC2         0.1030
      5 N          -8.8400   -4.6400  104.1260 N.am      1 SC2        -0.2708
      6 OXT       -11.0880   -4.2740  102.6680 O.co2     1 SC2        -0.5666
      7 O         -10.3430   -5.4340  100.9780 O.co2     1 SC2        -0.5666
      8 OT         -8.1750   -3.9780  106.1500 O.2       1 SC2        -0.3973
      9 CM         -6.9180   -3.1650  104.3280 C.3       1 SC2         0.0258
     10 SG         -8.6120   -7.4820  102.9220 S.3       1 SC2        -0.1742
     11 H1         -6.9065   -5.7956  102.7713 H         1 SC2         0.0415
     12 H2         -7.8025   -5.9842  101.2259 H         1 SC2         0.0415
     13 H3         -8.2776   -3.8064  102.2885 H         1 SC2         0.0734
     14 H4         -9.5789   -5.1522  104.5639 H         1 SC2         0.1875
     15 H5         -6.3449   -2.6661  105.1234 H         1 SC2         0.0467
     16 H6         -7.3378   -2.4083  103.6489 H         1 SC2         0.0467
     17 H7         -6.2540   -3.8362  103.7636 H         1 SC2         0.0467
     18 H8         -8.0085   -8.2475  102.6655 H         1 SC2         0.1018
@<TRIPOS>BOND
     1    4    1 1  
     2    1    6 ar 
     3    1    7 ar 
     4    4    2 1  
     5    2   10 1  
     6    5    3 am 
     7    3    8 2  
     8    3    9 1  
     9    4    5 1  
    10    2   11 1  
    11    2   12 1  
    12    4   13 1  
    13    5   14 1  
    14    9   15 1  
    15    9   16 1  
    16    9   17 1  
    17   10   18 1  
@<TRIPOS>SUBSTRUCTURE
     1 SC2         1

