### 
### Created by X-TOOL on Mon Sep 10 21:13:32 2018
### 

@<TRIPOS>MOLECULE
5nn5_ligand
   25    25     1     0     0
SMALL
GAST_HUCK


@<TRIPOS>ATOM
      1 C1        -13.5510  -32.6490   95.0210 C.3       1 NOJ        -0.0040
      2 C2        -12.4140  -31.7060   95.4280 C.3       1 NOJ         0.1231
      3 O2        -11.2110  -32.2340   94.8890 O.3       1 NOJ        -0.3838
      4 C3        -12.3340  -31.5830   96.9530 C.3       1 NOJ         0.1171
      5 O3        -11.2750  -30.6770   97.3000 O.3       1 NOJ        -0.3862
      6 C4        -13.6530  -31.0540   97.4960 C.3       1 NOJ         0.1280
      7 O4        -13.5830  -30.9780   98.9190 O.3       1 NOJ        -0.3835
      8 C5        -14.8190  -31.9400   97.0760 C.3       1 NOJ         0.0301
      9 N5        -14.7610  -32.1690   95.6430 N.4       1 NOJ         0.2346
     10 C6        -16.1790  -31.3590   97.4740 C.3       1 NOJ         0.0893
     11 O6        -16.3770  -30.0750   96.8790 O.3       1 NOJ        -0.3894
     12 H1        -13.3323  -33.6705   95.3654 H         1 NOJ         0.0840
     13 H2        -13.6658  -32.6475   93.9270 H         1 NOJ         0.0840
     14 H3        -12.5959  -30.7078   95.0031 H         1 NOJ         0.0674
     15 H4        -11.0635  -33.1045   95.2396 H         1 NOJ         0.2101
     16 H5        -12.1293  -32.5715   97.3899 H         1 NOJ         0.0649
     17 H6        -10.4516  -31.0103   96.9632 H         1 NOJ         0.2100
     18 H7        -13.8193  -30.0440   97.0933 H         1 NOJ         0.0678
     19 H8        -12.8783  -30.3922   99.1694 H         1 NOJ         0.2102
     20 H9        -14.7079  -32.9085   97.5856 H         1 NOJ         0.0900
     21 H10       -15.4805  -32.8420   95.4299 H         1 NOJ         0.2019
     22 H11       -14.9819  -31.2899   95.2021 H         1 NOJ         0.2019
     23 H12       -16.2221  -31.2595   98.5686 H         1 NOJ         0.0614
     24 H13       -16.9745  -32.0394   97.1360 H         1 NOJ         0.0614
     25 H14       -16.3437  -30.1570   95.9331 H         1 NOJ         0.2097
@<TRIPOS>BOND
     1    1    2 1  
     2    1    9 1  
     3    2    3 1  
     4    2    4 1  
     5    4    5 1  
     6    4    6 1  
     7    6    7 1  
     8    6    8 1  
     9    8    9 1  
    10    8   10 1  
    11   10   11 1  
    12    1   12 1  
    13    1   13 1  
    14    2   14 1  
    15    3   15 1  
    16    4   16 1  
    17    5   17 1  
    18    6   18 1  
    19    7   19 1  
    20    8   20 1  
    21    9   21 1  
    22    9   22 1  
    23   10   23 1  
    24   10   24 1  
    25   11   25 1  
@<TRIPOS>SUBSTRUCTURE
     1 NOJ         1

