### 
### Created by X-TOOL on Mon Sep 10 21:13:30 2018
### 

@<TRIPOS>MOLECULE
5nn6_ligand
   32    32     1     0     0
SMALL
GAST_HUCK


@<TRIPOS>ATOM
      1 OAA       -17.2770  -34.7580   94.0600 O.3       1 MIG        -0.3898
      2 OAB       -16.5440  -30.1440   96.3220 O.3       1 MIG        -0.3894
      3 OAC       -11.3190  -32.3980   94.3060 O.3       1 MIG        -0.3838
      4 OAD       -11.3330  -30.7800   96.7230 O.3       1 MIG        -0.3862
      5 OAE       -13.6130  -31.0370   98.3700 O.3       1 MIG        -0.3835
      6 CAF       -16.3070  -34.1640   94.9240 C.3       1 MIG         0.0841
      7 CAG       -16.2270  -31.3520   97.0260 C.3       1 MIG         0.0894
      8 CAH       -16.1050  -32.7150   94.4660 C.3       1 MIG        -0.0076
      9 CAI       -13.6850  -32.6960   94.5510 C.3       1 MIG        -0.0022
     10 CAJ       -12.4960  -31.8180   94.8750 C.3       1 MIG         0.1231
     11 CAK       -12.4010  -31.6600   96.3870 C.3       1 MIG         0.1171
     12 CAL       -13.7040  -31.1150   96.9550 C.3       1 MIG         0.1281
     13 CAM       -14.9160  -31.9560   96.5260 C.3       1 MIG         0.0319
     14 NAN       -14.9140  -32.0510   95.0540 N.4       1 MIG         0.2444
     15 H1        -16.9592  -34.7340   93.1650 H         1 MIG         0.2096
     16 H2        -16.6310  -30.3326   95.3950 H         1 MIG         0.2097
     17 H3        -11.1863  -33.2650   94.6711 H         1 MIG         0.2101
     18 H4        -10.5156  -31.1361   96.3949 H         1 MIG         0.2100
     19 H5        -12.8981  -30.4586   98.6088 H         1 MIG         0.2102
     20 H6        -15.3572  -34.7147   94.8566 H         1 MIG         0.0610
     21 H7        -16.6685  -34.1822   95.9627 H         1 MIG         0.0610
     22 H8        -17.0380  -32.0793   96.8736 H         1 MIG         0.0614
     23 H9        -16.1324  -31.1277   98.0987 H         1 MIG         0.0614
     24 H10       -16.9969  -32.1365   94.7483 H         1 MIG         0.0837
     25 H11       -15.9967  -32.7111   93.3714 H         1 MIG         0.0837
     26 H12       -13.5605  -33.6770   95.0327 H         1 MIG         0.0841
     27 H13       -13.7585  -32.8291   93.4616 H         1 MIG         0.0841
     28 H14       -12.6461  -30.8241   94.4283 H         1 MIG         0.0674
     29 H15       -12.2046  -32.6463   96.8326 H         1 MIG         0.0649
     30 H16       -13.8466  -30.0972   96.5630 H         1 MIG         0.0678
     31 H17       -14.8157  -32.9658   96.9506 H         1 MIG         0.0901
     32 H18       -14.9152  -31.1030   94.7114 H         1 MIG         0.2040
@<TRIPOS>BOND
     1    6    1 1  
     2    7    2 1  
     3   10    3 1  
     4   11    4 1  
     5   12    5 1  
     6    8    6 1  
     7   13    7 1  
     8   14    8 1  
     9   10    9 1  
    10    9   14 1  
    11   11   10 1  
    12   12   11 1  
    13   12   13 1  
    14   13   14 1  
    15    1   15 1  
    16    2   16 1  
    17    3   17 1  
    18    4   18 1  
    19    5   19 1  
    20    6   20 1  
    21    6   21 1  
    22    7   22 1  
    23    7   23 1  
    24    8   24 1  
    25    8   25 1  
    26    9   26 1  
    27    9   27 1  
    28   10   28 1  
    29   11   29 1  
    30   12   30 1  
    31   13   31 1  
    32   14   32 1  
@<TRIPOS>SUBSTRUCTURE
     1 MIG         1

