### 
### Created by X-TOOL on Mon Sep 10 21:13:33 2018
### 

@<TRIPOS>MOLECULE
5nob_ligand
   51    56     1     0     0
SMALL
GAST_HUCK


@<TRIPOS>ATOM
      1 C2         24.3720    8.5280  -26.3240 C.ar      1 92T         0.0880
      2 C4         24.8810    6.4120  -27.3480 C.ar      1 92T         0.1181
      3 OBD        30.1990   -0.8170  -26.8870 O.2       1 92T        -0.3930
      4 CAY        31.0130   -0.1580  -27.5210 C.2       1 92T         0.3140
      5 NAX        32.1820   -0.6020  -27.9250 N.am      1 92T        -0.2171
      6 CAW        32.7620    0.4080  -28.5590 C.ar      1 92T         0.1033
      7 CBC        33.9620    0.4620  -29.1620 C.ar      1 92T        -0.0189
      8 CBB        34.3490    1.6570  -29.7700 C.ar      1 92T         0.0659
      9 CBE        35.5840    1.7480  -30.4140 C.1       1 92T         0.0800
     10 NBF        36.5600    1.9090  -30.9350 N.1       1 92T        -0.3413
     11 CBA        33.5020    2.7630  -29.7280 C.ar      1 92T        -0.0546
     12 CAZ        32.2700    2.6450  -29.0840 C.ar      1 92T        -0.0401
     13 CAV        31.9310    1.4760  -28.5170 C.ar      1 92T         0.1061
     14 NAU        30.8390    1.1120  -27.8490 N.am      1 92T        -0.1958
     15 CAN        29.5320    1.7610  -27.4570 C.3       1 92T         0.0742
     16 CBH        28.7560    2.1220  -28.7270 C.3       1 92T        -0.0036
     17 CBG        29.6020    3.2260  -27.0520 C.3       1 92T        -0.0036
     18 CAH        28.7630    3.5880  -28.2950 C.3       1 92T         0.0496
     19 CAE        27.3550    4.0940  -27.8730 C.2       1 92T         0.1597
     20 NAD        26.3650    3.3590  -27.3640 N.2       1 92T        -0.2525
     21 NAC        25.3530    4.1290  -27.1260 N.2       1 92T        -0.2473
     22 CAB        25.7010    5.3670  -27.4860 C.2       1 92T         0.1981
     23 N3         25.2330    7.4300  -26.5290 N.ar      1 92T        -0.2536
     24 N1         23.1400    8.5410  -26.9880 N.ar      1 92T        -0.2646
     25 C6         22.7700    7.4840  -27.8240 C.ar      1 92T         0.0288
     26 C5         23.6440    6.4230  -28.0010 C.ar      1 92T         0.0025
     27 NAA        26.9630    5.3640  -27.9500 N.pl3     1 92T        -0.1617
     28 CAG        27.7130    6.3710  -28.4110 C.ar      1 92T         0.1181
     29 CAI        27.4390    6.9140  -29.6660 C.ar      1 92T         0.0743
     30 CL1        26.0770    6.3260  -30.6080 Cl        1 92T        -0.0743
     31 CAJ        28.2230    7.9520  -30.1620 C.ar      1 92T        -0.0521
     32 CAK        29.2860    8.4310  -29.3980 C.ar      1 92T        -0.0684
     33 CAL        29.5800    7.8810  -28.1490 C.ar      1 92T        -0.0660
     34 CAM        28.7920    6.8450  -27.6530 C.ar      1 92T        -0.0264
     35 H1         24.6575    9.3423  -25.6679 H         1 92T         0.1128
     36 H2         32.5585   -1.5175  -27.7829 H         1 92T         0.2251
     37 H3         34.6146   -0.4034  -29.1757 H         1 92T         0.0552
     38 H4         33.7956    3.6995  -30.1882 H         1 92T         0.0559
     39 H5         31.5922    3.4899  -29.0417 H         1 92T         0.0492
     40 H6         28.9917    1.1285  -26.7373 H         1 92T         0.0633
     41 H7         27.7533    1.6736  -28.7862 H         1 92T         0.0325
     42 H8         29.3019    1.9241  -29.6612 H         1 92T         0.0325
     43 H9         30.6180    3.6476  -27.0539 H         1 92T         0.0325
     44 H10        29.1122    3.4541  -26.0939 H         1 92T         0.0325
     45 H11        29.2387    4.2813  -29.0042 H         1 92T         0.0560
     46 H12        21.8105    7.4938  -28.3282 H         1 92T         0.0930
     47 H13        23.3679    5.5983  -28.6481 H         1 92T         0.0792
     48 H14        28.0089    8.3836  -31.1330 H         1 92T         0.0605
     49 H15        29.8939    9.2433  -29.7797 H         1 92T         0.0556
     50 H16        30.4152    8.2573  -27.5695 H         1 92T         0.0601
     51 H17        29.0123    6.4078  -26.6858 H         1 92T         0.0583
@<TRIPOS>BOND
     1   23    1 ar 
     2    1   24 ar 
     3   22    2 1  
     4    2   23 ar 
     5    2   26 ar 
     6    4    3 2  
     7    4    5 am 
     8   14    4 am 
     9    6    5 1  
    10    6    7 ar 
    11   13    6 ar 
    12    7    8 ar 
    13    8    9 1  
    14   11    8 ar 
    15    9   10 3  
    16   12   11 ar 
    17   13   12 ar 
    18   14   13 1  
    19   15   14 1  
    20   16   15 1  
    21   17   15 1  
    22   18   16 1  
    23   18   17 1  
    24   19   18 1  
    25   20   19 2  
    26   19   27 1  
    27   21   20 1  
    28   21   22 2  
    29   22   27 1  
    30   24   25 ar 
    31   25   26 ar 
    32   27   28 1  
    33   28   29 ar 
    34   28   34 ar 
    35   29   30 1  
    36   29   31 ar 
    37   31   32 ar 
    38   32   33 ar 
    39   33   34 ar 
    40    1   35 1  
    41    5   36 1  
    42    7   37 1  
    43   11   38 1  
    44   12   39 1  
    45   15   40 1  
    46   16   41 1  
    47   16   42 1  
    48   17   43 1  
    49   17   44 1  
    50   18   45 1  
    51   25   46 1  
    52   26   47 1  
    53   31   48 1  
    54   32   49 1  
    55   33   50 1  
    56   34   51 1  
@<TRIPOS>SUBSTRUCTURE
     1 92T         1

