### 
### Created by X-TOOL on Mon Aug  2 16:10:25 2021
### 

@<TRIPOS>MOLECULE
5np8_ligand
   38    40     1     0     0
SMALL
GAST_HUCK


@<TRIPOS>ATOM
      1 CAH         4.2670    7.5360   29.3440 C.ar      1 MOL        -0.0523
      2 CAF         4.0320    8.8910   29.1410 C.ar      1 MOL        -0.0524
      3 CAQ         3.8050    9.3630   27.8900 C.ar      1 MOL         0.0122
      4 BR          3.4690   11.2300   27.6110 Br        1 MOL        -0.0503
      5 CAG         3.8790    8.4490   26.7990 C.ar      1 MOL        -0.0524
      6 CAI         4.1740    7.1190   26.9890 C.ar      1 MOL        -0.0523
      7 CAS         4.3590    6.6410   28.2810 C.ar      1 MOL        -0.0158
      8 CAT         4.6400    5.2780   28.5610 C.2       1 MOL         0.0181
      9 CAJ         4.8040    4.2160   27.7230 C.2       1 MOL        -0.0397
     10 NAN         4.8370    4.8190   29.8310 N.2       1 MOL        -0.2140
     11 NAW         5.0670    3.5920   29.8740 N.pl3     1 MOL        -0.1425
     12 CAR         5.3310    2.6850   30.9610 C.2       1 MOL         0.1261
     13 CAB         5.3410    3.1950   32.4240 C.3       1 MOL         0.0154
     14 CAV         5.0590    3.1310   28.5090 C.2       1 MOL         0.1417
     15 NAM         5.2930    1.8150   28.2980 N.2       1 MOL        -0.2900
     16 CAP         5.5310    0.9440   29.3310 C.2       1 MOL         0.0195
     17 CAA         5.7690   -0.5520   29.0450 C.3       1 MOL        -0.0131
     18 CAU         5.5800    1.3340   30.6850 C.2       1 MOL         0.0283
     19 CAL         5.8460    0.2510   31.7780 C.3       1 MOL        -0.0095
     20 CAK         7.1180    0.3780   32.6710 C.3       1 MOL         0.0062
     21 CAO         8.4320    0.7770   31.9490 C.2       1 MOL         0.0361
     22 OAD         8.7620    0.1090   30.9380 O.co2     1 MOL        -0.5689
     23 OAC         9.0880    1.7360   32.4490 O.co2     1 MOL        -0.5689
     24 H1          4.3817    7.1662   30.3565 H         1 MOL         0.0625
     25 H2          4.0302    9.5719   29.9845 H         1 MOL         0.0642
     26 H3          3.6981    8.8113   25.7935 H         1 MOL         0.0642
     27 H4          4.2613    6.4507   26.1400 H         1 MOL         0.0625
     28 H5          4.7432    4.2308   26.6358 H         1 MOL         0.0190
     29 H6          5.5599    2.3575   33.1027 H         1 MOL         0.0487
     30 H7          4.3568    3.6195   32.6711 H         1 MOL         0.0487
     31 H8          6.1134    3.9700   32.5369 H         1 MOL         0.0487
     32 H9          5.9406   -1.0837   29.9926 H         1 MOL         0.0446
     33 H10         6.6499   -0.6657   28.3961 H         1 MOL         0.0446
     34 H11         4.8864   -0.9742   28.5423 H         1 MOL         0.0446
     35 H12         5.9088   -0.7189   31.2629 H         1 MOL         0.0387
     36 H13         4.9769    0.2525   32.4522 H         1 MOL         0.0387
     37 H14         7.2850   -0.5953   33.1556 H         1 MOL         0.0446
     38 H15         6.9135    1.1394   33.4381 H         1 MOL         0.0446
@<TRIPOS>BOND
     1    1    2 ar 
     2    1    7 ar 
     3    2    3 ar 
     4    3    4 1  
     5    3    5 ar 
     6    5    6 ar 
     7    6    7 ar 
     8    7    8 1  
     9    8    9 1  
    10    8   10 2  
    11    9   14 2  
    12   10   11 1  
    13   11   12 1  
    14   11   14 1  
    15   12   13 1  
    16   12   18 2  
    17   14   15 1  
    18   15   16 2  
    19   16   17 1  
    20   16   18 1  
    21   18   19 1  
    22   19   20 1  
    23   20   21 1  
    24   21   22 ar 
    25   21   23 ar 
    26    1   24 1  
    27    2   25 1  
    28    5   26 1  
    29    6   27 1  
    30    9   28 1  
    31   13   29 1  
    32   13   30 1  
    33   13   31 1  
    34   17   32 1  
    35   17   33 1  
    36   17   34 1  
    37   19   35 1  
    38   19   36 1  
    39   20   37 1  
    40   20   38 1  
@<TRIPOS>SUBSTRUCTURE
     1 MOL         1

