### 
### Created by X-TOOL on Mon Sep 10 21:13:33 2018
### 

@<TRIPOS>MOLECULE
5npb_ligand
   29    29     1     0     0
SMALL
GAST_HUCK


@<TRIPOS>ATOM
      1 C4         82.8920   15.6040   37.1010 C.3       1 93Z         0.0908
      2 C5         83.6930   14.2880   37.0100 C.3       1 93Z         0.0391
      3 C6         83.5100   13.5490   35.6670 C.3       1 93Z         0.0944
      4 C3         83.2200   16.4450   35.8690 C.3       1 93Z         0.1073
      5 C2         82.6040   15.7800   34.6370 C.3       1 93Z         0.0859
      6 C1         82.6480   14.2480   34.6240 C.3       1 93Z         0.0046
      7 C8         83.4360   13.3510   38.2010 C.3       1 93Z         0.0519
      8 O7         84.7870   13.1840   35.0930 O.3       1 93Z        -0.2619
      9 O9         82.1040   12.8510   38.2600 O.3       1 93Z        -0.3946
     10 O10        83.2610   16.3010   38.2910 O.3       1 93Z        -0.3887
     11 O11        82.6590   17.7680   35.9660 O.3       1 93Z        -0.3867
     12 O12        83.1830   16.2920   33.4240 O.3       1 93Z        -0.3891
     13 S13        85.3660   11.7750   35.4950 S.o2      1 93Z        -0.0735
     14 O14        86.0340   11.3320   34.2490 O.co2     1 93Z        -0.4611
     15 O15        84.3250   10.8060   35.9760 O.co2     1 93Z        -0.4611
     16 O16        86.2960   11.9820   36.6350 O.co2     1 93Z        -0.4611
     17 H1         81.8142   15.3853   37.1242 H         1 93Z         0.0624
     18 H2         84.7537   14.5744   37.0628 H         1 93Z         0.0375
     19 H3         82.9884   12.6118   35.9110 H         1 93Z         0.0624
     20 H4         84.3120   16.5143   35.7564 H         1 93Z         0.0645
     21 H5         81.5406   16.0615   34.6363 H         1 93Z         0.0621
     22 H6         81.6167   13.8900   34.7586 H         1 93Z         0.0317
     23 H7         83.0170   13.9397   33.6347 H         1 93Z         0.0317
     24 H8         83.6401   13.9052   39.1290 H         1 93Z         0.0561
     25 H9         84.1244   12.4964   38.1252 H         1 93Z         0.0561
     26 H10        81.9156   12.3608   37.4683 H         1 93Z         0.2094
     27 H11        83.0513   15.7664   39.0477 H         1 93Z         0.2099
     28 H12        82.8703   18.2587   35.1805 H         1 93Z         0.2100
     29 H13        84.0856   16.0029   33.3586 H         1 93Z         0.2099
@<TRIPOS>BOND
     1    1    2 1  
     2    1    4 1  
     3    1   10 1  
     4    2    3 1  
     5    2    7 1  
     6    3    6 1  
     7    3    8 1  
     8    4    5 1  
     9    4   11 1  
    10    5    6 1  
    11    5   12 1  
    12    7    9 1  
    13    8   13 1  
    14   13   14 ar 
    15   13   15 ar 
    16   13   16 ar 
    17    1   17 1  
    18    2   18 1  
    19    3   19 1  
    20    4   20 1  
    21    5   21 1  
    22    6   22 1  
    23    6   23 1  
    24    7   24 1  
    25    7   25 1  
    26    9   26 1  
    27   10   27 1  
    28   11   28 1  
    29   12   29 1  
@<TRIPOS>SUBSTRUCTURE
     1 93Z         1

