### 
### Created by X-TOOL on Mon Sep 10 21:13:32 2018
### 

@<TRIPOS>MOLECULE
5npc_ligand
   28    29     1     0     0
SMALL
GAST_HUCK


@<TRIPOS>ATOM
      1 C1         29.9860   80.4010   34.9690 C.3       1 94E         0.1467
      2 C3         27.6220   80.3310   35.9740 C.3       1 94E         0.1098
      3 C6         30.6330   79.8630   36.2320 C.3       1 94E         0.1279
      4 C2         28.5350   79.9020   34.8320 C.3       1 94E         0.1144
      5 C4         28.1940   79.6510   37.2130 C.3       1 94E         0.0910
      6 C5         29.7040   79.9430   37.4650 C.3       1 94E         0.0419
      7 C7         30.2860   79.0110   38.5400 C.3       1 94E         0.0520
      8 O6         31.8410   80.6440   36.4410 O.3       1 94E        -0.2091
      9 O1         30.2080   81.8080   35.1270 O.3       1 94E        -0.2070
     10 O7         30.0560   77.6320   38.2150 O.3       1 94E        -0.3946
     11 O4         27.3580   80.0840   38.2680 O.3       1 94E        -0.3887
     12 O3         26.2240   79.9700   35.7760 O.3       1 94E        -0.3866
     13 O2         27.8990   80.1930   33.5960 O.3       1 94E        -0.3864
     14 S14        31.5880   82.0580   35.8210 S.o2      1 94E         0.2107
     15 O15        32.5470   82.4660   34.8300 O.2       1 94E        -0.1179
     16 O16        31.5420   83.0790   36.8680 O.2       1 94E        -0.1179
     17 H1         30.5314   80.0519   34.0798 H         1 94E         0.0675
     18 H2         27.6778   81.4234   36.0906 H         1 94E         0.0646
     19 H3         30.9027   78.8082   36.0747 H         1 94E         0.0653
     20 H4         28.6039   78.8055   34.8865 H         1 94E         0.0648
     21 H5         28.0907   78.5619   37.0986 H         1 94E         0.0624
     22 H6         29.7590   80.9744   37.8433 H         1 94E         0.0376
     23 H7         29.8092   79.2359   39.5054 H         1 94E         0.0561
     24 H8         31.3694   79.1851   38.6167 H         1 94E         0.0561
     25 H9         30.4694   77.4305   37.3837 H         1 94E         0.2094
     26 H10        27.6063   79.6396   39.0701 H         1 94E         0.2099
     27 H11        25.8925   80.4058   34.9996 H         1 94E         0.2100
     28 H12        27.7317   81.1264   33.5393 H         1 94E         0.2100
@<TRIPOS>BOND
     1    1    3 1  
     2    1    4 1  
     3    1    9 1  
     4    4    2 1  
     5    2    5 1  
     6    2   12 1  
     7    3    6 1  
     8    3    8 1  
     9    4   13 1  
    10    5    6 1  
    11    5   11 1  
    12    6    7 1  
    13    7   10 1  
    14    8   14 1  
    15    9   14 1  
    16   14   15 2  
    17   14   16 2  
    18    1   17 1  
    19    2   18 1  
    20    3   19 1  
    21    4   20 1  
    22    5   21 1  
    23    6   22 1  
    24    7   23 1  
    25    7   24 1  
    26   10   25 1  
    27   11   26 1  
    28   12   27 1  
    29   13   28 1  
@<TRIPOS>SUBSTRUCTURE
     1 94E         1

