### 
### Created by X-TOOL on Mon Sep 10 21:13:31 2018
### 

@<TRIPOS>MOLECULE
5npd_ligand
   26    27     1     0     0
SMALL
GAST_HUCK


@<TRIPOS>ATOM
      1 C1         29.6660   80.0320   34.7440 C.3       1 94B         0.0509
      2 C2         28.1650   79.8580   34.7300 C.3       1 94B         0.1309
      3 C3         27.4150   80.4100   35.9420 C.3       1 94B         0.1128
      4 C4         28.0320   79.7990   37.2010 C.3       1 94B         0.0939
      5 C5         29.5310   80.1430   37.3910 C.3       1 94B         0.0588
      6 C6         30.1750   79.2380   38.4620 C.3       1 94B         0.0548
      7 C7         30.3510   80.1080   36.1020 C.3       1 94B         0.0317
      8 O6         30.0030   77.8490   38.2000 O.3       1 94B        -0.3944
      9 O4         27.2970   80.2440   38.3230 O.3       1 94B        -0.3886
     10 O2         26.0520   80.0080   35.8090 O.3       1 94B        -0.3864
     11 O3         27.7390   80.3550   33.4830 O.3       1 94B        -0.3833
     12 N12        30.2650   81.2940   35.2110 N.4       1 94B         0.2416
     13 H1         30.1200   79.4800   33.9078 H         1 94B         0.0934
     14 H2         27.9653   78.7763   34.7350 H         1 94B         0.0679
     15 H3         27.4875   81.5070   35.9796 H         1 94B         0.0647
     16 H4         27.9434   78.7050   37.1281 H         1 94B         0.0625
     17 H5         29.5722   81.1765   37.7653 H         1 94B         0.0406
     18 H6         29.7183   79.4692   39.4356 H         1 94B         0.0563
     19 H7         31.2526   79.4554   38.5015 H         1 94B         0.0563
     20 H8         31.3043   79.5861   36.2719 H         1 94B         0.0912
     21 H9         30.4010   77.6338   37.3647 H         1 94B         0.2094
     22 H10        27.6233   79.8140   39.1047 H         1 94B         0.2099
     23 H11        25.6840   80.3953   35.0235 H         1 94B         0.2100
     24 H12        27.8510   81.2982   33.4643 H         1 94B         0.2102
     25 H13        29.6683   82.0660   35.4641 H         1 94B         0.2025
     26 H14        31.0985   81.6454   34.7662 H         1 94B         0.2025
@<TRIPOS>BOND
     1    1    2 1  
     2    1    7 1  
     3    1   12 1  
     4    2    3 1  
     5    2   11 1  
     6    3    4 1  
     7    3   10 1  
     8    4    5 1  
     9    4    9 1  
    10    5    6 1  
    11    5    7 1  
    12    6    8 1  
    13    7   12 1  
    14    1   13 1  
    15    2   14 1  
    16    3   15 1  
    17    4   16 1  
    18    5   17 1  
    19    6   18 1  
    20    6   19 1  
    21    7   20 1  
    22    8   21 1  
    23    9   22 1  
    24   10   23 1  
    25   11   24 1  
    26   12   25 1  
    27   12   26 1  
@<TRIPOS>SUBSTRUCTURE
     1 94B         1

