### 
### Created by X-TOOL on Mon Sep 10 21:13:32 2018
### 

@<TRIPOS>MOLECULE
5npe_ligand
   26    27     1     0     0
SMALL
GAST_HUCK


@<TRIPOS>ATOM
      1 C1         29.5530   80.0570   34.7460 C.3       1 948         0.0509
      2 C2         28.0650   79.7120   34.6680 C.3       1 948         0.1309
      3 C3         27.3730   80.2910   35.9280 C.3       1 948         0.1128
      4 C4         27.9770   79.6000   37.1540 C.3       1 948         0.0939
      5 C5         29.4820   79.9230   37.3810 C.3       1 948         0.0588
      6 C6         30.2560   79.0580   38.4140 C.3       1 948         0.0548
      7 C7         30.2980   80.1010   36.0790 C.3       1 948         0.0317
      8 N8         30.4540   78.9430   35.1900 N.4       1 948         0.2416
      9 O2         27.4980   80.1870   33.4490 O.3       1 948        -0.3833
     10 O3         25.9380   80.1140   35.8390 O.3       1 948        -0.3864
     11 O4         27.3250   80.1000   38.3130 O.3       1 948        -0.3886
     12 O6         29.9850   77.6730   38.3020 O.3       1 948        -0.3944
     13 H1         29.8307   80.7463   33.9350 H         1 948         0.0934
     14 H2         27.9541   78.6178   34.6852 H         1 948         0.0679
     15 H3         27.5829   81.3689   35.9920 H         1 948         0.0647
     16 H4         27.8378   78.5128   37.0608 H         1 948         0.0625
     17 H5         29.4617   80.9246   37.8353 H         1 948         0.0406
     18 H6         29.9752   79.3877   39.4252 H         1 948         0.0563
     19 H7         31.3341   79.2158   38.2630 H         1 948         0.0563
     20 H8         31.1281   80.8050   36.2380 H         1 948         0.0912
     21 H9         31.3311   78.7919   34.7168 H         1 948         0.2025
     22 H10        30.0568   78.0548   35.4533 H         1 948         0.2025
     23 H11        27.5769   81.1330   33.4118 H         1 948         0.2102
     24 H12        25.6125   80.5591   35.0654 H         1 948         0.2100
     25 H13        27.6691   79.6618   39.0825 H         1 948         0.2099
     26 H14        29.0574   77.5209   38.4393 H         1 948         0.2094
@<TRIPOS>BOND
     1    1    2 1  
     2    1    7 1  
     3    1    8 1  
     4    2    3 1  
     5    2    9 1  
     6    3    4 1  
     7    3   10 1  
     8    4    5 1  
     9    4   11 1  
    10    5    6 1  
    11    5    7 1  
    12    6   12 1  
    13    7    8 1  
    14    1   13 1  
    15    2   14 1  
    16    3   15 1  
    17    4   16 1  
    18    5   17 1  
    19    6   18 1  
    20    6   19 1  
    21    7   20 1  
    22    8   21 1  
    23    8   22 1  
    24    9   23 1  
    25   10   24 1  
    26   11   25 1  
    27   12   26 1  
@<TRIPOS>SUBSTRUCTURE
     1 948         1

