### 
### Created by X-TOOL on Mon Sep 10 21:13:30 2018
### 

@<TRIPOS>MOLECULE
5npf_ligand
   29    29     1     0     0
SMALL
GAST_HUCK


@<TRIPOS>ATOM
      1 C5         59.7860   67.0550   60.6700 C.3       1 945         0.0391
      2 C4         59.2190   66.8350   59.2700 C.3       1 945         0.0908
      3 C2         57.0460   65.8750   60.2720 C.3       1 945         0.0859
      4 C6         58.6070   67.1310   61.6680 C.3       1 945         0.0944
      5 C1         57.6820   65.8250   61.6560 C.3       1 945         0.0046
      6 C3         58.1920   65.6910   59.2420 C.3       1 945         0.1073
      7 C7         60.7940   68.2220   60.7060 C.3       1 945         0.0519
      8 O7         61.5540   68.1860   61.9570 O.3       1 945        -0.3946
      9 O6         57.9410   68.3300   61.3690 O.3       1 945        -0.2619
     10 O2         56.1050   64.8530   60.2060 O.3       1 945        -0.3891
     11 O3         57.6630   65.6350   57.9290 O.3       1 945        -0.3867
     12 O4         60.3300   66.5320   58.3630 O.3       1 945        -0.3887
     13 S13        57.1000   69.0540   62.4460 S.o2      1 945        -0.0735
     14 O14        58.1500   69.5590   63.3940 O.co2     1 945        -0.4611
     15 O15        56.3370   68.0640   63.1930 O.co2     1 945        -0.4611
     16 O16        56.3410   70.0000   61.6500 O.co2     1 945        -0.4611
     17 H1         60.3609   66.1557   60.9359 H         1 945         0.0375
     18 H2         58.7225   67.7589   58.9385 H         1 945         0.0624
     19 H3         56.5507   66.8431   60.1066 H         1 945         0.0621
     20 H4         59.0182   67.2140   62.6849 H         1 945         0.0624
     21 H5         58.2830   64.9126   61.7832 H         1 945         0.0317
     22 H6         56.9175   65.8736   62.4454 H         1 945         0.0317
     23 H7         58.7084   64.7464   59.4679 H         1 945         0.0645
     24 H8         60.2503   69.1758   60.6369 H         1 945         0.0561
     25 H9         61.4864   68.1322   59.8560 H         1 945         0.0561
     26 H10        62.0246   67.3629   62.0168 H         1 945         0.2094
     27 H11        56.5291   64.0216   60.3834 H         1 945         0.2099
     28 H12        58.3726   65.5224   57.3075 H         1 945         0.2100
     29 H13        59.9971   66.4311   57.4790 H         1 945         0.2099
@<TRIPOS>BOND
     1    2    1 1  
     2    1    4 1  
     3    1    7 1  
     4    6    2 1  
     5    2   12 1  
     6    3    5 1  
     7    3    6 1  
     8    3   10 1  
     9    4    5 1  
    10    4    9 1  
    11    6   11 1  
    12    7    8 1  
    13    9   13 1  
    14   13   14 ar 
    15   13   15 ar 
    16   13   16 ar 
    17    1   17 1  
    18    2   18 1  
    19    3   19 1  
    20    4   20 1  
    21    5   21 1  
    22    5   22 1  
    23    6   23 1  
    24    7   24 1  
    25    7   25 1  
    26    8   26 1  
    27   10   27 1  
    28   11   28 1  
    29   12   29 1  
@<TRIPOS>SUBSTRUCTURE
     1 945         1

