### 
### Created by X-TOOL on Wed Jan  1 15:39:37 2020
### 

@<TRIPOS>MOLECULE
5nq5_ligand
   55    58     1     0     0
SMALL
GAST_HUCK


@<TRIPOS>ATOM
      1 O2        -24.7710   28.5490  -12.0630 O.2       1 952        -0.4079
      2 C22       -24.7340   29.3890  -11.1650 C.2       1 952         0.1930
      3 C1        -24.0400   29.2270   -9.9060 C.2       1 952         0.0224
      4 C         -23.3000   27.9450   -9.6460 C.3       1 952        -0.0437
      5 N2        -25.3940   30.5940  -11.3220 N.am      1 952        -0.1860
      6 C21       -25.4550   31.6290  -10.4230 C.2       1 952         0.3248
      7 O1        -26.0650   32.6620  -10.6580 O.2       1 952        -0.3843
      8 N         -24.7710   31.4100   -9.2470 N.am      1 952        -0.1927
      9 C2        -24.0930   30.2340   -9.0200 C.2       1 952         0.0503
     10 C3        -24.7640   32.4840   -8.2300 C.3       1 952         0.1120
     11 C7        -23.3690   33.0600   -8.1810 C.3       1 952         0.0000
     12 N1        -23.2640   34.1410   -7.1980 N.4       1 952         0.2491
     13 C6        -23.6090   33.6410   -5.8610 C.3       1 952        -0.0303
     14 C5        -25.0010   33.0520   -5.8180 C.3       1 952        -0.0096
     15 C4        -25.1460   31.9500   -6.8590 C.3       1 952        -0.0132
     16 C8        -21.9270   34.7510   -7.1970 C.3       1 952        -0.0003
     17 C9        -21.5910   35.4800   -8.4770 C.ar      1 952        -0.0065
     18 C14       -20.4940   35.1030   -9.2370 C.ar      1 952        -0.0657
     19 C13       -20.1770   35.7760  -10.4040 C.ar      1 952        -0.0760
     20 C12       -20.9490   36.8400  -10.8320 C.ar      1 952        -0.0354
     21 C11       -22.0420   37.2220  -10.0740 C.ar      1 952         0.1096
     22 C10       -22.3690   36.5480   -8.9070 C.ar      1 952        -0.0225
     23 O         -22.8130   38.3180  -10.4600 O.3       1 952        -0.2597
     24 C15       -23.6220   38.2290  -11.5920 C.ar      1 952         0.1159
     25 C20       -23.9500   39.3880  -12.2760 C.ar      1 952        -0.0285
     26 C19       -24.7760   39.3120  -13.3840 C.ar      1 952        -0.0697
     27 C18       -25.2660   38.0950  -13.8070 C.ar      1 952        -0.0723
     28 C17       -24.9310   36.9440  -13.1260 C.ar      1 952        -0.0697
     29 C16       -24.1060   37.0010  -12.0150 C.ar      1 952        -0.0285
     30 H1        -22.8327   27.9867   -8.6511 H         1 952         0.0296
     31 H2        -22.5216   27.8092  -10.4113 H         1 952         0.0296
     32 H3        -24.0041   27.1008   -9.6853 H         1 952         0.0296
     33 H4        -25.8804   30.7257  -12.1858 H         1 952         0.2259
     34 H5        -23.5719   30.1141   -8.0713 H         1 952         0.1010
     35 H6        -25.4792   33.2674   -8.5211 H         1 952         0.0696
     36 H7        -23.1113   33.4554   -9.1746 H         1 952         0.0844
     37 H8        -22.6628   32.2615   -7.9096 H         1 952         0.0844
     38 H9        -23.9294   34.8555   -7.4485 H         1 952         0.2049
     39 H10       -23.5538   34.4743   -5.1451 H         1 952         0.0815
     40 H11       -22.8855   32.8634   -5.5751 H         1 952         0.0815
     41 H12       -25.7358   33.8441   -6.0246 H         1 952         0.0318
     42 H13       -25.1857   32.6321   -4.8182 H         1 952         0.0318
     43 H14       -24.4852   31.1106   -6.5968 H         1 952         0.0298
     44 H15       -26.1894   31.6025   -6.8801 H         1 952         0.0298
     45 H16       -21.1825   33.9557   -7.0447 H         1 952         0.0979
     46 H17       -21.8731   35.4681   -6.3646 H         1 952         0.0979
     47 H18       -19.8779   34.2719   -8.9134 H         1 952         0.0471
     48 H19       -19.3170   35.4666  -10.9868 H         1 952         0.0573
     49 H20       -20.7021   37.3667  -11.7467 H         1 952         0.0496
     50 H21       -23.2332   36.8549   -8.3291 H         1 952         0.0490
     51 H22       -23.5634   40.3456  -11.9466 H         1 952         0.0552
     52 H23       -25.0392   40.2152  -13.9225 H         1 952         0.0590
     53 H24       -25.9142   38.0430  -14.6743 H         1 952         0.0528
     54 H25       -25.3159   35.9881  -13.4623 H         1 952         0.0590
     55 H26       -23.8416   36.0949  -11.4819 H         1 952         0.0552
@<TRIPOS>BOND
     1    1    2 2  
     2    2    3 1  
     3    2    5 am 
     4    3    4 1  
     5    3    9 2  
     6    5    6 am 
     7    6    7 2  
     8    6    8 am 
     9    8    9 1  
    10    8   10 1  
    11   10   11 1  
    12   10   15 1  
    13   11   12 1  
    14   12   13 1  
    15   12   16 1  
    16   13   14 1  
    17   14   15 1  
    18   16   17 1  
    19   17   18 ar 
    20   17   22 ar 
    21   18   19 ar 
    22   19   20 ar 
    23   20   21 ar 
    24   21   22 ar 
    25   21   23 1  
    26   23   24 1  
    27   24   25 ar 
    28   24   29 ar 
    29   25   26 ar 
    30   26   27 ar 
    31   27   28 ar 
    32   28   29 ar 
    33    4   30 1  
    34    4   31 1  
    35    4   32 1  
    36    5   33 1  
    37    9   34 1  
    38   10   35 1  
    39   11   36 1  
    40   11   37 1  
    41   12   38 1  
    42   13   39 1  
    43   13   40 1  
    44   14   41 1  
    45   14   42 1  
    46   15   43 1  
    47   15   44 1  
    48   16   45 1  
    49   16   46 1  
    50   18   47 1  
    51   19   48 1  
    52   20   49 1  
    53   22   50 1  
    54   25   51 1  
    55   26   52 1  
    56   27   53 1  
    57   28   54 1  
    58   29   55 1  
@<TRIPOS>SUBSTRUCTURE
     1 952         1

