### 
### Created by X-TOOL on Mon Sep 10 21:13:34 2018
### 

@<TRIPOS>MOLECULE
5nqe_ligand
   52    54     1     0     0
SMALL
GAST_HUCK


@<TRIPOS>ATOM
      1 CAG         4.2190   11.4270   24.7510 C.ar      1 94Z        -0.0458
      2 CAH         4.6670   10.4700   25.6940 C.ar      1 94Z        -0.0400
      3 CAZ         3.8240   10.0580   26.7470 C.ar      1 94Z         0.1179
      4 FBA         4.1730    9.2500   27.5750 F         1 94Z        -0.1946
      5 CAY         2.5460   10.6150   26.8610 C.ar      1 94Z        -0.0400
      6 CAX         2.1200   11.5710   25.9260 C.ar      1 94Z        -0.0458
      7 CAW         2.9220   11.9990   24.8440 C.ar      1 94Z         0.0365
      8 NAV         2.4590   12.9250   23.9350 N.pl3     1 94Z        -0.3071
      9 CAF         0.9740   13.2050   23.8600 C.3       1 94Z         0.0464
     10 CAE         0.5740   14.2190   22.7350 C.3       1 94Z         0.0534
     11 CAU         3.4100   13.6310   23.0210 C.3       1 94Z         0.0464
     12 CAT         2.8790   14.9900   22.6080 C.3       1 94Z         0.0534
     13 NAS         1.6670   14.6000   21.8680 N.am      1 94Z        -0.2693
     14 CAR         1.7360   14.6120   20.5210 C.2       1 94Z         0.1808
     15 OBC         2.7360   14.9420   19.9000 O.2       1 94Z        -0.3967
     16 CAQ         0.8910   14.0930   19.4970 C.3       1 94Z         0.0547
     17 CAP         0.9050   12.7910   18.9010 C.3       1 94Z         0.0599
     18 CAO         0.1140   11.7690   19.4420 C.2       1 94Z         0.2058
     19 OAD        -0.3870   11.8560   20.5030 O.2       1 94Z        -0.3848
     20 NAN         0.0100   10.8440   18.5830 N.am      1 94Z        -0.2329
     21 CAM        -0.6520    9.7400   18.7000 C.ar      1 94Z         0.0717
     22 CAL        -0.9150    9.3370   17.4410 C.ar      1 94Z        -0.0215
     23 CAC        -1.0290    8.9870   19.8480 C.ar      1 94Z        -0.0369
     24 CAB        -1.7080    7.8010   19.6270 C.ar      1 94Z        -0.0699
     25 CAA        -1.9580    7.3830   18.3100 C.ar      1 94Z        -0.0574
     26 CAK        -1.5480    8.1630   17.2110 C.ar      1 94Z         0.0361
     27 CAJ        -1.7430    7.7980   15.9430 C.2       1 94Z         0.1989
     28 OAI        -2.7170    7.2430   15.7310 O.2       1 94Z        -0.3849
     29 NBB        -0.8460    8.0270   15.0220 N.am      1 94Z        -0.3003
     30 H1          4.8773   11.7283   23.9442 H         1 94Z         0.0506
     31 H2          5.6632   10.0519   25.6060 H         1 94Z         0.0571
     32 H3          1.8884   10.3100   27.6669 H         1 94Z         0.0571
     33 H4          1.1311   12.0005   26.0389 H         1 94Z         0.0506
     34 H5          0.6500   13.6160   24.8275 H         1 94Z         0.0532
     35 H6          0.4518   12.2554   23.6716 H         1 94Z         0.0532
     36 H7          0.1795   15.1277   23.2132 H         1 94Z         0.0542
     37 H8         -0.2118   13.7585   22.1182 H         1 94Z         0.0542
     38 H9          3.5618   13.0179   22.1204 H         1 94Z         0.0532
     39 H10         4.3708   13.7653   23.5394 H         1 94Z         0.0532
     40 H11         3.5923   15.5244   21.9634 H         1 94Z         0.0542
     41 H12         2.6368   15.6126   23.4819 H         1 94Z         0.0542
     42 H13         1.0263   14.7840   18.6519 H         1 94Z         0.0528
     43 H14        -0.1271   14.2006   19.8993 H         1 94Z         0.0528
     44 H15         1.9463   12.4378   18.9317 H         1 94Z         0.0532
     45 H16         0.5910   12.9165   17.8543 H         1 94Z         0.0532
     46 H17         0.4935   10.9832   17.7188 H         1 94Z         0.2256
     47 H18        -0.6167    9.9590   16.6048 H         1 94Z         0.0553
     48 H19        -0.7948    9.3271   20.8503 H         1 94Z         0.0537
     49 H20        -2.0440    7.1998   20.4641 H         1 94Z         0.0588
     50 H21        -2.4744    6.4458   18.1364 H         1 94Z         0.0539
     51 H22        -1.0151    7.7439   14.0779 H         1 94Z         0.1808
     52 H23         0.0100    8.4855   15.2608 H         1 94Z         0.1808
@<TRIPOS>BOND
     1    1    2 ar 
     2    1    7 ar 
     3    2    3 ar 
     4    3    4 1  
     5    3    5 ar 
     6    5    6 ar 
     7    6    7 ar 
     8    7    8 1  
     9    8    9 1  
    10    8   11 1  
    11    9   10 1  
    12   10   13 1  
    13   11   12 1  
    14   12   13 1  
    15   13   14 am 
    16   14   15 2  
    17   14   16 1  
    18   16   17 1  
    19   17   18 1  
    20   18   19 2  
    21   18   20 am 
    22   20   21 1  
    23   21   22 ar 
    24   21   23 ar 
    25   22   26 ar 
    26   23   24 ar 
    27   24   25 ar 
    28   25   26 ar 
    29   26   27 1  
    30   27   28 2  
    31   27   29 am 
    32    1   30 1  
    33    2   31 1  
    34    5   32 1  
    35    6   33 1  
    36    9   34 1  
    37    9   35 1  
    38   10   36 1  
    39   10   37 1  
    40   11   38 1  
    41   11   39 1  
    42   12   40 1  
    43   12   41 1  
    44   16   42 1  
    45   16   43 1  
    46   17   44 1  
    47   17   45 1  
    48   20   46 1  
    49   22   47 1  
    50   23   48 1  
    51   24   49 1  
    52   25   50 1  
    53   29   51 1  
    54   29   52 1  
@<TRIPOS>SUBSTRUCTURE
     1 94Z         1

