### 
### Created by X-TOOL on Wed Jan  1 15:39:36 2020
### 

@<TRIPOS>MOLECULE
5nqr_ligand
   50    53     1     0     0
SMALL
GAST_HUCK


@<TRIPOS>ATOM
      1 C4         86.8240   14.9210  111.4750 C.2       1 958         0.1165
      2 C5         85.9580   15.4640  110.6120 C.2       1 958         0.1489
      3 C6         84.7720   15.8850  111.0840 C.2       1 958         0.2185
      4 C8         87.7590   14.9090  109.5460 C.2       1 958         0.2133
      5 N1         84.4740   15.7590  112.3880 N.am      1 958        -0.1762
      6 N3         86.5300   14.7940  112.7740 N.am      1 958        -0.2064
      7 CAV        78.7740   15.0650  104.0420 C.3       1 958        -0.0307
      8 CAT        79.7400   15.8250  104.6880 C.ar      1 958        -0.0432
      9 CAU        80.8250   15.2010  105.3010 C.ar      1 958        -0.0451
     10 CAS        79.6090   17.2090  104.7210 C.ar      1 958        -0.0584
     11 CAR        80.5640   17.9850  105.3600 C.ar      1 958        -0.0652
     12 CAQ        81.6460   17.3630  105.9650 C.ar      1 958        -0.0527
     13 CAP        81.7860   15.9810  105.9320 C.ar      1 958         0.0350
     14 CAN        82.8490   15.4610  106.5390 C.2       1 958         0.2160
     15 OAO        83.7570   16.1920  107.0020 O.3       1 958        -0.1882
     16 NAM        83.1730   14.1750  106.6920 N.2       1 958        -0.2460
     17 NAL        84.2930   14.1450  107.3040 N.2       1 958        -0.2450
     18 CAK        84.6390   15.4160  107.5050 C.2       1 958         0.2294
     19 CAJ        85.8970   16.0040  108.1420 C.3       1 958         0.1448
     20 N7         86.5190   15.4270  109.3850 N.pl3     1 958        -0.2137
     21 O6         83.9230   16.3950  110.3540 O.2       1 958        -0.4076
     22 CAY        83.1620   16.2230  112.8940 C.3       1 958         0.0473
     23 C2         85.3520   15.2140  113.2360 C.2       1 958         0.3173
     24 O2         85.0790   15.0980  114.4300 O.2       1 958        -0.3874
     25 CAW        87.5180   14.1900  113.6970 C.3       1 958         0.0445
     26 N9         87.9170   14.5770  110.8170 N.2       1 958        -0.2875
     27 NBA        88.7680   14.6120  108.6940 N.pl3     1 958        -0.2717
     28 CBC        89.9910   14.0760  109.3080 C.3       1 958         0.0232
     29 CBB        88.7200   14.8270  107.2340 C.3       1 958         0.0232
     30 H1         79.0369   13.9993  104.1146 H         1 958         0.0390
     31 H2         78.7237   15.3589  102.9832 H         1 958         0.0390
     32 H3         77.7962   15.2346  104.5165 H         1 958         0.0390
     33 H4         80.9179   14.1211  105.2856 H         1 958         0.0583
     34 H5         78.7576   17.6827  104.2457 H         1 958         0.0576
     35 H6         80.4662   19.0643  105.3864 H         1 958         0.0606
     36 H7         82.3932   17.9637  106.4709 H         1 958         0.0591
     37 H8         85.6590   17.0518  108.3776 H         1 958         0.0874
     38 H9         86.6764   15.9704  107.3665 H         1 958         0.0874
     39 H10        82.5749   16.6397  112.0624 H         1 958         0.0539
     40 H11        83.3172   16.9989  113.6581 H         1 958         0.0539
     41 H12        82.6192   15.3751  113.3373 H         1 958         0.0539
     42 H13        88.4205   13.9082  113.1348 H         1 958         0.0549
     43 H14        87.0831   13.2945  114.1649 H         1 958         0.0549
     44 H15        87.7844   14.9185  114.4769 H         1 958         0.0549
     45 H16        90.7360   13.8732  108.5245 H         1 958         0.0489
     46 H17        89.7554   13.1427  109.8403 H         1 958         0.0489
     47 H18        90.3970   14.8110  110.0186 H         1 958         0.0489
     48 H19        87.7351   15.2296  106.9549 H         1 958         0.0489
     49 H20        88.8850   13.8703  106.7168 H         1 958         0.0489
     50 H21        89.5040   15.5414  106.9426 H         1 958         0.0489
@<TRIPOS>BOND
     1    2    1 2  
     2    1    6 1  
     3   26    1 1  
     4    2    3 1  
     5   20    2 1  
     6    3    5 am 
     7    3   21 2  
     8   20    4 1  
     9    4   26 2  
    10    4   27 1  
    11    5   22 1  
    12    5   23 am 
    13    6   23 am 
    14    6   25 1  
    15    8    7 1  
    16    9    8 ar 
    17    8   10 ar 
    18   13    9 ar 
    19   11   10 ar 
    20   12   11 ar 
    21   13   12 ar 
    22   14   13 1  
    23   15   14 1  
    24   16   14 2  
    25   18   15 1  
    26   17   16 1  
    27   18   17 2  
    28   19   18 1  
    29   19   20 1  
    30   23   24 2  
    31   27   28 1  
    32   27   29 1  
    33    7   30 1  
    34    7   31 1  
    35    7   32 1  
    36    9   33 1  
    37   10   34 1  
    38   11   35 1  
    39   12   36 1  
    40   19   37 1  
    41   19   38 1  
    42   22   39 1  
    43   22   40 1  
    44   22   41 1  
    45   25   42 1  
    46   25   43 1  
    47   25   44 1  
    48   28   45 1  
    49   28   46 1  
    50   28   47 1  
    51   29   48 1  
    52   29   49 1  
    53   29   50 1  
@<TRIPOS>SUBSTRUCTURE
     1 958         1

