### 
### Created by X-TOOL on Wed Jan  1 15:39:36 2020
### 

@<TRIPOS>MOLECULE
5nr7_ligand
   60    64     1     0     0
SMALL
GAST_HUCK


@<TRIPOS>ATOM
      1 O2         -0.0400   23.4400   -8.8550 O.2       1 YUI        -0.4079
      2 C25        -1.1210   23.8500   -8.4400 C.2       1 YUI         0.1930
      3 C1         -2.2520   23.0090   -8.1000 C.2       1 YUI         0.0224
      4 C          -2.1060   21.5180   -8.2260 C.3       1 YUI        -0.0437
      5 N3         -1.3280   25.2050   -8.2760 N.am      1 YUI        -0.1860
      6 C24        -2.4730   25.8240   -7.8430 C.2       1 YUI         0.3246
      7 O1         -2.5540   27.0360   -7.7130 O.2       1 YUI        -0.3843
      8 N          -3.5170   24.9690   -7.5550 N.am      1 YUI        -0.1975
      9 C2         -3.3780   23.6040   -7.6810 C.2       1 YUI         0.0501
     10 C3         -4.8080   25.5690   -7.1600 C.3       1 YUI         0.0820
     11 C23        -4.8000   26.0180   -5.7110 C.3       1 YUI         0.0175
     12 C22        -6.1420   26.6490   -5.3550 C.3       1 YUI        -0.0274
     13 N1         -7.2570   25.7110   -5.5800 N.4       1 YUI         0.2500
     14 C5         -7.2730   25.2900   -6.9890 C.3       1 YUI        -0.0274
     15 C4         -5.9670   24.6140   -7.3850 C.3       1 YUI         0.0175
     16 C6         -8.5420   26.3250   -5.2150 C.3       1 YUI         0.0149
     17 C7         -8.6860   26.5920   -3.7330 C.ar      1 YUI         0.0556
     18 N2         -9.0630   27.8210   -3.3790 N.ar      1 YUI        -0.3148
     19 C21        -9.2030   28.0890   -2.0420 C.ar      1 YUI         0.0266
     20 C20        -9.5930   29.3910   -1.6460 C.ar      1 YUI        -0.0483
     21 C19        -9.7450   29.6930   -0.3210 C.ar      1 YUI        -0.0613
     22 C18        -9.5230   28.7350    0.6540 C.ar      1 YUI        -0.0603
     23 C17        -9.1420   27.4730    0.3090 C.ar      1 YUI        -0.0477
     24 C16        -8.9650   27.1160   -1.0490 C.ar      1 YUI         0.0410
     25 C9         -8.5480   25.8310   -1.4830 C.ar      1 YUI         0.1457
     26 C8         -8.4210   25.5710   -2.8310 C.ar      1 YUI         0.0071
     27 O          -8.1930   24.9520   -0.4580 O.3       1 YUI        -0.2425
     28 C10        -8.7250   23.6600   -0.4530 C.ar      1 YUI         0.1235
     29 C15        -8.1900   22.8150    0.5060 C.ar      1 YUI        -0.0130
     30 C14        -8.6790   21.5290    0.5910 C.ar      1 YUI         0.0334
     31 CL         -8.0230   20.4600    1.8000 Cl        1 YUI        -0.0733
     32 C13        -9.6690   21.0680   -0.2480 C.ar      1 YUI        -0.0577
     33 C12       -10.1870   21.9250   -1.2030 C.ar      1 YUI        -0.0684
     34 C11        -9.7210   23.2240   -1.3130 C.ar      1 YUI        -0.0267
     35 H1         -3.0476   21.0313   -7.9320 H         1 YUI         0.0296
     36 H2         -1.2940   21.1723   -7.5694 H         1 YUI         0.0296
     37 H3         -1.8697   21.2595   -9.2687 H         1 YUI         0.0296
     38 H4         -0.5570   25.8021   -8.4976 H         1 YUI         0.2259
     39 H5         -4.2291   22.9741   -7.4264 H         1 YUI         0.1010
     40 H6         -4.9693   26.4555   -7.7910 H         1 YUI         0.0645
     41 H7         -3.9989   26.7570   -5.5627 H         1 YUI         0.0346
     42 H8         -4.6220   25.1487   -5.0609 H         1 YUI         0.0346
     43 H9         -6.2942   27.5415   -5.9797 H         1 YUI         0.0816
     44 H10        -6.1294   26.9414   -4.2947 H         1 YUI         0.0816
     45 H11        -7.1155   24.8982   -5.0009 H         1 YUI         0.2051
     46 H12        -7.4244   26.1749   -7.6247 H         1 YUI         0.0816
     47 H13        -8.1018   24.5830   -7.1413 H         1 YUI         0.0816
     48 H14        -5.8218   23.7119   -6.7725 H         1 YUI         0.0346
     49 H15        -6.0083   24.3330   -8.4477 H         1 YUI         0.0346
     50 H16        -9.3516   25.6488   -5.5268 H         1 YUI         0.1021
     51 H17        -8.6356   27.2808   -5.7513 H         1 YUI         0.1021
     52 H18        -9.7720   30.1522   -2.3967 H         1 YUI         0.0600
     53 H19       -10.0427   30.6940   -0.0305 H         1 YUI         0.0640
     54 H20        -9.6533   28.9909    1.6993 H         1 YUI         0.0598
     55 H21        -8.9725   26.7339    1.0837 H         1 YUI         0.0653
     56 H22        -8.1204   24.5894   -3.1792 H         1 YUI         0.0547
     57 H23        -7.4065   23.1567    1.1727 H         1 YUI         0.0563
     58 H24       -10.0360   20.0517   -0.1618 H         1 YUI         0.0539
     59 H25       -10.9654   21.5758   -1.8717 H         1 YUI         0.0592
     60 H26       -10.1299   23.8920   -2.0624 H         1 YUI         0.0560
@<TRIPOS>BOND
     1    1    2 2  
     2    2    3 1  
     3    2    5 am 
     4    3    4 1  
     5    3    9 2  
     6    5    6 am 
     7    6    7 2  
     8    6    8 am 
     9    8    9 1  
    10    8   10 1  
    11   10   11 1  
    12   10   15 1  
    13   11   12 1  
    14   12   13 1  
    15   13   14 1  
    16   13   16 1  
    17   14   15 1  
    18   16   17 1  
    19   17   18 ar 
    20   17   26 ar 
    21   18   19 ar 
    22   19   20 ar 
    23   19   24 ar 
    24   20   21 ar 
    25   21   22 ar 
    26   22   23 ar 
    27   23   24 ar 
    28   24   25 ar 
    29   25   26 ar 
    30   25   27 1  
    31   27   28 1  
    32   28   29 ar 
    33   28   34 ar 
    34   29   30 ar 
    35   30   31 1  
    36   30   32 ar 
    37   32   33 ar 
    38   33   34 ar 
    39    4   35 1  
    40    4   36 1  
    41    4   37 1  
    42    5   38 1  
    43    9   39 1  
    44   10   40 1  
    45   11   41 1  
    46   11   42 1  
    47   12   43 1  
    48   12   44 1  
    49   13   45 1  
    50   14   46 1  
    51   14   47 1  
    52   15   48 1  
    53   15   49 1  
    54   16   50 1  
    55   16   51 1  
    56   20   52 1  
    57   21   53 1  
    58   22   54 1  
    59   23   55 1  
    60   26   56 1  
    61   29   57 1  
    62   32   58 1  
    63   33   59 1  
    64   34   60 1  
@<TRIPOS>SUBSTRUCTURE
     1 YUI         1

