### 
### Created by X-TOOL on Wed Jan  1 15:39:38 2020
### 

@<TRIPOS>MOLECULE
5nr8_ligand
   47    49     1     0     0
SMALL
GAST_HUCK


@<TRIPOS>ATOM
      1 BR7        90.2600   38.5450   21.9140 Br        1 95N        -0.0561
      2 C2         91.1970   36.9630   22.2780 C.ar      1 95N         0.0056
      3 C1         92.3270   36.6410   21.5490 C.ar      1 95N        -0.0590
      4 C6         93.0310   35.4830   21.8180 C.ar      1 95N        -0.0573
      5 C5         92.6260   34.6330   22.8360 C.ar      1 95N        -0.0351
      6 C4         91.4720   34.9480   23.5310 C.ar      1 95N        -0.0573
      7 C3         90.7650   36.1060   23.2660 C.ar      1 95N        -0.0590
      8 C8         93.3670   33.3440   23.1360 C.3       1 95N         0.0226
      9 C9         94.8150   33.6190   23.5720 C.3       1 95N        -0.0219
     10 N10        95.5550   32.4100   24.0220 N.4       1 95N         0.2368
     11 C23        95.0700   32.0160   25.3650 C.3       1 95N        -0.0427
     12 C11        95.4870   31.2660   23.0610 C.3       1 95N        -0.0172
     13 C12        96.2360   30.0230   23.5810 C.3       1 95N         0.0107
     14 C13        96.0890   28.8750   22.5870 C.3       1 95N         0.0382
     15 N14        96.6040   29.2930   21.2970 N.pl3     1 95N        -0.2689
     16 C15        95.9700   30.4880   20.7590 C.3       1 95N         0.0382
     17 C16        96.0980   31.6600   21.7180 C.3       1 95N         0.0107
     18 C17        96.6600   28.2680   20.3740 C.2       1 95N         0.2150
     19 N18        96.1520   27.0510   20.5980 N.2       1 95N        -0.2963
     20 N19        96.4980   26.3090   19.4570 N.2       1 95N        -0.2966
     21 C20        97.2110   27.1560   18.6950 C.2       1 95N         0.2099
     22 N21        97.3570   28.3720   19.2340 N.pl3     1 95N        -0.1950
     23 N22        97.7590   26.7850   17.5040 N.pl3     1 95N        -0.2970
     24 H1         92.6635   37.3030   20.7594 H         1 95N         0.0626
     25 H2         93.9069   35.2370   21.2286 H         1 95N         0.0564
     26 H3         91.1146   34.2724   24.2997 H         1 95N         0.0564
     27 H4         89.8722   36.3392   23.8348 H         1 95N         0.0626
     28 H5         93.3782   32.7185   22.2312 H         1 95N         0.0484
     29 H6         92.8450   32.8106   23.9441 H         1 95N         0.0484
     30 H7         94.7944   34.3401   24.4024 H         1 95N         0.0839
     31 H8         95.3550   34.0568   22.7195 H         1 95N         0.0839
     32 H9         96.5264   32.6655   24.1063 H         1 95N         0.2035
     33 H10        95.6139   31.1218   25.7035 H         1 95N         0.0778
     34 H11        93.9938   31.7937   25.3156 H         1 95N         0.0778
     35 H12        95.2422   32.8398   26.0733 H         1 95N         0.0778
     36 H13        94.4292   31.0039   22.9115 H         1 95N         0.0852
     37 H14        95.8137   29.7219   24.5510 H         1 95N         0.0339
     38 H15        97.3021   30.2645   23.7042 H         1 95N         0.0339
     39 H16        95.0268   28.6062   22.4896 H         1 95N         0.0523
     40 H17        96.6565   28.0033   22.9449 H         1 95N         0.0523
     41 H18        94.9035   30.2811   20.5864 H         1 95N         0.0523
     42 H19        96.4516   30.7509   19.8056 H         1 95N         0.0523
     43 H20        97.1601   31.9116   21.8546 H         1 95N         0.0339
     44 H21        95.5643   32.5312   21.3104 H         1 95N         0.0339
     45 H22        97.8743   29.1830   18.8658 H         1 95N         0.2418
     46 H23        97.6093   25.8321   17.1428 H         1 95N         0.1802
     47 H24        98.3230   27.4574   16.9649 H         1 95N         0.1802
@<TRIPOS>BOND
     1    1    2 1  
     2    2    3 ar 
     3    2    7 ar 
     4    3    4 ar 
     5    4    5 ar 
     6    5    6 ar 
     7    5    8 1  
     8    6    7 ar 
     9    8    9 1  
    10    9   10 1  
    11   10   11 1  
    12   10   12 1  
    13   12   13 1  
    14   12   17 1  
    15   13   14 1  
    16   14   15 1  
    17   15   16 1  
    18   15   18 1  
    19   16   17 1  
    20   18   19 2  
    21   18   22 1  
    22   19   20 1  
    23   20   21 2  
    24   21   22 1  
    25   21   23 1  
    26    3   24 1  
    27    4   25 1  
    28    6   26 1  
    29    7   27 1  
    30    8   28 1  
    31    8   29 1  
    32    9   30 1  
    33    9   31 1  
    34   10   32 1  
    35   11   33 1  
    36   11   34 1  
    37   11   35 1  
    38   12   36 1  
    39   13   37 1  
    40   13   38 1  
    41   14   39 1  
    42   14   40 1  
    43   16   41 1  
    44   16   42 1  
    45   17   43 1  
    46   17   44 1  
    47   22   45 1  
    48   23   46 1  
    49   23   47 1  
@<TRIPOS>SUBSTRUCTURE
     1 95N         1

