### 
### Created by X-TOOL on Wed Jan  1 15:39:34 2020
### 

@<TRIPOS>MOLECULE
5nra_ligand
   56    58     1     0     0
SMALL
GAST_HUCK


@<TRIPOS>ATOM
      1 BR7        89.7760   38.3680   21.9620 Br        1 95K        -0.0561
      2 C2         90.7210   36.7200   22.3200 C.ar      1 95K         0.0056
      3 C3         91.8710   36.4440   21.5210 C.ar      1 95K        -0.0590
      4 C4         92.5680   35.2800   21.7500 C.ar      1 95K        -0.0573
      5 C5         92.1430   34.4070   22.7520 C.ar      1 95K        -0.0351
      6 C6         90.9970   34.6880   23.5580 C.ar      1 95K        -0.0573
      7 C1         90.2930   35.8600   23.3320 C.ar      1 95K        -0.0590
      8 C8         92.9130   33.1340   23.0050 C.3       1 95K         0.0226
      9 C9         94.3670   33.3640   23.5060 C.3       1 95K        -0.0216
     10 N10        95.0140   32.1450   24.0770 N.4       1 95K         0.2391
     11 C23        94.2600   31.7280   25.2300 C.3       1 95K        -0.0291
     12 C24        94.0930   32.7210   26.3880 C.3       1 95K        -0.0064
     13 C26        93.0950   32.2230   27.4090 C.3       1 95K        -0.0578
     14 C25        95.4650   32.9080   27.0410 C.3       1 95K        -0.0578
     15 C11        95.0240   31.0370   23.0850 C.3       1 95K        -0.0170
     16 C16        95.6560   31.4460   21.8050 C.3       1 95K         0.0107
     17 C15        95.5420   30.3280   20.7950 C.3       1 95K         0.0382
     18 N14        96.1330   29.1110   21.3260 N.pl3     1 95K        -0.2689
     19 C13        95.6370   28.7100   22.6300 C.3       1 95K         0.0382
     20 C12        95.7070   29.8340   23.6310 C.3       1 95K         0.0107
     21 C17        96.2420   28.0910   20.3930 C.2       1 95K         0.2150
     22 N21        96.8700   28.2200   19.1960 N.pl3     1 95K        -0.1950
     23 C20        96.7580   27.0040   18.6110 C.2       1 95K         0.2099
     24 N22        97.3090   26.6890   17.3200 N.pl3     1 95K        -0.2970
     25 N19        96.0900   26.1820   19.4250 N.2       1 95K        -0.2966
     26 N18        95.7700   26.8550   20.5270 N.2       1 95K        -0.2963
     27 H1         92.1886   37.1367   20.7501 H         1 95K         0.0626
     28 H2         93.4426   35.0425   21.1552 H         1 95K         0.0564
     29 H3         90.6840   33.9969   24.3322 H         1 95K         0.0564
     30 H4         89.4238   36.1047   23.9317 H         1 95K         0.0626
     31 H5         92.9570   32.5637   22.0655 H         1 95K         0.0484
     32 H6         92.3739   32.5486   23.7644 H         1 95K         0.0484
     33 H7         94.3456   34.1408   24.2846 H         1 95K         0.0839
     34 H8         94.9741   33.7121   22.6573 H         1 95K         0.0839
     35 H9         95.9608   32.3618   24.3463 H         1 95K         0.2038
     36 H10        94.7547   30.8337   25.6367 H         1 95K         0.0817
     37 H11        93.2513   31.4623   24.8809 H         1 95K         0.0817
     38 H12        93.7409   33.6844   25.9907 H         1 95K         0.0347
     39 H13        93.0027   32.9594   28.2210 H         1 95K         0.0234
     40 H14        93.4403   31.2636   27.8216 H         1 95K         0.0234
     41 H15        92.1160   32.0839   26.9272 H         1 95K         0.0234
     42 H16        96.1823   33.2701   26.2898 H         1 95K         0.0234
     43 H17        95.8125   31.9461   27.4460 H         1 95K         0.0234
     44 H18        95.3861   33.6421   27.8563 H         1 95K         0.0234
     45 H19        93.9784   30.7682   22.8744 H         1 95K         0.0852
     46 H20        96.7181   31.6735   21.9789 H         1 95K         0.0339
     47 H21        95.1480   32.3412   21.4170 H         1 95K         0.0339
     48 H22        96.0688   30.6157   19.8732 H         1 95K         0.0523
     49 H23        94.4804   30.1483   20.5698 H         1 95K         0.0523
     50 H24        96.2435   27.8691   22.9974 H         1 95K         0.0523
     51 H25        94.5896   28.3898   22.5284 H         1 95K         0.0523
     52 H26        95.2119   29.5243   24.5632 H         1 95K         0.0339
     53 H27        96.7604   30.0741   23.8375 H         1 95K         0.0339
     54 H28        97.3308   29.0592   18.8161 H         1 95K         0.2418
     55 H29        97.1911   25.7445   16.9263 H         1 95K         0.1802
     56 H30        97.8214   27.4079   16.7894 H         1 95K         0.1802
@<TRIPOS>BOND
     1    1    2 1  
     2    2    3 ar 
     3    2    7 ar 
     4    3    4 ar 
     5    4    5 ar 
     6    5    6 ar 
     7    5    8 1  
     8    6    7 ar 
     9    8    9 1  
    10    9   10 1  
    11   10   11 1  
    12   10   15 1  
    13   11   12 1  
    14   12   13 1  
    15   12   14 1  
    16   15   16 1  
    17   15   20 1  
    18   16   17 1  
    19   17   18 1  
    20   18   19 1  
    21   18   21 1  
    22   19   20 1  
    23   21   22 1  
    24   21   26 2  
    25   22   23 1  
    26   23   24 1  
    27   23   25 2  
    28   25   26 1  
    29    3   27 1  
    30    4   28 1  
    31    6   29 1  
    32    7   30 1  
    33    8   31 1  
    34    8   32 1  
    35    9   33 1  
    36    9   34 1  
    37   10   35 1  
    38   11   36 1  
    39   11   37 1  
    40   12   38 1  
    41   13   39 1  
    42   13   40 1  
    43   13   41 1  
    44   14   42 1  
    45   14   43 1  
    46   14   44 1  
    47   15   45 1  
    48   16   46 1  
    49   16   47 1  
    50   17   48 1  
    51   17   49 1  
    52   19   50 1  
    53   19   51 1  
    54   20   52 1  
    55   20   53 1  
    56   22   54 1  
    57   24   55 1  
    58   24   56 1  
@<TRIPOS>SUBSTRUCTURE
     1 95K         1

