### 
### Created by X-TOOL on Wed Jan  1 15:39:34 2020
### 

@<TRIPOS>MOLECULE
5nrf_ligand
   57    60     1     0     0
SMALL
GAST_HUCK


@<TRIPOS>ATOM
      1 CL7        90.0420   38.3900   22.1410 Cl        1 95Q        -0.0771
      2 C2         90.9490   36.8780   22.3970 C.ar      1 95Q         0.0330
      3 C1         90.5200   35.9740   23.3570 C.ar      1 95Q        -0.0546
      4 C6         91.2290   34.7950   23.5510 C.ar      1 95Q        -0.0595
      5 C5         92.3670   34.5130   22.8000 C.ar      1 95Q        -0.0377
      6 C4         92.7870   35.4200   21.8320 C.ar      1 95Q        -0.0595
      7 C3         92.0810   36.6030   21.6360 C.ar      1 95Q        -0.0546
      8 C8         93.1180   33.2180   23.0350 C.3       1 95Q         0.0214
      9 C9         94.5520   33.4820   23.5040 C.3       1 95Q        -0.0206
     10 N10        95.2210   32.2600   24.0140 N.4       1 95Q         0.2508
     11 C23        94.5430   31.7030   25.2070 C.3       1 95Q         0.0024
     12 C24        94.2590   32.7450   26.2630 C.ar      1 95Q         0.0014
     13 C25        95.2490   33.0600   27.1820 C.ar      1 95Q        -0.0553
     14 C26        94.9870   34.0160   28.1620 C.ar      1 95Q        -0.0684
     15 C27        93.6790   34.4270   28.3810 C.ar      1 95Q        -0.0687
     16 C28        92.6500   33.8590   27.6370 C.ar      1 95Q        -0.0684
     17 C29        92.9430   32.9140   26.6690 C.ar      1 95Q        -0.0553
     18 C11        95.1970   31.1940   22.9940 C.3       1 95Q        -0.0156
     19 C12        95.9160   31.6000   21.7110 C.3       1 95Q         0.0107
     20 C13        95.7880   30.4550   20.7100 C.3       1 95Q         0.0382
     21 N14        96.4170   29.2460   21.2810 N.pl3     1 95Q        -0.2689
     22 C15        95.7450   28.7960   22.5160 C.3       1 95Q         0.0382
     23 C16        95.8400   29.9210   23.5440 C.3       1 95Q         0.0107
     24 C17        96.5110   28.1860   20.3030 C.2       1 95Q         0.2150
     25 N18        95.9940   26.9570   20.5030 N.2       1 95Q        -0.2963
     26 N19        96.3430   26.2590   19.3410 N.2       1 95Q        -0.2966
     27 C20        97.0410   27.1440   18.6010 C.2       1 95Q         0.2099
     28 N21        97.1740   28.3710   19.1440 N.pl3     1 95Q        -0.1950
     29 N22        97.5640   26.8010   17.3880 N.pl3     1 95Q        -0.2970
     30 H1         89.6385   36.1855   23.9514 H         1 95Q         0.0606
     31 H2         90.8915   34.0849   24.2973 H         1 95Q         0.0557
     32 H3         93.6633   35.2053   21.2311 H         1 95Q         0.0557
     33 H4         92.4141   37.3130   20.8877 H         1 95Q         0.0606
     34 H5         93.1480   32.6460   22.0959 H         1 95Q         0.0479
     35 H6         92.5918   32.6333   23.8039 H         1 95Q         0.0479
     36 H7         94.5269   34.2314   24.3088 H         1 95Q         0.0838
     37 H8         95.1332   33.8737   22.6562 H         1 95Q         0.0838
     38 H9         96.1747   32.4891   24.2465 H         1 95Q         0.2053
     39 H10        95.1863   30.9258   25.6452 H         1 95Q         0.0980
     40 H11        93.5894   31.2547   24.8912 H         1 95Q         0.0980
     41 H12        96.2144   32.5689   27.1386 H         1 95Q         0.0558
     42 H13        95.7972   34.4348   28.7479 H         1 95Q         0.0599
     43 H14        93.4615   35.1842   29.1256 H         1 95Q         0.0559
     44 H15        91.6225   34.1553   27.8146 H         1 95Q         0.0599
     45 H16        92.1533   32.3128   26.2331 H         1 95Q         0.0558
     46 H17        94.1462   30.9810   22.7482 H         1 95Q         0.0853
     47 H18        96.9781   31.7915   21.9239 H         1 95Q         0.0339
     48 H19        95.4552   32.5092   21.2976 H         1 95Q         0.0339
     49 H20        96.2944   30.7265   19.7720 H         1 95Q         0.0523
     50 H21        94.7247   30.2578   20.5089 H         1 95Q         0.0523
     51 H22        96.2415   27.8941   22.9033 H         1 95Q         0.0523
     52 H23        94.6890   28.5715   22.3054 H         1 95Q         0.0523
     53 H24        95.3177   29.6181   24.4635 H         1 95Q         0.0339
     54 H25        96.8982   30.1173   23.7711 H         1 95Q         0.0339
     55 H26        97.6469   29.2096   18.7780 H         1 95Q         0.2418
     56 H27        97.4317   25.8477   17.0211 H         1 95Q         0.1802
     57 H28        98.0911   27.4954   16.8395 H         1 95Q         0.1802
@<TRIPOS>BOND
     1    1    2 1  
     2    2    3 ar 
     3    2    7 ar 
     4    3    4 ar 
     5    4    5 ar 
     6    5    6 ar 
     7    5    8 1  
     8    6    7 ar 
     9    8    9 1  
    10    9   10 1  
    11   10   11 1  
    12   10   18 1  
    13   11   12 1  
    14   12   13 ar 
    15   12   17 ar 
    16   13   14 ar 
    17   14   15 ar 
    18   15   16 ar 
    19   16   17 ar 
    20   18   19 1  
    21   18   23 1  
    22   19   20 1  
    23   20   21 1  
    24   21   22 1  
    25   21   24 1  
    26   22   23 1  
    27   24   25 2  
    28   24   28 1  
    29   25   26 1  
    30   26   27 2  
    31   27   28 1  
    32   27   29 1  
    33    3   30 1  
    34    4   31 1  
    35    6   32 1  
    36    7   33 1  
    37    8   34 1  
    38    8   35 1  
    39    9   36 1  
    40    9   37 1  
    41   10   38 1  
    42   11   39 1  
    43   11   40 1  
    44   13   41 1  
    45   14   42 1  
    46   15   43 1  
    47   16   44 1  
    48   17   45 1  
    49   18   46 1  
    50   19   47 1  
    51   19   48 1  
    52   20   49 1  
    53   20   50 1  
    54   22   51 1  
    55   22   52 1  
    56   23   53 1  
    57   23   54 1  
    58   28   55 1  
    59   29   56 1  
    60   29   57 1  
@<TRIPOS>SUBSTRUCTURE
     1 95Q         1

