### 
### Created by X-TOOL on Mon Sep 10 21:13:32 2018
### 

@<TRIPOS>MOLECULE
5nsp_ligand
   51    56     1     0     0
SMALL
GAST_HUCK


@<TRIPOS>ATOM
      1 C4          8.9380   -3.6920   19.3490 C.ar      1 97E         0.1202
      2 C5          9.8310   -3.9930   18.2900 C.ar      1 97E         0.0032
      3 C6         11.1870   -3.5600   18.3360 C.ar      1 97E         0.0292
      4 N1         11.7090   -2.7970   19.4200 N.ar      1 97E        -0.2642
      5 N3          9.4390   -2.9130   20.3770 N.ar      1 97E        -0.2528
      6 OBA        -0.6710   -5.5420   21.0420 O.2       1 97E        -0.3811
      7 CAZ        -0.3010   -5.9860   22.1160 C.2       1 97E         0.3425
      8 NBB        -1.1360   -6.4180   23.0280 N.am      1 97E        -0.2108
      9 CBC        -0.4210   -6.8010   24.0630 C.ar      1 97E         0.1092
     10 CBH        -0.7970   -7.3150   25.2510 C.ar      1 97E        -0.0170
     11 CBG         0.1910   -7.6340   26.1860 C.ar      1 97E         0.0675
     12 CBI        -0.1290   -8.1610   27.3920 C.1       1 97E         0.0813
     13 NBJ        -0.3560   -8.5770   28.3500 N.1       1 97E        -0.3404
     14 CBF         1.5390   -7.4050   25.8940 C.ar      1 97E        -0.0526
     15 CBE         1.8540   -6.8660   24.6450 C.ar      1 97E        -0.0344
     16 CBD         0.8830   -6.5820   23.7530 C.ar      1 97E         0.1294
     17 NAY         0.9550   -6.0710   22.5210 N.am      1 97E        -0.1463
     18 CAV         2.0710   -5.7220   21.8670 C.ar      1 97E         0.1006
     19 CAW         2.7440   -6.6660   21.0960 C.ar      1 97E        -0.0286
     20 CAX         3.9200   -6.3570   20.3970 C.ar      1 97E        -0.0549
     21 CAU         2.6040   -4.4480   21.9540 C.ar      1 97E        -0.0286
     22 CAT         3.7760   -4.1430   21.2610 C.ar      1 97E        -0.0549
     23 CAS         4.4650   -5.0760   20.4780 C.ar      1 97E         0.0249
     24 CAI         5.5950   -4.6340   19.8610 C.2       1 97E         0.1693
     25 NAJ         5.5890   -4.0530   18.6620 N.2       1 97E        -0.2445
     26 NAK         6.7230   -3.7170   18.3840 N.2       1 97E        -0.2368
     27 CAL         7.5960   -4.0280   19.3620 C.2       1 97E         0.2012
     28 C2         10.8060   -2.4870   20.4530 C.ar      1 97E         0.0884
     29 NAH         6.8640   -4.5890   20.3540 N.pl3     1 97E        -0.1658
     30 CAC         7.3300   -5.0910   21.5110 C.ar      1 97E         0.1167
     31 CAB         7.8950   -6.3870   21.4850 C.ar      1 97E         0.0742
     32 CLA         7.9880   -7.3170   19.9700 Cl        1 97E        -0.0742
     33 CAG         8.4010   -6.9750   22.6500 C.ar      1 97E        -0.0520
     34 CAF         8.3410   -6.2770   23.8500 C.ar      1 97E        -0.0683
     35 CAE         7.7870   -4.9910   23.8850 C.ar      1 97E        -0.0659
     36 CAD         7.2770   -4.3950   22.7230 C.ar      1 97E        -0.0264
     37 H1          9.4778   -4.5591   17.4357 H         1 97E         0.0796
     38 H2         11.8463   -3.8206   17.5159 H         1 97E         0.0931
     39 H3         -2.1325   -6.4505   22.9514 H         1 97E         0.2259
     40 H4         -1.8448   -7.4776   25.4764 H         1 97E         0.0556
     41 H5          2.3148   -7.6384   26.6142 H         1 97E         0.0562
     42 H6          2.8898   -6.6738   24.3896 H         1 97E         0.0513
     43 H7          2.3461   -7.6724   21.0340 H         1 97E         0.0544
     44 H8          4.4058   -7.1148   19.7931 H         1 97E         0.0624
     45 H9          2.1142   -3.6918   22.5567 H         1 97E         0.0544
     46 H10         4.1713   -3.1362   21.3325 H         1 97E         0.0624
     47 H11        11.1462   -1.9217   21.3131 H         1 97E         0.1129
     48 H12         8.8363   -7.9672   22.6164 H         1 97E         0.0605
     49 H13         8.7229   -6.7277   24.7589 H         1 97E         0.0557
     50 H14         7.7521   -4.4492   24.8233 H         1 97E         0.0601
     51 H15         6.8447   -3.4018   22.7636 H         1 97E         0.0583
@<TRIPOS>BOND
     1    1    2 ar 
     2    1    5 ar 
     3   27    1 1  
     4    2    3 ar 
     5    3    4 ar 
     6   28    4 ar 
     7    5   28 ar 
     8    7    6 2  
     9    7    8 am 
    10   17    7 am 
    11    9    8 1  
    12    9   10 ar 
    13   16    9 ar 
    14   10   11 ar 
    15   11   12 1  
    16   14   11 ar 
    17   12   13 3  
    18   15   14 ar 
    19   16   15 ar 
    20   17   16 1  
    21   18   17 1  
    22   19   18 ar 
    23   21   18 ar 
    24   20   19 ar 
    25   23   20 ar 
    26   22   21 ar 
    27   23   22 ar 
    28   24   23 1  
    29   25   24 2  
    30   24   29 1  
    31   26   25 1  
    32   26   27 2  
    33   27   29 1  
    34   29   30 1  
    35   30   31 ar 
    36   30   36 ar 
    37   31   32 1  
    38   31   33 ar 
    39   33   34 ar 
    40   34   35 ar 
    41   35   36 ar 
    42    2   37 1  
    43    3   38 1  
    44    8   39 1  
    45   10   40 1  
    46   14   41 1  
    47   15   42 1  
    48   19   43 1  
    49   20   44 1  
    50   21   45 1  
    51   22   46 1  
    52   28   47 1  
    53   33   48 1  
    54   34   49 1  
    55   35   50 1  
    56   36   51 1  
@<TRIPOS>SUBSTRUCTURE
     1 97E         1

