### 
### Created by X-TOOL on Wed Jan  1 15:39:35 2020
### 

@<TRIPOS>MOLECULE
5nsx_ligand
   30    33     1     0     0
SMALL
GAST_HUCK


@<TRIPOS>ATOM
      1 CAT         6.1140   36.7380    9.6480 C.ar      1 97K        -0.0395
      2 CAS         6.0830   37.1840    8.3550 C.ar      1 97K         0.0192
      3 CAR         5.6580   36.6340    7.2180 C.2       1 97K         0.0248
      4 NAQ         5.8430   37.5190    6.2190 N.2       1 97K        -0.2033
      5 NAP         6.3750   38.5400    6.6720 N.pl3     1 97K        -0.2093
      6 CAO         6.5580   38.3900    7.9870 C.ar      1 97K         0.0945
      7 CAN         7.0740   39.2200    8.8740 C.ar      1 97K        -0.0281
      8 CAM         7.1540   38.8340   10.2210 C.ar      1 97K        -0.0488
      9 CAL         6.7060   37.5630   10.6300 C.ar      1 97K         0.0365
     10 CAD         6.7340   37.2440   12.0210 C.2       1 97K         0.1546
     11 NAE         5.9090   36.3200   12.5030 N.2       1 97K        -0.3011
     12 CAF         5.8540   36.0310   13.8240 C.ar      1 97K         0.0198
     13 CAG         4.9990   35.0340   14.2200 C.ar      1 97K        -0.0511
     14 CAH         4.8710   34.7260   15.5790 C.ar      1 97K        -0.0649
     15 CAI         5.6260   35.4570   16.5180 C.ar      1 97K        -0.0639
     16 CAJ         6.5240   36.4600   16.1150 C.ar      1 97K        -0.0487
     17 CAK         6.6110   36.7610   14.7570 C.ar      1 97K         0.0621
     18 CAB         7.4710   37.7390   14.2580 C.2       1 97K         0.2339
     19 OAA         8.2300   38.3780   14.9470 O.2       1 97K        -0.3863
     20 NAC         7.4990   37.9880   12.8980 N.am      1 97K        -0.2010
     21 H1          5.6942   35.7743    9.9127 H         1 97K         0.0688
     22 H2          5.2327   35.6369    7.1138 H         1 97K         0.0727
     23 H3          6.6351   39.3721    6.1235 H         1 97K         0.2474
     24 H4          7.4340   40.1943    8.5639 H         1 97K         0.0577
     25 H5          7.5642   39.5202   10.9530 H         1 97K         0.0637
     26 H6          4.4241   34.4862   13.4821 H         1 97K         0.0568
     27 H7          4.2018   33.9377   15.9043 H         1 97K         0.0631
     28 H8          5.5116   35.2409   17.5741 H         1 97K         0.0565
     29 H9          7.1331   36.9858   16.8414 H         1 97K         0.0647
     30 H10         8.0826   38.7186   12.5437 H         1 97K         0.2491
@<TRIPOS>BOND
     1    1    2 ar 
     2    1    9 ar 
     3    2    3 1  
     4    2    6 ar 
     5    3    4 2  
     6    4    5 1  
     7    5    6 1  
     8    6    7 ar 
     9    7    8 ar 
    10    8    9 ar 
    11    9   10 1  
    12   10   11 2  
    13   10   20 1  
    14   11   12 1  
    15   12   13 ar 
    16   12   17 ar 
    17   13   14 ar 
    18   14   15 ar 
    19   15   16 ar 
    20   16   17 ar 
    21   17   18 1  
    22   18   19 2  
    23   18   20 am 
    24    1   21 1  
    25    3   22 1  
    26    5   23 1  
    27    7   24 1  
    28    8   25 1  
    29   13   26 1  
    30   14   27 1  
    31   15   28 1  
    32   16   29 1  
    33   20   30 1  
@<TRIPOS>SUBSTRUCTURE
     1 97K         1

