### 
### Created by X-TOOL on Wed Jan  1 15:39:35 2020
### 

@<TRIPOS>MOLECULE
5nt0_ligand
   29    31     1     0     0
SMALL
GAST_HUCK


@<TRIPOS>ATOM
      1 CAG        -6.1780  -36.7760    9.5510 C.ar      1 97H        -0.0234
      2 CAB        -6.2170  -37.2380    8.2280 C.ar      1 97H         0.0428
      3 NAA        -5.6850  -36.4920    7.2650 N.pl3     1 97H        -0.3359
      4 CAC        -6.8000  -38.4520    7.9080 C.ar      1 97H        -0.0381
      5 CAD        -7.3540  -39.2290    8.9050 C.ar      1 97H        -0.0655
      6 CAE        -7.3030  -38.7860   10.2240 C.ar      1 97H        -0.0531
      7 CAF        -6.7580  -37.5450   10.5600 C.ar      1 97H         0.0339
      8 CAH        -6.7000  -37.1910   11.9150 C.2       1 97H         0.1583
      9 NAI        -5.9070  -36.2110   12.3690 N.2       1 97H        -0.2961
     10 CAJ        -5.8250  -35.9300   13.6900 C.ar      1 97H         0.0229
     11 CAO        -4.9950  -34.9040   14.1090 C.ar      1 97H        -0.0500
     12 CAN        -4.8830  -34.6120   15.4720 C.ar      1 97H        -0.0643
     13 CAM        -5.5980  -35.3580   16.4170 C.ar      1 97H        -0.0633
     14 CAL        -6.4220  -36.4000   15.9890 C.ar      1 97H        -0.0480
     15 CAK        -6.5150  -36.6820   14.6360 C.ar      1 97H         0.0632
     16 CAP        -7.3500  -37.7030   14.1780 C.2       1 97H         0.2345
     17 OAQ        -8.0410  -38.3670   14.9410 O.2       1 97H        -0.3861
     18 NAR        -7.4280  -37.9420   12.8190 N.am      1 97H        -0.1998
     19 H1         -5.7022  -35.8311    9.7874 H         1 97H         0.0579
     20 H2         -5.7067  -36.8193    6.2886 H         1 97H         0.1718
     21 H3         -5.2511  -35.5867    7.4952 H         1 97H         0.1718
     22 H4         -6.8213  -38.7910    6.8786 H         1 97H         0.0570
     23 H5         -7.8244  -40.1753    8.6635 H         1 97H         0.0601
     24 H6         -7.6963  -39.4205   11.0100 H         1 97H         0.0577
     25 H7         -4.4333  -34.3284   13.3822 H         1 97H         0.0573
     26 H8         -4.2390  -33.8036   15.7988 H         1 97H         0.0632
     27 H9         -5.5122  -35.1280   17.4728 H         1 97H         0.0570
     28 H10        -6.9843  -36.9835   16.7090 H         1 97H         0.0648
     29 H11        -8.0226  -38.6724   12.4830 H         1 97H         0.2496
@<TRIPOS>BOND
     1    1    2 ar 
     2    1    7 ar 
     3    2    3 1  
     4    2    4 ar 
     5    4    5 ar 
     6    5    6 ar 
     7    6    7 ar 
     8    7    8 1  
     9    8    9 2  
    10    8   18 1  
    11    9   10 1  
    12   10   11 ar 
    13   10   15 ar 
    14   11   12 ar 
    15   12   13 ar 
    16   13   14 ar 
    17   14   15 ar 
    18   15   16 1  
    19   16   17 2  
    20   16   18 am 
    21    1   19 1  
    22    3   20 1  
    23    3   21 1  
    24    4   22 1  
    25    5   23 1  
    26    6   24 1  
    27   11   25 1  
    28   12   26 1  
    29   13   27 1  
    30   14   28 1  
    31   18   29 1  
@<TRIPOS>SUBSTRUCTURE
     1 97H         1

