### 
### Created by X-TOOL on Wed Jan  1 15:39:35 2020
### 

@<TRIPOS>MOLECULE
5nt4_ligand
   40    43     1     0     0
SMALL
GAST_HUCK


@<TRIPOS>ATOM
      1 CAS        -6.3410  -40.1090    6.2740 C.3       1 97Z         0.0522
      2 CAT        -5.6790  -40.3600    4.9290 C.3       1 97Z         0.0677
      3 OAU        -6.3470  -39.5310    3.9880 O.3       1 97Z        -0.3758
      4 CAV        -6.1360  -38.1170    4.2520 C.3       1 97Z         0.0677
      5 CAW        -6.9260  -37.7390    5.5170 C.3       1 97Z         0.0522
      6 NAR        -6.5730  -38.6770    6.6150 N.pl3     1 97Z        -0.2994
      7 CAO        -6.6190  -38.2920    7.8990 C.ar      1 97Z         0.0498
      8 CAP        -6.0850  -37.0720    8.3530 C.ar      1 97Z        -0.0345
      9 CAQ        -6.1700  -36.6990    9.6990 C.ar      1 97Z        -0.0503
     10 CAN        -7.1920  -39.1430    8.8400 C.ar      1 97Z        -0.0345
     11 CAM        -7.2690  -38.7790   10.1690 C.ar      1 97Z        -0.0503
     12 CAL        -6.7970  -37.5460   10.6370 C.ar      1 97Z         0.0332
     13 CAD        -6.8140  -37.2430   12.0040 C.2       1 97Z         0.1516
     14 NAE        -5.9880  -36.2960   12.4700 N.2       1 97Z        -0.3034
     15 CAF        -5.9170  -36.0060   13.7700 C.ar      1 97Z         0.0186
     16 CAK        -5.0460  -34.9950   14.1770 C.ar      1 97Z        -0.0515
     17 CAJ        -4.9370  -34.6530   15.5220 C.ar      1 97Z        -0.0652
     18 CAI        -5.6630  -35.3610   16.4760 C.ar      1 97Z        -0.0641
     19 CAH        -6.5480  -36.3850   16.0620 C.ar      1 97Z        -0.0489
     20 CAG        -6.6760  -36.7030   14.7340 C.ar      1 97Z         0.0616
     21 CAB        -7.5610  -37.7020   14.2600 C.2       1 97Z         0.2335
     22 OAA        -8.3400  -38.3170   14.9730 O.2       1 97Z        -0.3864
     23 NAC        -7.6030  -37.9430   12.9130 N.am      1 97Z        -0.2018
     24 H1         -5.6994  -40.5440    7.0545 H         1 97Z         0.0541
     25 H2         -7.3152  -40.6198    6.2733 H         1 97Z         0.0541
     26 H3         -5.7843  -41.4176    4.6454 H         1 97Z         0.0580
     27 H4         -4.6118  -40.0974    4.9761 H         1 97Z         0.0580
     28 H5         -6.4932  -37.5219    3.3987 H         1 97Z         0.0580
     29 H6         -5.0648  -37.9240    4.4109 H         1 97Z         0.0580
     30 H7         -8.0044  -37.8046    5.3102 H         1 97Z         0.0541
     31 H8         -6.6718  -36.7113    5.8157 H         1 97Z         0.0541
     32 H9         -5.5987  -36.4087    7.6469 H         1 97Z         0.0542
     33 H10        -5.7514  -35.7531   10.0231 H         1 97Z         0.0659
     34 H11        -7.5827  -40.1038    8.5248 H         1 97Z         0.0542
     35 H12        -7.7105  -39.4721   10.8760 H         1 97Z         0.0659
     36 H13        -4.4489  -34.4712   13.4394 H         1 97Z         0.0566
     37 H14        -4.2893  -33.8385   15.8255 H         1 97Z         0.0630
     38 H15        -5.5512  -35.1294   17.5291 H         1 97Z         0.0563
     39 H16        -7.1301  -36.9230   16.8015 H         1 97Z         0.0646
     40 H17        -8.2234  -38.6479   12.5692 H         1 97Z         0.2486
@<TRIPOS>BOND
     1    1    2 1  
     2    1    6 1  
     3    2    3 1  
     4    3    4 1  
     5    4    5 1  
     6    5    6 1  
     7    6    7 1  
     8    7    8 ar 
     9    7   10 ar 
    10    8    9 ar 
    11    9   12 ar 
    12   10   11 ar 
    13   11   12 ar 
    14   12   13 1  
    15   13   14 2  
    16   13   23 1  
    17   14   15 1  
    18   15   16 ar 
    19   15   20 ar 
    20   16   17 ar 
    21   17   18 ar 
    22   18   19 ar 
    23   19   20 ar 
    24   20   21 1  
    25   21   22 2  
    26   21   23 am 
    27    1   24 1  
    28    1   25 1  
    29    2   26 1  
    30    2   27 1  
    31    4   28 1  
    32    4   29 1  
    33    5   30 1  
    34    5   31 1  
    35    8   32 1  
    36    9   33 1  
    37   10   34 1  
    38   11   35 1  
    39   16   36 1  
    40   17   37 1  
    41   18   38 1  
    42   19   39 1  
    43   23   40 1  
@<TRIPOS>SUBSTRUCTURE
     1 97Z         1

