### 
### Created by X-TOOL on Mon Sep 10 21:13:34 2018
### 

@<TRIPOS>MOLECULE
5ntk_ligand
  103   108     1     0     0
SMALL
GAST_HUCK


@<TRIPOS>ATOM
      1 O2         10.8290    9.2150   16.9160 O.co2     1 99N        -0.4611
      2 O3         11.5430    7.1130   15.8520 O.co2     1 99N        -0.4611
      3 C41        15.7760    6.9690   26.0900 C.3       1 99N        -0.0590
      4 C42        15.7340    5.1130   21.7830 C.3       1 99N         0.0232
      5 C43        14.5850    5.1560   20.8010 C.2       1 99N        -0.0129
      6 C44        13.6670    6.1410   20.7180 C.2       1 99N        -0.0645
      7 C45        12.5660    6.0420   19.6640 C.3       1 99N         0.0004
      8 C46        12.5090    7.2540   22.6840 C.3       1 99N        -0.1044
      9 C11        16.9100    6.3280   23.7860 C.3       1 99N        -0.0290
     10 C12        16.8180    7.3480   24.9710 C.3       1 99N        -0.0256
     11 C13        18.2890    7.2580   25.5220 C.3       1 99N        -0.0326
     12 C14        18.6280    5.7280   25.3710 C.3       1 99N        -0.0492
     13 C15        17.5880    5.0900   24.4100 C.3       1 99N        -0.0489
     14 C16        18.7080    7.8610   26.9330 C.3       1 99N        -0.0385
     15 C17        20.2540    7.7330   27.1770 C.3       1 99N        -0.0332
     16 C18        21.1410    8.4180   26.0930 C.3       1 99N         0.0376
     17 C19        22.5100    8.8680   26.5340 C.2       1 99N         0.1776
     18 C22        24.1450    9.2170   28.3320 C.3       1 99N         0.0595
     19 C23        25.0290    7.9720   28.4920 C.ar      1 99N        -0.0317
     20 C24        25.4120    7.2280   27.3620 C.ar      1 99N        -0.0668
     21 C25        26.2130    6.0880   27.5030 C.ar      1 99N        -0.0395
     22 C26        26.6390    5.6710   28.7750 C.ar      1 99N         0.0843
     23 C27        26.2510    6.4140   29.9040 C.ar      1 99N        -0.0395
     24 C28        25.4510    7.5570   29.7650 C.ar      1 99N        -0.0668
     25 C30        28.5500    4.4340   29.8430 C.3       1 99N         0.1086
     26 S1         10.7180    7.7630   16.8500 S.o2      1 99N        -0.0733
     27 O4         10.9950    7.1620   18.2210 O.3       1 99N        -0.2606
     28 C5         12.2610    7.3560   18.8850 C.3       1 99N         0.0911
     29 C6         12.2350    8.5890   19.8330 C.3       1 99N        -0.0350
     30 C7         13.4890    8.6360   20.7460 C.3       1 99N        -0.0900
     31 C8         13.6880    7.3670   21.6480 C.3       1 99N        -0.0669
     32 C9         15.0770    7.5010   22.3940 C.3       1 99N        -0.0730
     33 C10        15.5870    6.1270   22.9610 C.3       1 99N        -0.0217
     34 O20        23.2840    9.2730   25.6810 O.2       1 99N        -0.3969
     35 N21        22.8250    8.8030   27.8510 N.am      1 99N        -0.2773
     36 O29        27.4350    4.5290   28.9370 O.3       1 99N        -0.3172
     37 C31        28.9200    2.9310   29.9300 C.3       1 99N        -0.0035
     38 N32        30.1710    2.5420   29.2230 N.4       1 99N         0.2404
     39 C33        30.3290    3.0710   27.8390 C.3       1 99N        -0.0077
     40 C34        31.7170    2.6790   27.2710 C.3       1 99N         0.0878
     41 O35        31.8770    1.2480   27.3300 O.3       1 99N        -0.3693
     42 C36        31.7940    0.7230   28.6710 C.3       1 99N         0.0878
     43 C37        30.4240    1.0770   29.3050 C.3       1 99N        -0.0077
     44 C38        18.2900    9.3500   27.1680 C.3       1 99N        -0.0620
     45 C39        16.4490    8.7140   24.2950 C.3       1 99N        -0.0480
     46 C40        15.1350    8.6600   23.4610 C.3       1 99N        -0.0615
     47 O47         9.2780    7.4370   16.5570 O.co2     1 99N        -0.4611
     48 H1         14.7572    7.0393   25.6812 H         1 99N         0.0235
     49 H2         15.8796    7.6624   26.9376 H         1 99N         0.0235
     50 H3         15.9635    5.9406   26.4325 H         1 99N         0.0235
     51 H4         16.6635    5.3418   21.2411 H         1 99N         0.0680
     52 H5         15.7948    4.0982   22.2031 H         1 99N         0.0680
     53 H6         14.4909    4.3244   20.1042 H         1 99N         0.1467
     54 H7         11.6414    5.7254   20.1689 H         1 99N         0.0429
     55 H8         12.8651    5.2766   18.9328 H         1 99N         0.0429
     56 H9         11.5547    7.1619   22.1448 H         1 99N         0.0068
     57 H10        12.4880    8.1546   23.3153 H         1 99N         0.0068
     58 H11        12.6601    6.3665   23.3161 H         1 99N         0.0068
     59 H12        17.6240    6.7409   23.0582 H         1 99N         0.0312
     60 H13        18.9123    7.8105   24.8035 H         1 99N         0.0309
     61 H14        18.5763    5.2369   26.3539 H         1 99N         0.0268
     62 H15        19.6396    5.6105   24.9552 H         1 99N         0.0268
     63 H16        18.0805    4.4763   23.6414 H         1 99N         0.0268
     64 H17        16.8621    4.4743   24.9613 H         1 99N         0.0268
     65 H18        18.1955    7.2569   27.6962 H         1 99N         0.0302
     66 H19        20.5098    6.6635   27.2039 H         1 99N         0.0292
     67 H20        20.4868    8.1903   28.1500 H         1 99N         0.0292
     68 H21        20.5994    9.3030   25.7276 H         1 99N         0.0502
     69 H22        21.2735    7.7027   25.2680 H         1 99N         0.0502
     70 H23        24.6035    9.9046   27.6061 H         1 99N         0.0662
     71 H24        24.0419    9.7239   29.3028 H         1 99N         0.0662
     72 H25        25.0854    7.5386   26.3761 H         1 99N         0.0531
     73 H26        26.5062    5.5238   26.6251 H         1 99N         0.0525
     74 H27        26.5732    6.1004   30.8903 H         1 99N         0.0525
     75 H28        25.1576    8.1216   30.6426 H         1 99N         0.0531
     76 H29        28.2664    4.8135   30.8357 H         1 99N         0.0665
     77 H30        29.4023    5.0135   29.4587 H         1 99N         0.0665
     78 H31        13.0437    7.5193   18.1296 H         1 99N         0.0639
     79 H32        11.3359    8.5346   20.4644 H         1 99N         0.0280
     80 H33        12.2016    9.5054   19.2255 H         1 99N         0.0280
     81 H34        13.4024    9.5139   21.4031 H         1 99N         0.0105
     82 H35        14.3764    8.7439   20.1050 H         1 99N         0.0105
     83 H36        15.7992    7.7876   21.6153 H         1 99N         0.0147
     84 H37        14.8254    5.7326   23.6498 H         1 99N         0.0348
     85 H38        22.1459    8.4674   28.5038 H         1 99N         0.1875
     86 H39        28.0911    2.3513   29.4977 H         1 99N         0.0841
     87 H40        29.0350    2.6702   30.9924 H         1 99N         0.0841
     88 H41        30.9127    2.9750   29.7507 H         1 99N         0.2036
     89 H42        30.2402    4.1673   27.8567 H         1 99N         0.0837
     90 H43        29.5415    2.6496   27.1969 H         1 99N         0.0837
     91 H44        32.5059    3.1604   27.8675 H         1 99N         0.0613
     92 H45        31.7924    3.0129   26.2256 H         1 99N         0.0613
     93 H46        32.5992    1.1580   29.2813 H         1 99N         0.0613
     94 H47        31.9074   -0.3707   28.6400 H         1 99N         0.0613
     95 H48        29.6277    0.5420   28.7668 H         1 99N         0.0837
     96 H49        30.4240    0.7687   30.3609 H         1 99N         0.0837
     97 H50        17.2081    9.4578   27.0010 H         1 99N         0.0233
     98 H51        18.8356    9.9990   26.4672 H         1 99N         0.0233
     99 H52        18.5323    9.6402   28.2010 H         1 99N         0.0233
    100 H53        17.2731    9.0059   23.6275 H         1 99N         0.0270
    101 H54        16.3299    9.4716   25.0835 H         1 99N         0.0270
    102 H55        14.2933    8.5273   24.1567 H         1 99N         0.0256
    103 H56        15.0259    9.6182   22.9319 H         1 99N         0.0256
@<TRIPOS>BOND
     1   26    1 ar 
     2   26    2 ar 
     3   10    3 1  
     4    5    4 1  
     5    4   33 1  
     6    6    5 2  
     7    7    6 1  
     8    6   31 1  
     9   28    7 1  
    10   31    8 1  
    11    9   10 1  
    12    9   13 1  
    13   33    9 1  
    14   10   11 1  
    15   10   45 1  
    16   12   11 1  
    17   11   14 1  
    18   13   12 1  
    19   14   15 1  
    20   14   44 1  
    21   15   16 1  
    22   16   17 1  
    23   17   34 2  
    24   17   35 am 
    25   18   19 1  
    26   35   18 1  
    27   19   20 ar 
    28   19   24 ar 
    29   20   21 ar 
    30   21   22 ar 
    31   23   22 ar 
    32   22   36 1  
    33   24   23 ar 
    34   36   25 1  
    35   25   37 1  
    36   27   26 1  
    37   26   47 ar 
    38   27   28 1  
    39   28   29 1  
    40   29   30 1  
    41   30   31 1  
    42   31   32 1  
    43   32   33 1  
    44   32   46 1  
    45   37   38 1  
    46   38   39 1  
    47   38   43 1  
    48   39   40 1  
    49   40   41 1  
    50   41   42 1  
    51   42   43 1  
    52   45   46 1  
    53    3   48 1  
    54    3   49 1  
    55    3   50 1  
    56    4   51 1  
    57    4   52 1  
    58    5   53 1  
    59    7   54 1  
    60    7   55 1  
    61    8   56 1  
    62    8   57 1  
    63    8   58 1  
    64    9   59 1  
    65   11   60 1  
    66   12   61 1  
    67   12   62 1  
    68   13   63 1  
    69   13   64 1  
    70   14   65 1  
    71   15   66 1  
    72   15   67 1  
    73   16   68 1  
    74   16   69 1  
    75   18   70 1  
    76   18   71 1  
    77   20   72 1  
    78   21   73 1  
    79   23   74 1  
    80   24   75 1  
    81   25   76 1  
    82   25   77 1  
    83   28   78 1  
    84   29   79 1  
    85   29   80 1  
    86   30   81 1  
    87   30   82 1  
    88   32   83 1  
    89   33   84 1  
    90   35   85 1  
    91   37   86 1  
    92   37   87 1  
    93   38   88 1  
    94   39   89 1  
    95   39   90 1  
    96   40   91 1  
    97   40   92 1  
    98   42   93 1  
    99   42   94 1  
   100   43   95 1  
   101   43   96 1  
   102   44   97 1  
   103   44   98 1  
   104   44   99 1  
   105   45  100 1  
   106   45  101 1  
   107   46  102 1  
   108   46  103 1  
@<TRIPOS>SUBSTRUCTURE
     1 99N         1

