### 
### Created by X-TOOL on Mon Sep 10 21:13:32 2018
### 

@<TRIPOS>MOLECULE
5ntp_ligand
   66    69     1     0     0
SMALL
GAST_HUCK


@<TRIPOS>ATOM
      1 C2         19.4110   12.8310   23.6940 C.3       1 98E        -0.0097
      2 C3         20.7870   12.1880   23.3990 C.3       1 98E         0.0743
      3 C11        25.9380   13.4580   23.7500 C.3       1 98E        -0.0506
      4 C12        22.6120   13.1800   22.0460 C.2       1 98E         0.1821
      5 C14        20.2110   11.3430   20.2160 C.3       1 98E        -0.0368
      6 C15        14.9430   11.9850   19.9280 C.ar      1 98E         0.0625
      7 C16        14.3080   13.1820   19.5700 C.ar      1 98E        -0.0403
      8 C17        14.6220   14.3530   20.2770 C.ar      1 98E         0.0139
      9 C18        15.5490   14.3470   21.3150 C.ar      1 98E        -0.0630
     10 C19        16.1850   13.1550   21.6690 C.ar      1 98E        -0.0093
     11 C20        15.8880   11.9640   20.9750 C.ar      1 98E        -0.0176
     12 C21        16.5670   10.6170   21.3280 C.3       1 98E        -0.0376
     13 C23        17.1770   13.2460   22.8370 C.3       1 98E        -0.0037
     14 C25        14.4250    6.6930   16.2640 C.ar      1 98E         0.1058
     15 C27        14.9870    8.1190   18.0310 C.ar      1 98E         0.0416
     16 C28        14.5810    9.2370   17.2860 C.ar      1 98E         0.1009
     17 C29        14.1100    9.0140   15.9840 C.ar      1 98E         0.0416
     18 N1         18.5340   12.7640   22.4990 N.4       1 98E         0.2489
     19 N4         21.3300   12.7160   22.1370 N.am      1 98E        -0.2600
     20 C5         20.4700   12.6990   20.9330 C.3       1 98E         0.0821
     21 C6         19.1500   13.4220   21.3110 C.3       1 98E        -0.0070
     22 C7         24.9580   12.6040   22.9280 C.3       1 98E        -0.0332
     23 C8         23.5590   13.2160   23.2380 C.3       1 98E         0.0488
     24 C9         23.8350   14.6520   23.7830 C.3       1 98E        -0.0332
     25 C10        25.3530   14.8730   23.5710 C.3       1 98E        -0.0506
     26 O13        23.0730   13.6020   20.9910 O.2       1 98E        -0.3966
     27 CL         13.8620   15.8690   19.8970 Cl        1 98E        -0.0825
     28 N24        14.7130   10.7580   19.2540 N.am      1 98E        -0.2370
     29 N26        14.8990    6.8760   17.5150 N.ar      1 98E        -0.2583
     30 N30        14.0400    7.7480   15.5110 N.ar      1 98E        -0.2583
     31 C31        14.3360    5.2820   15.6950 C.3       1 98E         0.0065
     32 C32        14.7420   10.6040   17.9110 C.2       1 98E         0.2390
     33 O33        14.9320   11.5380   17.1450 O.2       1 98E        -0.3724
     34 H1         19.5575   13.8841   23.9758 H         1 98E         0.0835
     35 H2         18.9313   12.2924   24.5246 H         1 98E         0.0835
     36 H3         20.6692   11.0974   23.3167 H         1 98E         0.0576
     37 H4         21.4813   12.4209   24.2198 H         1 98E         0.0576
     38 H5         26.9597   13.3936   23.3476 H         1 98E         0.0267
     39 H6         25.9409   13.1571   24.8080 H         1 98E         0.0267
     40 H7         19.5570   11.5069   19.3468 H         1 98E         0.0254
     41 H8         19.7248   10.6459   20.9144 H         1 98E         0.0254
     42 H9         21.1679   10.9174   19.8797 H         1 98E         0.0254
     43 H10        13.5868   13.2030   18.7610 H         1 98E         0.0434
     44 H11        15.7765   15.2639   21.8467 H         1 98E         0.0423
     45 H12        16.1861    9.8288   20.6620 H         1 98E         0.0347
     46 H13        16.3415   10.3552   22.3723 H         1 98E         0.0347
     47 H14        17.6555   10.7105   21.2003 H         1 98E         0.0347
     48 H15        16.7902   12.6406   23.6700 H         1 98E         0.0960
     49 H16        17.2495   14.2978   23.1508 H         1 98E         0.0960
     50 H17        15.3761    8.2562   19.0334 H         1 98E         0.0971
     51 H18        13.8049    9.8479   15.3623 H         1 98E         0.0971
     52 H19        18.4389   11.7896   22.2592 H         1 98E         0.2048
     53 H20        20.9827   13.3226   20.1859 H         1 98E         0.0609
     54 H21        19.3653   14.4745   21.5475 H         1 98E         0.0837
     55 H22        18.4511   13.3723   20.4630 H         1 98E         0.0837
     56 H23        25.0007   11.5508   23.2425 H         1 98E         0.0292
     57 H24        25.1851   12.6756   21.8541 H         1 98E         0.0292
     58 H25        23.0891   12.6259   24.0386 H         1 98E         0.0538
     59 H26        23.5799   14.7164   24.8511 H         1 98E         0.0292
     60 H27        23.2531   15.3977   23.2214 H         1 98E         0.0292
     61 H28        25.5589   15.2612   22.5626 H         1 98E         0.0267
     62 H29        25.7600   15.5669   24.3213 H         1 98E         0.0267
     63 H30        14.5158    9.9511   19.8108 H         1 98E         0.2229
     64 H31        14.6899    4.5607   16.4463 H         1 98E         0.0474
     65 H32        14.9626    5.2098   14.7938 H         1 98E         0.0474
     66 H33        13.2913    5.0570   15.4342 H         1 98E         0.0474
@<TRIPOS>BOND
     1    1    2 1  
     2   18    1 1  
     3    2   19 1  
     4   22    3 1  
     5   25    3 1  
     6   19    4 am 
     7    4   23 1  
     8    4   26 2  
     9   20    5 1  
    10    6    7 ar 
    11    6   11 ar 
    12   28    6 1  
    13    7    8 ar 
    14    8    9 ar 
    15    8   27 1  
    16   10    9 ar 
    17   11   10 ar 
    18   10   13 1  
    19   11   12 1  
    20   13   18 1  
    21   29   14 ar 
    22   30   14 ar 
    23   14   31 1  
    24   16   15 ar 
    25   15   29 ar 
    26   16   17 ar 
    27   32   16 1  
    28   17   30 ar 
    29   18   21 1  
    30   20   19 1  
    31   21   20 1  
    32   23   22 1  
    33   23   24 1  
    34   24   25 1  
    35   28   32 am 
    36   32   33 2  
    37    1   34 1  
    38    1   35 1  
    39    2   36 1  
    40    2   37 1  
    41    3   38 1  
    42    3   39 1  
    43    5   40 1  
    44    5   41 1  
    45    5   42 1  
    46    7   43 1  
    47    9   44 1  
    48   12   45 1  
    49   12   46 1  
    50   12   47 1  
    51   13   48 1  
    52   13   49 1  
    53   15   50 1  
    54   17   51 1  
    55   18   52 1  
    56   20   53 1  
    57   21   54 1  
    58   21   55 1  
    59   22   56 1  
    60   22   57 1  
    61   23   58 1  
    62   24   59 1  
    63   24   60 1  
    64   25   61 1  
    65   25   62 1  
    66   28   63 1  
    67   31   64 1  
    68   31   65 1  
    69   31   66 1  
@<TRIPOS>SUBSTRUCTURE
     1 98E         1

