### 
### Created by X-TOOL on Mon Sep 10 21:13:34 2018
### 

@<TRIPOS>MOLECULE
5ntq_ligand
   43    44     1     0     0
SMALL
GAST_HUCK


@<TRIPOS>ATOM
      1 O13        10.7820  -29.0100   -9.4900 O.2       1 444        -0.1412
      2 S12        10.3860  -30.4120   -9.4210 S.o2      1 444         0.1037
      3 O14         9.4760  -30.8700  -10.4620 O.2       1 444        -0.1412
      4 C01         9.6000  -30.6910   -7.8470 C.ar      1 444         0.1176
      5 C02         9.7830  -29.7700   -6.8040 C.ar      1 444        -0.0342
      6 C03         9.1710  -29.9930   -5.5670 C.ar      1 444        -0.0599
      7 C04         8.3740  -31.1250   -5.3640 C.ar      1 444        -0.0616
      8 C05         8.1850  -32.0450   -6.4020 C.ar      1 444        -0.0599
      9 C06         8.7930  -31.8240   -7.6440 C.ar      1 444        -0.0342
     10 N15        11.7410  -31.3950   -9.3060 N.am      1 444        -0.1349
     11 C16        12.7310  -30.8320   -8.3680 C.3       1 444         0.1652
     12 C19        14.1160  -30.6980   -9.0230 C.3       1 444         0.4159
     13 F22        14.5120  -31.8930   -9.5370 F         1 444        -0.1679
     14 F21        14.0660  -29.7740  -10.0140 F         1 444        -0.1679
     15 F20        14.9970  -30.2860   -8.0750 F         1 444        -0.1679
     16 C23        11.4230  -32.7840   -9.2530 C.ar      1 444         0.1131
     17 C24        11.6600  -33.5650   -8.1050 C.ar      1 444        -0.0071
     18 C25        11.3120  -34.9270   -8.0790 C.ar      1 444        -0.0506
     19 C28        10.8350  -33.3970  -10.3660 C.ar      1 444        -0.0071
     20 C27        10.4850  -34.7500  -10.3370 C.ar      1 444        -0.0506
     21 C26        10.7300  -35.5400   -9.2010 C.ar      1 444        -0.0342
     22 C33        10.3230  -37.0260   -9.1590 C.3       1 444         0.2176
     23 C34        10.8180  -37.8960  -10.3410 C.3       1 444         0.3869
     24 F36        12.1490  -38.1230  -10.2190 F         1 444        -0.1800
     25 F37        10.1730  -39.0910  -10.2980 F         1 444        -0.1800
     26 F35        10.5800  -37.3090  -11.5400 F         1 444        -0.1800
     27 O42        10.8170  -37.6540   -7.9730 O.3       1 444        -0.4296
     28 C38         8.7710  -37.0480   -9.1080 C.3       1 444         0.3869
     29 F39         8.3370  -36.2020   -8.1400 F         1 444        -0.1800
     30 F40         8.2400  -36.6590  -10.3040 F         1 444        -0.1800
     31 F41         8.3200  -38.2890   -8.8010 F         1 444        -0.1800
     32 H1         10.3963  -28.8894   -6.9569 H         1 444         0.0637
     33 H2          9.3149  -29.2841   -4.7596 H         1 444         0.0618
     34 H3          7.9024  -31.2897   -4.4019 H         1 444         0.0618
     35 H4          7.5709  -32.9244   -6.2451 H         1 444         0.0618
     36 H5          8.6407  -32.5298   -8.4525 H         1 444         0.0637
     37 H6         12.8119  -31.4945   -7.4936 H         1 444         0.0688
     38 H7         12.3911  -29.8372   -8.0442 H         1 444         0.0688
     39 H8         12.1155  -33.1112   -7.2323 H         1 444         0.0617
     40 H9         11.4947  -35.5102   -7.1837 H         1 444         0.0796
     41 H10        10.6488  -32.8151  -11.2614 H         1 444         0.0617
     42 H11        10.0164  -35.1976  -11.2060 H         1 444         0.0796
     43 H12        10.4727  -38.5376   -7.9170 H         1 444         0.1901
@<TRIPOS>BOND
     1    1    2 2  
     2    2    3 2  
     3    2    4 1  
     4    2   10 am 
     5    4    5 ar 
     6    4    9 ar 
     7    5    6 ar 
     8    6    7 ar 
     9    7    8 ar 
    10    8    9 ar 
    11   10   11 1  
    12   10   16 1  
    13   11   12 1  
    14   12   13 1  
    15   12   14 1  
    16   12   15 1  
    17   16   17 ar 
    18   16   19 ar 
    19   17   18 ar 
    20   18   21 ar 
    21   19   20 ar 
    22   20   21 ar 
    23   21   22 1  
    24   22   23 1  
    25   22   27 1  
    26   22   28 1  
    27   23   24 1  
    28   23   25 1  
    29   23   26 1  
    30   28   29 1  
    31   28   30 1  
    32   28   31 1  
    33    5   32 1  
    34    6   33 1  
    35    7   34 1  
    36    8   35 1  
    37    9   36 1  
    38   11   37 1  
    39   11   38 1  
    40   17   39 1  
    41   18   40 1  
    42   19   41 1  
    43   20   42 1  
    44   27   43 1  
@<TRIPOS>SUBSTRUCTURE
     1 444         1

