### 
### Created by X-TOOL on Mon Sep 10 21:13:33 2018
### 

@<TRIPOS>MOLECULE
5ntt_ligand
   87    92     1     0     0
SMALL
GAST_HUCK


@<TRIPOS>ATOM
      1 C1          1.7170  -14.3480  -20.2750 C.ar      1 SVE        -0.0607
      2 C2          1.3440  -13.0850  -21.0300 C.ar      1 SVE        -0.0571
      3 C3          1.8170  -14.1460  -18.7940 C.ar      1 SVE         0.0321
      4 C4          1.2710  -13.0500  -18.1700 C.ar      1 SVE         0.1223
      5 N5          1.5270  -13.1860  -16.8260 N.pl3     1 SVE        -0.1884
      6 N6          2.2070  -14.3430  -16.5810 N.2       1 SVE        -0.1708
      7 C7          2.3740  -14.9240  -17.7800 C.2       1 SVE         0.1414
      8 C8          3.0980  -16.2080  -17.8970 C.2       1 SVE         0.2384
      9 N9          3.5410  -16.7290  -16.7300 N.am      1 SVE        -0.2393
     10 O10         3.2890  -16.7210  -18.9960 O.2       1 SVE        -0.3761
     11 C11         1.1930  -12.3180  -15.6980 C.3       1 SVE         0.0611
     12 C12         0.6400  -12.0050  -18.8510 C.ar      1 SVE         0.0778
     13 C13         0.6710  -11.9860  -20.2570 C.ar      1 SVE         0.0151
     14 C14         0.0650  -10.9150  -20.9100 C.ar      1 SVE         0.0267
     15 N15        -0.5170   -9.9280  -20.2330 N.ar      1 SVE        -0.2447
     16 C16        -0.4900   -9.9970  -18.8890 C.ar      1 SVE         0.2058
     17 N17         0.0780  -10.9890  -18.1850 N.ar      1 SVE        -0.2597
     18 N18        -1.0730   -9.0210  -18.1520 N.pl3     1 SVE        -0.2426
     19 C19        -1.5440   -9.0690  -16.8190 C.ar      1 SVE         0.1015
     20 C20        -1.5800   -7.8920  -16.0550 C.ar      1 SVE         0.1304
     21 C21        -2.0500   -7.9590  -14.7570 C.ar      1 SVE        -0.0221
     22 C22        -2.4690   -9.1680  -14.2030 C.ar      1 SVE         0.0290
     23 C23        -2.4230  -10.3250  -14.9710 C.ar      1 SVE        -0.0623
     24 C24        -1.9690  -10.2830  -16.2680 C.ar      1 SVE        -0.0396
     25 O25        -1.1400   -6.7480  -16.7160 O.3       1 SVE        -0.2290
     26 C26        -2.9800   -9.2870  -12.8000 C.2       1 SVE         0.1940
     27 N27        -2.9190   -8.1620  -12.0060 N.am      1 SVE        -0.2846
     28 O28        -3.4370  -10.3600  -12.4060 O.2       1 SVE        -0.3901
     29 C29        -3.6230   -8.0630  -10.7220 C.3       1 SVE         0.0509
     30 C30        -2.6720   -7.6630   -9.6030 C.3       1 SVE         0.0106
     31 C31        -3.4280   -7.5440   -8.2880 C.3       1 SVE        -0.0300
     32 N32        -4.5330   -6.5770   -8.3920 N.4       1 SVE         0.2332
     33 C33        -5.4760   -6.9570   -9.4550 C.3       1 SVE        -0.0300
     34 C34        -4.7740   -7.0670  -10.8000 C.3       1 SVE         0.0106
     35 C35        -5.2280   -6.4180   -7.0910 C.3       1 SVE        -0.0431
     36 C36        -0.9320   -5.6060  -16.0460 C.3       1 SVE         0.5444
     37 F37        -0.1940   -5.7610  -14.9600 F         1 SVE        -0.1403
     38 F38        -2.0530   -5.0120  -15.6790 F         1 SVE        -0.1403
     39 F39        -0.2980   -4.7490  -16.8200 F         1 SVE        -0.1403
     40 C40         4.1950  -17.9820  -16.5410 C.ar      1 SVE         0.0707
     41 C41         5.5760  -17.9940  -16.2970 C.ar      1 SVE        -0.0275
     42 C42         6.1920  -19.2360  -16.1190 C.ar      1 SVE        -0.0801
     43 C43         5.4720  -20.4100  -16.1680 C.ar      1 SVE        -0.0903
     44 C44         4.1160  -20.3720  -16.4070 C.ar      1 SVE        -0.0801
     45 C45         3.4390  -19.1640  -16.5950 C.ar      1 SVE        -0.0275
     46 C46         1.9460  -19.1860  -16.8510 C.3       1 SVE        -0.0276
     47 C47         1.0690  -19.1170  -15.6200 C.3       1 SVE        -0.0576
     48 C48         6.4080  -16.7290  -16.2480 C.3       1 SVE        -0.0276
     49 C49         6.3790  -15.9800  -14.9380 C.3       1 SVE        -0.0576
     50 H1          1.8935  -15.3015  -20.7595 H         1 SVE         0.0590
     51 H2          1.5554  -12.9797  -22.0880 H         1 SVE         0.0557
     52 H3          3.3939  -16.1751  -15.9105 H         1 SVE         0.2207
     53 H4          1.5685  -12.7666  -14.7664 H         1 SVE         0.0596
     54 H5          0.1009  -12.2024  -15.6351 H         1 SVE         0.0596
     55 H6          1.6584  -11.3320  -15.8437 H         1 SVE         0.0596
     56 H7          0.0676  -10.8849  -21.9936 H         1 SVE         0.0962
     57 H8         -1.1898   -8.1161  -18.6299 H         1 SVE         0.2168
     58 H9         -2.0936   -7.0558  -14.1592 H         1 SVE         0.0555
     59 H10        -2.7473  -11.2673  -14.5445 H         1 SVE         0.0550
     60 H11        -1.9403  -11.1888  -16.8628 H         1 SVE         0.0518
     61 H12        -2.3741   -7.3832  -12.3168 H         1 SVE         0.1844
     62 H13        -4.0387   -9.0533  -10.4846 H         1 SVE         0.0559
     63 H14        -2.2117   -6.6940   -9.8464 H         1 SVE         0.0339
     64 H15        -1.8870   -8.4270   -9.5029 H         1 SVE         0.0339
     65 H16        -2.7326   -7.2104   -7.5038 H         1 SVE         0.0815
     66 H17        -3.8379   -8.5289   -8.0199 H         1 SVE         0.0815
     67 H18        -4.1365   -5.6838   -8.6392 H         1 SVE         0.2030
     68 H19        -6.2655   -6.1942   -9.5238 H         1 SVE         0.0815
     69 H20        -5.9261   -7.9290   -9.2047 H         1 SVE         0.0815
     70 H21        -5.4954   -7.4061  -11.5580 H         1 SVE         0.0339
     71 H22        -4.3800   -6.0801  -11.0843 H         1 SVE         0.0339
     72 H23        -4.4986   -6.1344   -6.3179 H         1 SVE         0.0777
     73 H24        -5.7067   -7.3684   -6.8124 H         1 SVE         0.0777
     74 H25        -5.9939   -5.6333   -7.1779 H         1 SVE         0.0777
     75 H26         7.2601  -19.2766  -15.9384 H         1 SVE         0.0460
     76 H27         5.9713  -21.3605  -16.0189 H         1 SVE         0.0455
     77 H28         3.5604  -21.3018  -16.4503 H         1 SVE         0.0460
     78 H29         1.7080  -20.1184  -17.3838 H         1 SVE         0.0392
     79 H30         1.6998  -18.3253  -17.4902 H         1 SVE         0.0392
     80 H31         0.0114  -19.1397  -15.9216 H         1 SVE         0.0248
     81 H32         1.2749  -18.1840  -15.0749 H         1 SVE         0.0248
     82 H33         1.2830  -19.9771  -14.9686 H         1 SVE         0.0248
     83 H34         6.0409  -16.0518  -17.0332 H         1 SVE         0.0392
     84 H35         7.4525  -17.0024  -16.4584 H         1 SVE         0.0392
     85 H36         7.0130  -15.0843  -15.0137 H         1 SVE         0.0248
     86 H37         6.7572  -16.6302  -14.1354 H         1 SVE         0.0248
     87 H38         5.3457  -15.6795  -14.7102 H         1 SVE         0.0248
@<TRIPOS>BOND
     1    1    2 ar 
     2    1    3 ar 
     3    2   13 ar 
     4    3    4 ar 
     5    3    7 1  
     6    4    5 1  
     7    4   12 ar 
     8    5    6 1  
     9    5   11 1  
    10    6    7 2  
    11    7    8 1  
    12    8    9 am 
    13    8   10 2  
    14    9   40 1  
    15   12   13 ar 
    16   12   17 ar 
    17   13   14 ar 
    18   14   15 ar 
    19   15   16 ar 
    20   16   17 ar 
    21   16   18 1  
    22   18   19 1  
    23   19   20 ar 
    24   19   24 ar 
    25   20   21 ar 
    26   20   25 1  
    27   21   22 ar 
    28   22   23 ar 
    29   22   26 1  
    30   23   24 ar 
    31   25   36 1  
    32   26   27 am 
    33   26   28 2  
    34   27   29 1  
    35   29   30 1  
    36   29   34 1  
    37   30   31 1  
    38   31   32 1  
    39   32   33 1  
    40   32   35 1  
    41   33   34 1  
    42   36   37 1  
    43   36   38 1  
    44   36   39 1  
    45   40   41 ar 
    46   40   45 ar 
    47   41   42 ar 
    48   41   48 1  
    49   42   43 ar 
    50   43   44 ar 
    51   44   45 ar 
    52   45   46 1  
    53   46   47 1  
    54   48   49 1  
    55    1   50 1  
    56    2   51 1  
    57    9   52 1  
    58   11   53 1  
    59   11   54 1  
    60   11   55 1  
    61   14   56 1  
    62   18   57 1  
    63   21   58 1  
    64   23   59 1  
    65   24   60 1  
    66   27   61 1  
    67   29   62 1  
    68   30   63 1  
    69   30   64 1  
    70   31   65 1  
    71   31   66 1  
    72   32   67 1  
    73   33   68 1  
    74   33   69 1  
    75   34   70 1  
    76   34   71 1  
    77   35   72 1  
    78   35   73 1  
    79   35   74 1  
    80   42   75 1  
    81   43   76 1  
    82   44   77 1  
    83   46   78 1  
    84   46   79 1  
    85   47   80 1  
    86   47   81 1  
    87   47   82 1  
    88   48   83 1  
    89   48   84 1  
    90   49   85 1  
    91   49   86 1  
    92   49   87 1  
@<TRIPOS>SUBSTRUCTURE
     1 SVE         1

