### 
### Created by X-TOOL on Mon Sep 10 21:13:33 2018
### 

@<TRIPOS>MOLECULE
5ntw_ligand
   74    77     1     0     0
SMALL
GAST_HUCK


@<TRIPOS>ATOM
      1 C1         -0.4730   12.1140   69.9670 C.ar      1 98N         0.0416
      2 C2         -0.0830   11.6050   68.7380 C.ar      1 98N         0.0870
      3 C11         1.3030   12.6790   66.9650 C.3       1 98N         0.0082
      4 C12         1.2630   13.2710   65.5310 C.3       1 98N        -0.0555
      5 C13         2.3650   13.4340   67.8200 C.3       1 98N        -0.0555
      6 C16        -0.1580    6.7550   72.9230 C.3       1 98N         0.0793
      7 C17         1.3080    6.6080   73.3680 C.ar      1 98N         0.0503
      8 C19         2.8310    6.0330   75.0700 C.ar      1 98N         0.0277
      9 C20         3.9210    6.3290   74.2500 C.ar      1 98N         0.1086
     10 C21         3.6940    6.7710   72.9390 C.ar      1 98N        -0.0238
     11 C22         2.3740    6.9140   72.5020 C.ar      1 98N        -0.0286
     12 C24         5.9250    7.7140   75.6570 C.3       1 98N         0.0683
     13 C25         5.9590    8.8720   74.6300 C.3       1 98N        -0.0453
     14 C28        -1.2400   14.7860   67.7910 C.3       1 98N        -0.0257
     15 C29        -1.1550   16.2100   68.3910 C.3       1 98N        -0.0007
     16 C30         0.2180   16.8750   68.0400 C.3       1 98N        -0.0449
     17 N3          0.2800   10.3210   68.5740 N.ar      1 98N        -0.2932
     18 C4          0.2550    9.5060   69.6430 C.ar      1 98N         0.0158
     19 C5         -0.1430    9.9710   70.9100 C.ar      1 98N         0.0635
     20 C6         -0.5120   11.3050   71.0950 C.ar      1 98N        -0.0227
     21 C7         -0.1440    9.0250   72.0730 C.2       1 98N         0.2082
     22 C8         -0.8100   13.5730   69.8420 C.3       1 98N         0.0088
     23 N9         -0.2900   13.8890   68.4820 N.4       1 98N         0.2632
     24 C10        -0.0980   12.6630   67.6580 C.3       1 98N         0.0320
     25 O14        -0.0550    9.4930   73.2000 O.2       1 98N        -0.3846
     26 N15        -0.2000    7.7000   71.8200 N.am      1 98N        -0.2724
     27 N18         1.5640    6.1840   74.6290 N.ar      1 98N        -0.2942
     28 S23         5.5670    6.1130   74.8870 S.o2      1 98N        -0.0004
     29 O26         5.4900    5.1100   75.9360 O.2       1 98N        -0.1692
     30 O27         6.4740    5.8500   73.7870 O.2       1 98N        -0.1692
     31 C31         0.2200   18.3960   68.3520 C.3       1 98N        -0.0416
     32 C32        -0.9750   19.0300   67.5870 C.3       1 98N         0.0544
     33 C33        -2.3060   18.4990   68.1740 C.3       1 98N        -0.0416
     34 C34        -2.3970   16.9880   67.8780 C.3       1 98N        -0.0449
     35 C35        -0.9810   20.5690   67.6400 C.3       1 98N         0.3929
     36 F36         0.2690   21.0670   67.4990 F         1 98N        -0.1704
     37 F37        -1.7380   21.0370   66.6140 F         1 98N        -0.1704
     38 F38        -1.4910   20.9640   68.8370 F         1 98N        -0.1704
     39 H1          1.6298   11.6322   66.8785 H         1 98N         0.0375
     40 H2          2.2746   13.2546   65.0992 H         1 98N         0.0236
     41 H3          0.8989   14.3081   65.5725 H         1 98N         0.0236
     42 H4          0.5873   12.6699   64.9048 H         1 98N         0.0236
     43 H5          2.3880   13.0095   68.8345 H         1 98N         0.0236
     44 H6          2.1010   14.5004   67.8747 H         1 98N         0.0236
     45 H7          3.3556   13.3249   67.3544 H         1 98N         0.0236
     46 H8         -0.7661    7.1302   73.7593 H         1 98N         0.0713
     47 H9         -0.5479    5.7803   72.5944 H         1 98N         0.0713
     48 H10         3.0048    5.6756   76.0785 H         1 98N         0.0822
     49 H11         4.5237    6.9968   72.2789 H         1 98N         0.0738
     50 H12         2.1714    7.2609   71.4952 H         1 98N         0.0652
     51 H13         5.1465    7.9279   76.4041 H         1 98N         0.0501
     52 H14         6.9043    7.6549   76.1545 H         1 98N         0.0501
     53 H15         6.1794    9.8163   75.1494 H         1 98N         0.0245
     54 H16         4.9820    8.9478   74.1303 H         1 98N         0.0245
     55 H17         6.7398    8.6748   73.8807 H         1 98N         0.0245
     56 H18        -0.9902   14.8262   66.7205 H         1 98N         0.0818
     57 H19        -2.2622   14.3989   67.9147 H         1 98N         0.0818
     58 H20        -1.2195   16.1422   69.4870 H         1 98N         0.0352
     59 H21         0.4192   16.7314   66.9681 H         1 98N         0.0270
     60 H22         1.0095   16.3898   68.6299 H         1 98N         0.0270
     61 H23         0.5476    8.4688   69.5264 H         1 98N         0.0796
     62 H24        -0.8118   11.6873   72.0640 H         1 98N         0.0703
     63 H25        -0.3016   14.1693   70.6139 H         1 98N         0.0981
     64 H26        -1.8953   13.7405   69.9049 H         1 98N         0.0981
     65 H27         0.5981   14.3561   68.5778 H         1 98N         0.2068
     66 H28        -0.9021   12.5175   66.9217 H         1 98N         0.1044
     67 H29        -0.2700    7.3706   70.8784 H         1 98N         0.1875
     68 H30         1.1644   18.8477   68.0143 H         1 98N         0.0271
     69 H31         0.1022   18.5579   69.4336 H         1 98N         0.0271
     70 H32        -0.9047   18.7244   66.5326 H         1 98N         0.0387
     71 H33        -3.1535   19.0213   67.7062 H         1 98N         0.0271
     72 H34        -2.3265   18.6670   69.2609 H         1 98N         0.0271
     73 H35        -3.2946   16.5849   68.3697 H         1 98N         0.0270
     74 H36        -2.4793   16.8452   66.7904 H         1 98N         0.0270
@<TRIPOS>BOND
     1    1    2 ar 
     2    1   20 ar 
     3   22    1 1  
     4    2   17 ar 
     5    2   24 1  
     6    3    4 1  
     7    3    5 1  
     8   24    3 1  
     9    6    7 1  
    10   26    6 1  
    11    7   11 ar 
    12    7   27 ar 
    13    8    9 ar 
    14   27    8 ar 
    15   10    9 ar 
    16    9   28 1  
    17   11   10 ar 
    18   12   13 1  
    19   28   12 1  
    20   14   15 1  
    21   23   14 1  
    22   15   16 1  
    23   15   34 1  
    24   16   31 1  
    25   17   18 ar 
    26   19   18 ar 
    27   20   19 ar 
    28   19   21 1  
    29   21   25 2  
    30   21   26 am 
    31   22   23 1  
    32   23   24 1  
    33   28   29 2  
    34   28   30 2  
    35   31   32 1  
    36   32   33 1  
    37   32   35 1  
    38   33   34 1  
    39   35   36 1  
    40   35   37 1  
    41   35   38 1  
    42    3   39 1  
    43    4   40 1  
    44    4   41 1  
    45    4   42 1  
    46    5   43 1  
    47    5   44 1  
    48    5   45 1  
    49    6   46 1  
    50    6   47 1  
    51    8   48 1  
    52   10   49 1  
    53   11   50 1  
    54   12   51 1  
    55   12   52 1  
    56   13   53 1  
    57   13   54 1  
    58   13   55 1  
    59   14   56 1  
    60   14   57 1  
    61   15   58 1  
    62   16   59 1  
    63   16   60 1  
    64   18   61 1  
    65   20   62 1  
    66   22   63 1  
    67   22   64 1  
    68   23   65 1  
    69   24   66 1  
    70   26   67 1  
    71   31   68 1  
    72   31   69 1  
    73   32   70 1  
    74   33   71 1  
    75   33   72 1  
    76   34   73 1  
    77   34   74 1  
@<TRIPOS>SUBSTRUCTURE
     1 98N         1

