### 
### Created by X-TOOL on Mon Sep 10 21:13:34 2018
### 

@<TRIPOS>MOLECULE
5nu1_ligand
   56    59     1     0     0
SMALL
GAST_HUCK


@<TRIPOS>ATOM
      1 C1         10.0720   -1.7530  112.1250 C.3       1 8YB        -0.0454
      2 C2          8.8710   -2.6460  112.5240 C.3       1 8YB         0.0672
      3 O4          8.0990   -5.1900  112.4670 O.2       1 8YB        -0.1702
      4 O5         10.5540   -4.6980  112.4960 O.2       1 8YB        -0.1702
      5 C7          7.9640   -4.1700  109.6000 C.ar      1 8YB        -0.0433
      6 C8          7.9370   -4.0530  108.2020 C.ar      1 8YB        -0.0561
      7 C9          9.1390   -4.0050  107.4820 C.ar      1 8YB        -0.0234
      8 C10        10.3610   -4.0560  108.1730 C.ar      1 8YB        -0.0561
      9 C11        10.3800   -4.1630  109.5690 C.ar      1 8YB        -0.0433
     10 C12         9.1170   -3.8690  105.9580 C.3       1 8YB         0.0789
     11 C13         9.6070   -2.4710  105.6540 C.2       1 8YB         0.2289
     12 C16        11.5800   -1.1620  105.1410 C.2       1 8YB         0.2157
     13 C19        12.2910    1.1240  104.6210 C.2       1 8YB         0.0968
     14 C21        12.2510    2.5640  104.2800 C.2       1 8YB         0.1536
     15 C24        13.6410    4.4990  103.5750 C.ar      1 8YB        -0.0439
     16 C27        14.8170    4.7770  106.0930 C.ar      1 8YB        -0.0425
     17 C30        14.8170    0.5290  104.8380 C.ar      1 8YB        -0.0153
     18 C31        15.4490    1.3720  103.9170 C.ar      1 8YB        -0.0543
     19 C32        16.8370    1.5420  103.9870 C.ar      1 8YB        -0.0611
     20 C33        17.5960    0.8660  104.9590 C.ar      1 8YB        -0.0482
     21 C34        16.9620    0.0160  105.8740 C.ar      1 8YB         0.0406
     22 C35        15.5750   -0.1420  105.8090 C.ar      1 8YB        -0.0405
     23 S3          9.2150   -4.3570  112.0570 S.o2      1 8YB        -0.0061
     24 C6          9.1800   -4.2180  110.2860 C.ar      1 8YB         0.0815
     25 O14         8.8000   -1.5430  105.6640 O.2       1 8YB        -0.3758
     26 N15        10.9280   -2.3160  105.4120 N.am      1 8YB        -0.1877
     27 N17        12.8260   -1.0240  105.1500 N.2       1 8YB        -0.2999
     28 C18        13.3280    0.2870  104.8450 C.2       1 8YB         0.0252
     29 S20        10.7420    0.3120  104.7740 S.3       1 8YB         0.0331
     30 O22        11.2560    2.9640  103.7020 O.2       1 8YB        -0.3844
     31 C23        13.2930    3.6130  104.6080 C.ar      1 8YB         0.0431
     32 C25        14.5830    5.5060  103.7910 C.ar      1 8YB        -0.0564
     33 C26        15.1670    5.6450  105.0510 C.ar      1 8YB        -0.0572
     34 C28        13.8800    3.7630  105.8750 C.ar      1 8YB         0.0582
     35 CL2        13.4970    2.7090  107.2180 Cl        1 8YB        -0.0650
     36 CL3        17.8650   -0.8490  107.1070 Cl        1 8YB        -0.0708
     37 H1          9.8641   -0.7107  112.4087 H         1 8YB         0.0245
     38 H2         10.2282   -1.8128  111.0378 H         1 8YB         0.0245
     39 H3         10.9766   -2.1011  112.6452 H         1 8YB         0.0245
     40 H4          7.9663   -2.2984  112.0038 H         1 8YB         0.0500
     41 H5          8.7146   -2.5866  113.6112 H         1 8YB         0.0500
     42 H6          7.0330   -4.2236  110.1526 H         1 8YB         0.0619
     43 H7          6.9886   -3.9998  107.6797 H         1 8YB         0.0561
     44 H8         11.2939   -4.0123  107.6227 H         1 8YB         0.0561
     45 H9         11.3268   -4.2033  110.0954 H         1 8YB         0.0619
     46 H10         8.0941   -4.0061  105.5773 H         1 8YB         0.0667
     47 H11         9.7823   -4.6149  105.4986 H         1 8YB         0.0667
     48 H12        13.1740    4.3998  102.6018 H         1 8YB         0.0666
     49 H13        15.2733    4.8917  107.0696 H         1 8YB         0.0634
     50 H14        14.8709    1.8872  103.1585 H         1 8YB         0.0622
     51 H15        17.3322    2.2021  103.2841 H         1 8YB         0.0617
     52 H16        18.6706    1.0027  105.0000 H         1 8YB         0.0620
     53 H17        15.0777   -0.7926  106.5193 H         1 8YB         0.0627
     54 H18        11.4849   -3.1463  105.4360 H         1 8YB         0.2444
     55 H19        14.8594    6.1761  102.9850 H         1 8YB         0.0630
     56 H20        15.8954    6.4290  105.2241 H         1 8YB         0.0651
@<TRIPOS>BOND
     1    2    1 1  
     2   23    2 1  
     3   23    3 2  
     4   23    4 2  
     5    6    5 ar 
     6    5   24 ar 
     7    7    6 ar 
     8    7    8 ar 
     9   10    7 1  
    10    8    9 ar 
    11    9   24 ar 
    12   11   10 1  
    13   11   25 2  
    14   26   11 am 
    15   12   26 1  
    16   12   27 2  
    17   29   12 1  
    18   14   13 1  
    19   13   28 2  
    20   13   29 1  
    21   14   30 2  
    22   31   14 1  
    23   31   15 ar 
    24   15   32 ar 
    25   16   33 ar 
    26   34   16 ar 
    27   17   18 ar 
    28   17   22 ar 
    29   28   17 1  
    30   18   19 ar 
    31   19   20 ar 
    32   21   20 ar 
    33   22   21 ar 
    34   21   36 1  
    35   24   23 1  
    36   28   27 1  
    37   31   34 ar 
    38   32   33 ar 
    39   34   35 1  
    40    1   37 1  
    41    1   38 1  
    42    1   39 1  
    43    2   40 1  
    44    2   41 1  
    45    5   42 1  
    46    6   43 1  
    47    8   44 1  
    48    9   45 1  
    49   10   46 1  
    50   10   47 1  
    51   15   48 1  
    52   16   49 1  
    53   18   50 1  
    54   19   51 1  
    55   20   52 1  
    56   22   53 1  
    57   26   54 1  
    58   32   55 1  
    59   33   56 1  
@<TRIPOS>SUBSTRUCTURE
     1 8YB         1

