### 
### Created by X-TOOL on Mon Sep 10 21:13:31 2018
### 

@<TRIPOS>MOLECULE
5nu3_ligand
   49    51     1     0     0
SMALL
GAST_HUCK


@<TRIPOS>ATOM
      1 O1        -35.6770   52.9150   -3.4000 O.3       1 99E        -0.3305
      2 C11       -36.4330   51.7210   -0.7660 C.ar      1 99E         0.0162
      3 C21       -36.7860   55.3670   -0.2520 C.ar      1 99E        -0.0757
      4 C7        -32.4800   50.4360   -4.4730 C.3       1 99E        -0.0345
      5 C8        -32.5970   51.7740   -5.1710 C.3       1 99E        -0.0585
      6 C10       -29.2480   50.3640   -5.3010 C.3       1 99E         0.0031
      7 C1        -33.6660   50.3590   -1.4310 C.2       1 99E         0.2021
      8 C2        -32.2390   50.5950   -1.7930 C.2       1 99E         0.1162
      9 N3        -31.2490   50.7790   -0.9020 N.pl3     1 99E        -0.2744
     10 C4        -30.0510   50.9550   -1.4860 C.2       1 99E         0.0622
     11 C5        -30.2510   50.8600   -2.9560 C.2       1 99E         0.0277
     12 C6        -31.7050   50.6090   -3.1840 C.2       1 99E        -0.0333
     13 C9        -29.1260   50.9880   -3.9420 C.2       1 99E         0.0977
     14 C12       -28.7670   51.1940   -0.7340 C.3       1 99E        -0.0012
     15 N13       -34.6870   50.7770   -2.1840 N.am      1 99E        -0.2811
     16 O15       -33.8510   49.7690   -0.3790 O.2       1 99E        -0.4030
     17 O16       -28.1010   51.5670   -3.6200 O.2       1 99E        -0.4022
     18 C3        -36.0650   50.6150   -1.7400 C.3       1 99E         0.0612
     19 C13       -36.8060   51.2940    0.5010 C.ar      1 99E         0.0888
     20 C14       -37.1650   52.1950    1.4950 C.ar      1 99E        -0.0397
     21 C15       -37.1490   53.5500    1.2180 C.ar      1 99E        -0.0700
     22 C16       -36.7780   53.9960   -0.0430 C.ar      1 99E        -0.0392
     23 C17       -36.4080   53.1030   -1.0620 C.ar      1 99E         0.0151
     24 C18       -36.0490   53.6500   -2.3110 C.ar      1 99E         0.0942
     25 C19       -36.0580   55.0270   -2.5030 C.ar      1 99E        -0.0396
     26 C20       -36.4230   55.8890   -1.4830 C.ar      1 99E        -0.0796
     27 O22       -36.8230   49.9610    0.7880 O.3       1 99E        -0.3402
     28 H1        -35.4821   53.4992   -4.1234 H         1 99E         0.2506
     29 H2        -37.0777   56.0334    0.5517 H         1 99E         0.0472
     30 H3        -31.9521   49.7258   -5.1264 H         1 99E         0.0382
     31 H4        -33.4852   50.0499   -4.2481 H         1 99E         0.0382
     32 H5        -33.1598   51.6507   -6.1080 H         1 99E         0.0248
     33 H6        -31.5916   52.1597   -5.3953 H         1 99E         0.0248
     34 H7        -33.1247   52.4838   -4.5170 H         1 99E         0.0248
     35 H8        -28.3329   50.5615   -5.8786 H         1 99E         0.0441
     36 H9        -30.1132   50.7950   -5.8261 H         1 99E         0.0441
     37 H10       -29.3872   49.2780   -5.1947 H         1 99E         0.0441
     38 H11       -31.3929   50.7845    0.1179 H         1 99E         0.2317
     39 H12       -27.9384   51.3044   -1.4490 H         1 99E         0.0449
     40 H13       -28.5668   50.3404   -0.0697 H         1 99E         0.0449
     41 H14       -28.8585   52.1117   -0.1345 H         1 99E         0.0449
     42 H15       -34.5024   51.2083   -3.0671 H         1 99E         0.1854
     43 H16       -36.7354   50.6592   -2.6110 H         1 99E         0.0662
     44 H17       -36.1745   49.6403   -1.2420 H         1 99E         0.0662
     45 H18       -37.4547   51.8401    2.4774 H         1 99E         0.0558
     46 H19       -37.4261   54.2635    1.9855 H         1 99E         0.0515
     47 H20       -35.7745   55.4325   -3.4675 H         1 99E         0.0472
     48 H21       -36.4248   56.9607   -1.6457 H         1 99E         0.0550
     49 H22       -37.7019   49.7038    1.0409 H         1 99E         0.2438
@<TRIPOS>BOND
     1   24    1 1  
     2    2   18 1  
     3    2   19 ar 
     4   23    2 ar 
     5   22    3 ar 
     6    3   26 ar 
     7    4    5 1  
     8   12    4 1  
     9   13    6 1  
    10    7    8 1  
    11   15    7 am 
    12    7   16 2  
    13    8    9 1  
    14    8   12 2  
    15    9   10 1  
    16   11   10 2  
    17   10   14 1  
    18   12   11 1  
    19   11   13 1  
    20   13   17 2  
    21   18   15 1  
    22   19   20 ar 
    23   19   27 1  
    24   21   20 ar 
    25   22   21 ar 
    26   23   22 ar 
    27   23   24 ar 
    28   24   25 ar 
    29   25   26 ar 
    30    1   28 1  
    31    3   29 1  
    32    4   30 1  
    33    4   31 1  
    34    5   32 1  
    35    5   33 1  
    36    5   34 1  
    37    6   35 1  
    38    6   36 1  
    39    6   37 1  
    40    9   38 1  
    41   14   39 1  
    42   14   40 1  
    43   14   41 1  
    44   15   42 1  
    45   18   43 1  
    46   18   44 1  
    47   20   45 1  
    48   21   46 1  
    49   25   47 1  
    50   26   48 1  
    51   27   49 1  
@<TRIPOS>SUBSTRUCTURE
     1 99E         1

