### 
### Created by X-TOOL on Mon Sep 10 21:13:31 2018
### 

@<TRIPOS>MOLECULE
5nu5_ligand
   49    51     1     0     0
SMALL
GAST_HUCK


@<TRIPOS>ATOM
      1 O1         40.6840    1.8440   10.1250 O.3       1 99E        -0.3305
      2 C11        41.4140    4.0150    8.2530 C.ar      1 99E         0.0162
      3 C21        44.6210    2.2370    8.8500 C.ar      1 99E        -0.0757
      4 C7         37.0510    4.3240   11.9520 C.3       1 99E        -0.0345
      5 C8         37.6150    3.2590   12.8740 C.3       1 99E        -0.0585
      6 C10        35.6010    5.9050   14.4810 C.3       1 99E         0.0031
      7 C1         39.2880    5.7120    9.9920 C.2       1 99E         0.2021
      8 C2         38.8280    6.2470   11.2830 C.2       1 99E         0.1162
      9 N3         39.2810    7.3950   11.7880 N.pl3     1 99E        -0.2744
     10 C4         38.7200    7.6860   12.9590 C.2       1 99E         0.0622
     11 C5         37.7590    6.5990   13.2680 C.2       1 99E         0.0277
     12 C6         37.8070    5.6190   12.1530 C.2       1 99E        -0.0333
     13 C9         36.9190    6.6090   14.4960 C.2       1 99E         0.0977
     14 C12        39.0580    8.9270   13.7430 C.3       1 99E        -0.0012
     15 N13        39.5150    4.4320    9.8300 N.am      1 99E        -0.2811
     16 O15        39.4760    6.5140    9.0900 O.2       1 99E        -0.4030
     17 O16        37.2860    7.2350   15.4690 O.2       1 99E        -0.4022
     18 C3         39.9220    3.9880    8.5370 C.3       1 99E         0.0612
     19 C13        41.8800    4.9970    7.3740 C.ar      1 99E         0.0888
     20 C14        43.2150    5.0570    7.0010 C.ar      1 99E        -0.0397
     21 C15        44.1130    4.1250    7.4990 C.ar      1 99E        -0.0700
     22 C16        43.6720    3.1390    8.3740 C.ar      1 99E        -0.0392
     23 C17        42.3170    3.0520    8.7620 C.ar      1 99E         0.0151
     24 C18        41.9530    2.0210    9.6600 C.ar      1 99E         0.0942
     25 C19        42.9130    1.1170   10.1230 C.ar      1 99E        -0.0396
     26 C20        44.2400    1.2250    9.7210 C.ar      1 99E        -0.0796
     27 O22        41.0300    5.9370    6.8670 O.3       1 99E        -0.3402
     28 H1         40.6644    1.0975   10.7123 H         1 99E         0.2506
     29 H2         45.6562    2.3251    8.5406 H         1 99E         0.0472
     30 H3         35.9869    4.4815   12.1819 H         1 99E         0.0382
     31 H4         37.1559    3.9969   10.9070 H         1 99E         0.0382
     32 H5         37.0647    2.3180   12.7270 H         1 99E         0.0248
     33 H6         37.5101    3.5857   13.9191 H         1 99E         0.0248
     34 H7         38.6791    3.1011   12.6442 H         1 99E         0.0248
     35 H8         35.1168    6.0123   15.4629 H         1 99E         0.0441
     36 H9         35.7576    4.8380   14.2641 H         1 99E         0.0441
     37 H10        34.9583    6.3464   13.7051 H         1 99E         0.0441
     38 H11        39.9842    7.9882   11.3249 H         1 99E         0.2317
     39 H12        38.4686    8.9459   14.6716 H         1 99E         0.0449
     40 H13        38.8221    9.8168   13.1408 H         1 99E         0.0449
     41 H14        40.1301    8.9246   13.9892 H         1 99E         0.0449
     42 H15        39.4066    3.7879   10.5873 H         1 99E         0.1854
     43 H16        39.5767    2.9507    8.4152 H         1 99E         0.0662
     44 H17        39.4277    4.6289    7.7921 H         1 99E         0.0662
     45 H18        43.5552    5.8305    6.3220 H         1 99E         0.0558
     46 H19        45.1561    4.1653    7.2067 H         1 99E         0.0515
     47 H20        42.6205    0.3241   10.8019 H         1 99E         0.0472
     48 H21        44.9767    0.5193   10.0876 H         1 99E         0.0550
     49 H22        40.1537    5.7822    7.1997 H         1 99E         0.2438
@<TRIPOS>BOND
     1   24    1 1  
     2    2   18 1  
     3    2   19 ar 
     4   23    2 ar 
     5   22    3 ar 
     6    3   26 ar 
     7    4    5 1  
     8   12    4 1  
     9   13    6 1  
    10    7    8 1  
    11   15    7 am 
    12    7   16 2  
    13    8    9 1  
    14    8   12 2  
    15    9   10 1  
    16   11   10 2  
    17   10   14 1  
    18   12   11 1  
    19   11   13 1  
    20   13   17 2  
    21   18   15 1  
    22   19   20 ar 
    23   19   27 1  
    24   21   20 ar 
    25   22   21 ar 
    26   23   22 ar 
    27   23   24 ar 
    28   24   25 ar 
    29   25   26 ar 
    30    1   28 1  
    31    3   29 1  
    32    4   30 1  
    33    4   31 1  
    34    5   32 1  
    35    5   33 1  
    36    5   34 1  
    37    6   35 1  
    38    6   36 1  
    39    6   37 1  
    40    9   38 1  
    41   14   39 1  
    42   14   40 1  
    43   14   41 1  
    44   15   42 1  
    45   18   43 1  
    46   18   44 1  
    47   20   45 1  
    48   21   46 1  
    49   25   47 1  
    50   26   48 1  
    51   27   49 1  
@<TRIPOS>SUBSTRUCTURE
     1 99E         1

