### 
### Created by X-TOOL on Wed Jan  1 15:39:38 2020
### 

@<TRIPOS>MOLECULE
5nud_ligand
   27    28     1     0     0
SMALL
GAST_HUCK


@<TRIPOS>ATOM
      1 O1         25.0710    0.9450  -53.4000 O.2       1 99K        -0.1364
      2 O3         24.7880    2.6960  -54.7580 O.2       1 99K        -0.1364
      3 C11        24.3900   -2.6550  -54.1730 C.ar      1 99K         0.2571
      4 C13        23.7540   -4.9080  -54.6270 C.ar      1 99K         0.0576
      5 C14        24.7330   -5.4260  -53.7660 C.ar      1 99K         0.0894
      6 C15        25.5430   -4.5060  -53.0910 C.ar      1 99K         0.0225
      7 C16        25.3600   -3.1270  -53.2680 C.ar      1 99K         0.1681
      8 C18        24.9610   -6.9310  -53.5770 C.3       1 99K         0.3897
      9 N2         24.6230    1.5000  -54.6120 N.2       1 99K         0.0782
     10 C4         23.9690    0.7710  -55.5610 C.ar      1 99K         0.2539
     11 C5         23.4910    1.4340  -56.7170 C.ar      1 99K         0.0373
     12 C6         22.7850    0.7560  -57.7110 C.ar      1 99K         0.0119
     13 C7         22.5690   -0.6110  -57.5140 C.ar      1 99K         0.0582
     14 N8         23.0430   -1.2440  -56.4160 N.ar      1 99K        -0.2017
     15 C9         23.7380   -0.6240  -55.4300 C.ar      1 99K         0.2781
     16 N10        24.1720   -1.3180  -54.3310 N.pl3     1 99K        -0.1607
     17 N12        23.6030   -3.5740  -54.7800 N.ar      1 99K        -0.2040
     18 CL         26.4010   -2.0590  -52.3410 Cl        1 99K        -0.0228
     19 F19        23.9300   -7.6650  -54.0490 F         1 99K        -0.2172
     20 F20        26.0550   -7.2920  -54.2740 F         1 99K        -0.2172
     21 F21        25.1630   -7.2650  -52.2760 F         1 99K        -0.2172
     22 H1         23.1109   -5.5861  -55.1762 H         1 99K         0.1129
     23 H2         26.3198   -4.8629  -52.4245 H         1 99K         0.1005
     24 H3         23.6784    2.4954  -56.8327 H         1 99K         0.0908
     25 H4         22.4206    1.2658  -58.5955 H         1 99K         0.1031
     26 H5         22.0118   -1.1740  -58.2541 H         1 99K         0.1058
     27 H6         24.3624   -0.7428  -53.4981 H         1 99K         0.2987
@<TRIPOS>BOND
     1    9    1 2  
     2    9    2 2  
     3    3    7 ar 
     4   16    3 1  
     5    3   17 ar 
     6    4    5 ar 
     7   17    4 ar 
     8    6    5 ar 
     9    5    8 1  
    10    7    6 ar 
    11    7   18 1  
    12    8   19 1  
    13    8   20 1  
    14    8   21 1  
    15   10    9 1  
    16   10   11 ar 
    17   15   10 ar 
    18   11   12 ar 
    19   13   12 ar 
    20   14   13 ar 
    21   15   14 ar 
    22   15   16 1  
    23    4   22 1  
    24    6   23 1  
    25   11   24 1  
    26   12   25 1  
    27   13   26 1  
    28   16   27 1  
@<TRIPOS>SUBSTRUCTURE
     1 99K         1

