### 
### Created by X-TOOL on Wed Jan  1 15:39:35 2020
### 

@<TRIPOS>MOLECULE
5nut_ligand
   37    39     1     0     0
SMALL
GAST_HUCK


@<TRIPOS>ATOM
      1 CAA         8.5870   37.2280    6.2400 C.3       1 9A8        -0.0342
      2 CAB         7.2440   37.5200    5.5830 C.3       1 9A8         0.0778
      3 CAC         7.5030   38.3050    4.2950 C.3       1 9A8        -0.0342
      4 OAD         6.4180   38.3090    6.4480 O.3       1 9A8        -0.3094
      5 CAE         6.5280   38.0860    7.7910 C.ar      1 9A8         0.1007
      6 CAJ         5.9900   36.9370    8.3470 C.ar      1 9A8        -0.0235
      7 CAI         6.0960   36.7020    9.7130 C.ar      1 9A8        -0.0474
      8 CAF         7.1530   39.0200    8.6160 C.ar      1 9A8        -0.0235
      9 CAG         7.2500   38.7860    9.9920 C.ar      1 9A8        -0.0474
     10 CAH         6.7340   37.6150   10.5400 C.ar      1 9A8         0.0355
     11 CAK         6.7890   37.3360   11.9100 C.2       1 9A8         0.1534
     12 NAL         5.9760   36.3870   12.3800 N.2       1 9A8        -0.3021
     13 CAM         5.9580   36.0670   13.6810 C.ar      1 9A8         0.0193
     14 CAR         5.0790   35.0740   14.0870 C.ar      1 9A8        -0.0512
     15 CAQ         5.0240   34.7100   15.4160 C.ar      1 9A8        -0.0650
     16 CAP         5.8340   35.3560   16.3480 C.ar      1 9A8        -0.0640
     17 CAO         6.7160   36.3540   15.9380 C.ar      1 9A8        -0.0488
     18 CAN         6.7750   36.7190   14.5970 C.ar      1 9A8         0.0618
     19 CAS         7.6530   37.7090   14.1390 C.2       1 9A8         0.2337
     20 OAT         8.4240   38.3090   14.8850 O.2       1 9A8        -0.3863
     21 NAU         7.6520   38.0170   12.7780 N.am      1 9A8        -0.2014
     22 H1          9.2039   36.6223    5.5599 H         1 9A8         0.0259
     23 H2          8.4243   36.6757    7.1772 H         1 9A8         0.0259
     24 H3          9.1026   38.1751    6.4572 H         1 9A8         0.0259
     25 H4          6.7332   36.5740    5.3505 H         1 9A8         0.0649
     26 H5          6.5450   38.5276    3.8024 H         1 9A8         0.0259
     27 H6          8.1317   37.7054    3.6203 H         1 9A8         0.0259
     28 H7          8.0184   39.2463    4.5366 H         1 9A8         0.0259
     29 H8          5.4838   36.2175    7.7137 H         1 9A8         0.0567
     30 H9          5.6761   35.7966   10.1361 H         1 9A8         0.0664
     31 H10         7.5642   39.9285    8.1910 H         1 9A8         0.0567
     32 H11         7.7280   39.5181   10.6327 H         1 9A8         0.0664
     33 H12         4.4375   34.5858   13.3623 H         1 9A8         0.0567
     34 H13         4.3514   33.9222   15.7354 H         1 9A8         0.0631
     35 H14         5.7778   35.0813   17.3951 H         1 9A8         0.0565
     36 H15         7.3551   36.8451   16.6629 H         1 9A8         0.0647
     37 H16         8.2659   38.7222   12.4232 H         1 9A8         0.2488
@<TRIPOS>BOND
     1    1    2 1  
     2    2    3 1  
     3    2    4 1  
     4    4    5 1  
     5    5    6 ar 
     6    5    8 ar 
     7    6    7 ar 
     8    7   10 ar 
     9    8    9 ar 
    10    9   10 ar 
    11   10   11 1  
    12   11   12 2  
    13   11   21 1  
    14   12   13 1  
    15   13   14 ar 
    16   13   18 ar 
    17   14   15 ar 
    18   15   16 ar 
    19   16   17 ar 
    20   17   18 ar 
    21   18   19 1  
    22   19   20 2  
    23   19   21 am 
    24    1   22 1  
    25    1   23 1  
    26    1   24 1  
    27    2   25 1  
    28    3   26 1  
    29    3   27 1  
    30    3   28 1  
    31    6   29 1  
    32    7   30 1  
    33    8   31 1  
    34    9   32 1  
    35   14   33 1  
    36   15   34 1  
    37   16   35 1  
    38   17   36 1  
    39   21   37 1  
@<TRIPOS>SUBSTRUCTURE
     1 9A8         1

