### 
### Created by X-TOOL on Mon Aug  2 16:12:09 2021
### 

@<TRIPOS>MOLECULE
5nuu_ligand
   70    74     1     0     0
SMALL
GAST_HUCK


@<TRIPOS>ATOM
      1 CAT       117.8950  126.3780  177.6320 C.ar      1 MOL        -0.0497
      2 CAP       116.7410  126.9470  176.8300 C.ar      1 MOL        -0.0615
      3 CAQ       116.5260  128.4160  177.0720 C.ar      1 MOL        -0.0598
      4 CAU       116.1600  128.6040  178.5660 C.ar      1 MOL        -0.0468
      5 CBE       117.0430  127.9310  179.4370 C.ar      1 MOL         0.0376
      6 CBD       117.8720  126.9030  178.9970 C.ar      1 MOL         0.0172
      7 NAW       118.7050  126.3300  179.8830 N.ar      1 MOL        -0.3396
      8 CBG       118.7860  126.7160  181.1640 C.ar      1 MOL         0.0175
      9 CAK       119.6810  126.0820  182.0060 C.ar      1 MOL        -0.0358
     10 CBB       119.7920  126.4650  183.3360 C.ar      1 MOL         0.0415
     11 CL        120.8570  125.6930  184.2910 Cl        1 MOL        -0.0657
     12 CAF       119.0370  127.5030  183.8290 C.ar      1 MOL        -0.0459
     13 CAI       118.1490  128.1440  182.9690 C.ar      1 MOL        -0.0465
     14 CBJ       118.0220  127.7460  181.6410 C.ar      1 MOL         0.0376
     15 CBF       117.1400  128.3460  180.7650 C.ar      1 MOL         0.0975
     16 NAY       116.3670  129.3650  181.2110 N.pl3     1 MOL        -0.2965
     17 CAS       114.9600  129.1620  181.5780 C.3       1 MOL         0.0343
     18 CAO       114.7520  129.6590  183.0230 C.3       1 MOL        -0.0313
     19 CAM       113.2340  129.5400  183.2680 C.3       1 MOL        -0.0510
     20 CAL       112.8850  128.9780  184.6920 C.3       1 MOL        -0.0512
     21 CAN       112.0750  127.6620  184.5070 C.3       1 MOL        -0.0327
     22 CAR       111.7590  126.8940  185.7880 C.3       1 MOL         0.0311
     23 NAX       110.7100  127.6090  186.5230 N.am      1 MOL        -0.2822
     24 C         109.9870  127.0400  187.5180 C.2       1 MOL         0.2257
     25 O         110.1550  125.8760  187.9150 O.2       1 MOL        -0.3907
     26 CA        108.9120  128.0100  188.1070 C.3       1 MOL         0.0689
     27 N         108.2900  128.7020  186.9520 N.4       1 MOL         0.2388
     28 CB        107.9050  127.3150  189.0480 C.3       1 MOL         0.0245
     29 CG        106.5530  128.1320  189.2410 C.2       1 MOL        -0.0386
     30 CD2       106.3300  129.4770  189.3910 C.ar      1 MOL        -0.0213
     31 CE3       107.1300  130.5840  189.3900 C.ar      1 MOL        -0.0747
     32 CZ3       106.6010  131.8860  189.5560 C.ar      1 MOL        -0.0792
     33 CH2       105.2180  132.0520  189.7120 C.ar      1 MOL        -0.0768
     34 CZ2       104.4280  130.8860  189.7070 C.ar      1 MOL        -0.0443
     35 CE2       104.9860  129.6510  189.5510 C.ar      1 MOL         0.0603
     36 NE1       104.4230  128.4310  189.5180 N.pl3     1 MOL        -0.2890
     37 CD1       105.3720  127.5060  189.3280 C.2       1 MOL         0.0168
     38 H1        118.6319  125.6816  177.2486 H         1 MOL         0.0582
     39 H2        116.1342  126.3568  176.1529 H         1 MOL         0.0657
     40 H3        116.6119  129.2037  176.3322 H         1 MOL         0.0582
     41 H4        115.3145  129.1909  178.9063 H         1 MOL         0.0675
     42 H5        120.3013  125.2791  181.6245 H         1 MOL         0.0587
     43 H6        119.1308  127.8150  184.8629 H         1 MOL         0.0587
     44 H7        117.5471  128.9659  183.3394 H         1 MOL         0.0674
     45 H8        116.7767  130.3063  181.2948 H         1 MOL         0.1941
     46 H9        114.7110  128.0924  181.5146 H         1 MOL         0.0539
     47 H10       114.3128  129.7304  180.8939 H         1 MOL         0.0539
     48 H11       115.0796  130.7042  183.1239 H         1 MOL         0.0286
     49 H12       115.3092  129.0299  183.7328 H         1 MOL         0.0286
     50 H13       112.8085  128.8651  182.5108 H         1 MOL         0.0266
     51 H14       112.7829  130.5379  183.1647 H         1 MOL         0.0266
     52 H15       112.2815  129.7126  185.2452 H         1 MOL         0.0266
     53 H16       113.8110  128.7707  185.2483 H         1 MOL         0.0266
     54 H17       112.6547  126.9979  183.8490 H         1 MOL         0.0285
     55 H18       111.1213  127.9174  184.0220 H         1 MOL         0.0285
     56 H19       112.6637  126.8244  186.4098 H         1 MOL         0.0520
     57 H20       111.4089  125.8823  185.5354 H         1 MOL         0.0520
     58 H21       110.5197  128.5598  186.2786 H         1 MOL         0.1852
     59 H22       109.4328  128.7667  188.7120 H         1 MOL         0.1114
     60 H23       107.5856  129.3423  187.2835 H         1 MOL         0.2016
     61 H24       107.8650  128.0216  186.3417 H         1 MOL         0.2016
     62 H25       108.9966  129.2125  186.4458 H         1 MOL         0.2016
     63 H26       108.3787  127.1871  190.0325 H         1 MOL         0.0430
     64 H27       107.6593  126.3283  188.6284 H         1 MOL         0.0430
     65 H28       108.1991  130.4619  189.2585 H         1 MOL         0.0540
     66 H29       107.2594  132.7471  189.5625 H         1 MOL         0.0510
     67 H30       104.7759  133.0345  189.8312 H         1 MOL         0.0530
     68 H31       103.3544  130.9717  189.8296 H         1 MOL         0.0541
     69 H32       103.4168  128.2376  189.6227 H         1 MOL         0.2216
     70 H33       105.2116  126.4312  189.2566 H         1 MOL         0.0795
@<TRIPOS>BOND
     1    1    2 ar 
     2    1    6 ar 
     3    2    3 ar 
     4    3    4 ar 
     5    4    5 ar 
     6    5    6 ar 
     7    5   15 ar 
     8    6    7 ar 
     9    7    8 ar 
    10    8    9 ar 
    11    8   14 ar 
    12    9   10 ar 
    13   10   11 1  
    14   10   12 ar 
    15   12   13 ar 
    16   13   14 ar 
    17   14   15 ar 
    18   15   16 1  
    19   16   17 1  
    20   17   18 1  
    21   18   19 1  
    22   19   20 1  
    23   20   21 1  
    24   21   22 1  
    25   22   23 1  
    26   23   24 am 
    27   24   25 2  
    28   24   26 1  
    29   26   27 1  
    30   26   28 1  
    31   28   29 1  
    32   29   30 1  
    33   29   37 2  
    34   30   31 ar 
    35   30   35 ar 
    36   31   32 ar 
    37   32   33 ar 
    38   33   34 ar 
    39   34   35 ar 
    40   35   36 1  
    41   36   37 1  
    42    1   38 1  
    43    2   39 1  
    44    3   40 1  
    45    4   41 1  
    46    9   42 1  
    47   12   43 1  
    48   13   44 1  
    49   16   45 1  
    50   17   46 1  
    51   17   47 1  
    52   18   48 1  
    53   18   49 1  
    54   19   50 1  
    55   19   51 1  
    56   20   52 1  
    57   20   53 1  
    58   21   54 1  
    59   21   55 1  
    60   22   56 1  
    61   22   57 1  
    62   23   58 1  
    63   26   59 1  
    64   27   60 1  
    65   27   61 1  
    66   27   62 1  
    67   28   63 1  
    68   28   64 1  
    69   31   65 1  
    70   32   66 1  
    71   33   67 1  
    72   34   68 1  
    73   36   69 1  
    74   37   70 1  
@<TRIPOS>SUBSTRUCTURE
     1 MOL         1

