### 
### Created by X-TOOL on Wed Jan  1 15:39:36 2020
### 

@<TRIPOS>MOLECULE
5nvc_ligand
   28    30     1     0     0
SMALL
GAST_HUCK


@<TRIPOS>ATOM
      1 CAG         5.9190   37.2170    9.6880 C.ar      1 9AN        -0.0121
      2 CAB         5.8380   37.6730    8.3750 C.ar      1 9AN         0.0949
      3 OAA         5.2380   36.9210    7.4110 O.3       1 9AN        -0.3317
      4 CAC         6.4110   38.8830    8.0220 C.ar      1 9AN        -0.0268
      5 CAD         7.0430   39.6390    8.9850 C.ar      1 9AN        -0.0625
      6 CAE         7.1130   39.1980   10.3050 C.ar      1 9AN        -0.0509
      7 CAF         6.5700   37.9730   10.6600 C.ar      1 9AN         0.0369
      8 CAH         6.6170   37.5420   11.9940 C.2       1 9AN         0.1589
      9 NAI         5.8010   36.5710   12.4010 N.2       1 9AN        -0.2961
     10 CAJ         5.8130   36.1480   13.6800 C.ar      1 9AN         0.0228
     11 CAO         4.9320   35.1410   14.0440 C.ar      1 9AN        -0.0500
     12 CAN         4.8980   34.6930   15.3510 C.ar      1 9AN        -0.0643
     13 CAM         5.7370   35.2590   16.3080 C.ar      1 9AN        -0.0633
     14 CAL         6.6140   36.2810   15.9450 C.ar      1 9AN        -0.0480
     15 CAK         6.6370   36.7300   14.6380 C.ar      1 9AN         0.0632
     16 CAP         7.5200   37.7450   14.2430 C.2       1 9AN         0.2345
     17 OAQ         8.3190   38.2700   15.0290 O.2       1 9AN        -0.3861
     18 NAR         7.4880   38.1360   12.9080 N.am      1 9AN        -0.1997
     19 H1          5.4721   36.2664    9.9558 H         1 9AN         0.0606
     20 H2          5.2738   37.3837    6.5820 H         1 9AN         0.2480
     21 H3          6.3628   39.2325    6.9970 H         1 9AN         0.0597
     22 H4          7.4910   40.5878    8.7127 H         1 9AN         0.0607
     23 H5          7.5933   39.8145   11.0562 H         1 9AN         0.0595
     24 H6          4.2704   34.7055   13.3040 H         1 9AN         0.0573
     25 H7          4.2162   33.8986   15.6323 H         1 9AN         0.0632
     26 H8          5.7084   34.9060   17.3325 H         1 9AN         0.0570
     27 H9          7.2740   36.7208   16.6840 H         1 9AN         0.0648
     28 H10         8.1037   38.8597   12.5963 H         1 9AN         0.2496
@<TRIPOS>BOND
     1    1    2 ar 
     2    1    7 ar 
     3    2    3 1  
     4    2    4 ar 
     5    4    5 ar 
     6    5    6 ar 
     7    6    7 ar 
     8    7    8 1  
     9    8    9 2  
    10    8   18 1  
    11    9   10 1  
    12   10   11 ar 
    13   10   15 ar 
    14   11   12 ar 
    15   12   13 ar 
    16   13   14 ar 
    17   14   15 ar 
    18   15   16 1  
    19   16   17 2  
    20   16   18 am 
    21    1   19 1  
    22    3   20 1  
    23    4   21 1  
    24    5   22 1  
    25    6   23 1  
    26   11   24 1  
    27   12   25 1  
    28   13   26 1  
    29   14   27 1  
    30   18   28 1  
@<TRIPOS>SUBSTRUCTURE
     1 9AN         1

