### 
### Created by X-TOOL on Wed Jan  1 15:39:36 2020
### 

@<TRIPOS>MOLECULE
5nve_ligand
   34    36     1     0     0
SMALL
GAST_HUCK


@<TRIPOS>ATOM
      1 CAA         6.1810   38.1730    4.3100 C.3       1 9AQ        -0.0368
      2 CAB         6.2340   37.6910    5.7620 C.3       1 9AQ         0.0698
      3 OAC         6.1890   38.8210    6.6320 O.3       1 9AQ        -0.3123
      4 CAD         6.2970   38.4790    7.9500 C.ar      1 9AQ         0.1003
      5 CAI         6.8780   39.3620    8.8470 C.ar      1 9AQ        -0.0235
      6 CAH         6.9950   39.0260   10.2010 C.ar      1 9AQ        -0.0474
      7 CAE         5.8120   37.2680    8.4090 C.ar      1 9AQ        -0.0235
      8 CAF         5.9290   36.9270    9.7560 C.ar      1 9AQ        -0.0474
      9 CAG         6.5340   37.7940   10.6640 C.ar      1 9AQ         0.0355
     10 CAJ         6.5940   37.4340   12.0250 C.2       1 9AQ         0.1534
     11 NAK         5.8050   36.4490   12.4690 N.2       1 9AQ        -0.3021
     12 CAL         5.8170   36.0860   13.7680 C.ar      1 9AQ         0.0193
     13 CAQ         4.9720   35.0580   14.1640 C.ar      1 9AQ        -0.0512
     14 CAP         4.9320   34.6550   15.4830 C.ar      1 9AQ        -0.0650
     15 CAO         5.7350   35.2890   16.4190 C.ar      1 9AQ        -0.0640
     16 CAN         6.5920   36.3160   16.0250 C.ar      1 9AQ        -0.0488
     17 CAM         6.6330   36.7240   14.6990 C.ar      1 9AQ         0.0618
     18 CAR         7.4930   37.7440   14.2590 C.2       1 9AQ         0.2337
     19 OAS         8.2640   38.3500   15.0110 O.2       1 9AQ        -0.3863
     20 NAT         7.4510   38.0890   12.9150 N.am      1 9AQ        -0.2014
     21 H1          6.2154   37.3057    3.6343 H         1 9AQ         0.0256
     22 H2          7.0414   38.8283    4.1095 H         1 9AQ         0.0256
     23 H3          5.2481   38.7313    4.1428 H         1 9AQ         0.0256
     24 H4          7.1669   37.1333    5.9310 H         1 9AQ         0.0615
     25 H5          5.3736   37.0362    5.9642 H         1 9AQ         0.0615
     26 H6          7.2446   40.3203    8.4972 H         1 9AQ         0.0567
     27 H7          7.4464   39.7274   10.8933 H         1 9AQ         0.0664
     28 H8          5.3383   36.5801    7.7179 H         1 9AQ         0.0567
     29 H9          5.5441   35.9744   10.1016 H         1 9AQ         0.0664
     30 H10         4.3395   34.5688   13.4321 H         1 9AQ         0.0567
     31 H11         4.2762   33.8468   15.7860 H         1 9AQ         0.0631
     32 H12         5.6964   34.9857   17.4590 H         1 9AQ         0.0565
     33 H13         7.2291   36.7979   16.7577 H         1 9AQ         0.0647
     34 H14         8.0445   38.8194   12.5770 H         1 9AQ         0.2488
@<TRIPOS>BOND
     1    1    2 1  
     2    2    3 1  
     3    3    4 1  
     4    4    5 ar 
     5    4    7 ar 
     6    5    6 ar 
     7    6    9 ar 
     8    7    8 ar 
     9    8    9 ar 
    10    9   10 1  
    11   10   11 2  
    12   10   20 1  
    13   11   12 1  
    14   12   13 ar 
    15   12   17 ar 
    16   13   14 ar 
    17   14   15 ar 
    18   15   16 ar 
    19   16   17 ar 
    20   17   18 1  
    21   18   19 2  
    22   18   20 am 
    23    1   21 1  
    24    1   22 1  
    25    1   23 1  
    26    2   24 1  
    27    2   25 1  
    28    5   26 1  
    29    6   27 1  
    30    7   28 1  
    31    8   29 1  
    32   13   30 1  
    33   14   31 1  
    34   15   32 1  
    35   16   33 1  
    36   20   34 1  
@<TRIPOS>SUBSTRUCTURE
     1 9AQ         1

