### 
### Created by X-TOOL on Wed Jan  1 15:39:35 2020
### 

@<TRIPOS>MOLECULE
5nvf_ligand
   36    39     1     0     0
SMALL
GAST_HUCK


@<TRIPOS>ATOM
      1 CAW         5.7030   39.9600    6.2360 C.ar      1 9AW        -0.0256
      2 CAV         5.4730   40.2950    4.8890 C.ar      1 9AW        -0.0413
      3 CAU         5.7230   39.3240    3.9180 C.ar      1 9AW        -0.0336
      4 CAT         6.2070   38.0720    4.2790 C.ar      1 9AW         0.0110
      5 NAS         6.4150   37.7610    5.6400 N.ar      1 9AW        -0.2902
      6 CAR         6.2070   38.7010    6.5840 C.ar      1 9AW         0.0562
      7 CAO         6.3830   38.3640    7.9510 C.ar      1 9AW         0.0051
      8 CAP         5.9530   37.1260    8.4220 C.ar      1 9AW        -0.0438
      9 CAQ         6.0580   36.7470    9.7600 C.ar      1 9AW        -0.0384
     10 CAN         6.8730   39.2650    8.8890 C.ar      1 9AW        -0.0438
     11 CAM         6.9770   38.9040   10.2460 C.ar      1 9AW        -0.0384
     12 CAL         6.6000   37.6160   10.7090 C.ar      1 9AW         0.0464
     13 CAD         6.6200   37.2740   12.0780 C.2       1 9AW         0.1619
     14 NAE         5.7890   36.3170   12.5540 N.2       1 9AW        -0.2955
     15 CAF         5.7430   36.0290   13.8670 C.ar      1 9AW         0.0232
     16 CAK         4.8810   35.0030   14.2510 C.ar      1 9AW        -0.0499
     17 CAJ         4.7690   34.6730   15.5910 C.ar      1 9AW        -0.0642
     18 CAI         5.5020   35.3890   16.5630 C.ar      1 9AW        -0.0632
     19 CAH         6.3570   36.4130   16.1700 C.ar      1 9AW        -0.0479
     20 CAG         6.4660   36.7450   14.8260 C.ar      1 9AW         0.0633
     21 CAB         7.3490   37.7340   14.3600 C.2       1 9AW         0.2344
     22 OAA         8.0960   38.4060   15.0910 O.2       1 9AW        -0.3862
     23 NAC         7.3670   38.0020   12.9840 N.am      1 9AW        -0.1998
     24 H1          5.4876   40.6846    7.0129 H         1 9AW         0.0723
     25 H2          5.1119   41.2792    4.6132 H         1 9AW         0.0737
     26 H3          5.5382   39.5481    2.8737 H         1 9AW         0.0712
     27 H4          6.4248   37.3343    3.5152 H         1 9AW         0.0829
     28 H5          5.5176   36.4263    7.7178 H         1 9AW         0.0653
     29 H6          5.7146   35.7657   10.0670 H         1 9AW         0.0688
     30 H7          7.1782   40.2559    8.5726 H         1 9AW         0.0653
     31 H8          7.3554   39.6296   10.9569 H         1 9AW         0.0688
     32 H9          4.3029   34.4678   13.5064 H         1 9AW         0.0574
     33 H10         4.1166   33.8625   15.8951 H         1 9AW         0.0633
     34 H11         5.3984   35.1409   17.6131 H         1 9AW         0.0571
     35 H12         6.9371   36.9508   16.9112 H         1 9AW         0.0649
     36 H13         7.9416   38.7474   12.6459 H         1 9AW         0.2493
@<TRIPOS>BOND
     1    1    2 ar 
     2    1    6 ar 
     3    2    3 ar 
     4    3    4 ar 
     5    4    5 ar 
     6    5    6 ar 
     7    6    7 1  
     8    7    8 ar 
     9    7   10 ar 
    10    8    9 ar 
    11    9   12 ar 
    12   10   11 ar 
    13   11   12 ar 
    14   12   13 1  
    15   13   14 2  
    16   13   23 1  
    17   14   15 1  
    18   15   16 ar 
    19   15   20 ar 
    20   16   17 ar 
    21   17   18 ar 
    22   18   19 ar 
    23   19   20 ar 
    24   20   21 1  
    25   21   22 2  
    26   21   23 am 
    27    1   24 1  
    28    2   25 1  
    29    3   26 1  
    30    4   27 1  
    31    8   28 1  
    32    9   29 1  
    33   10   30 1  
    34   11   31 1  
    35   16   32 1  
    36   17   33 1  
    37   18   34 1  
    38   19   35 1  
    39   23   36 1  
@<TRIPOS>SUBSTRUCTURE
     1 9AW         1

