### 
### Created by X-TOOL on Wed Jan  1 15:39:36 2020
### 

@<TRIPOS>MOLECULE
5nvh_ligand
   42    45     1     0     0
SMALL
GAST_HUCK


@<TRIPOS>ATOM
      1 CAS         6.5060   40.1240    6.1940 C.3       1 9B2         0.0288
      2 CAT         5.7310   40.5410    5.0190 C.3       1 9B2        -0.0328
      3 CAU         6.1230   39.5960    3.9150 C.3       1 9B2        -0.0494
      4 CAV         5.5160   38.2480    4.1650 C.3       1 9B2        -0.0328
      5 CAW         5.8150   37.6950    5.5680 C.3       1 9B2         0.0288
      6 NAR         6.3050   38.6950    6.5910 N.pl3     1 9B2        -0.3038
      7 CAO         6.4200   38.3420    7.9150 C.ar      1 9B2         0.0497
      8 CAP         7.0230   39.1810    8.8570 C.ar      1 9B2        -0.0345
      9 CAQ         7.0960   38.8340   10.2110 C.ar      1 9B2        -0.0503
     10 CAN         5.8880   37.1440    8.4130 C.ar      1 9B2        -0.0345
     11 CAM         5.9770   36.7870    9.7540 C.ar      1 9B2        -0.0503
     12 CAL         6.6060   37.6080   10.6840 C.ar      1 9B2         0.0332
     13 CAD         6.6300   37.2760   12.0550 C.2       1 9B2         0.1516
     14 NAE         5.7990   36.3320   12.5210 N.2       1 9B2        -0.3034
     15 CAF         5.7670   36.0150   13.8280 C.ar      1 9B2         0.0186
     16 CAK         4.8930   35.0100   14.2220 C.ar      1 9B2        -0.0515
     17 CAJ         4.7960   34.6660   15.5630 C.ar      1 9B2        -0.0652
     18 CAI         5.5700   35.3340   16.5220 C.ar      1 9B2        -0.0641
     19 CAH         6.4490   36.3460   16.1190 C.ar      1 9B2        -0.0489
     20 CAG         6.5390   36.6970   14.7790 C.ar      1 9B2         0.0616
     21 CAB         7.4180   37.6950   14.3310 C.2       1 9B2         0.2335
     22 OAA         8.1710   38.3400   15.0710 O.2       1 9B2        -0.3864
     23 NAC         7.4290   37.9650   12.9760 N.am      1 9B2        -0.2018
     24 H1          6.2148   40.7610    7.0422 H         1 9B2         0.0519
     25 H2          7.5732   40.2729    5.9730 H         1 9B2         0.0519
     26 H3          5.9796   41.5765    4.7435 H         1 9B2         0.0285
     27 H4          4.6530   40.4648    5.2240 H         1 9B2         0.0285
     28 H5          7.2187   39.5037    3.8844 H         1 9B2         0.0267
     29 H6          5.7610   39.9873    2.9528 H         1 9B2         0.0267
     30 H7          5.9136   37.5429    3.4202 H         1 9B2         0.0285
     31 H8          4.4253   38.3293    4.0474 H         1 9B2         0.0285
     32 H9          6.5852   36.9166    5.4645 H         1 9B2         0.0519
     33 H10         4.8889   37.2453    5.9556 H         1 9B2         0.0519
     34 H11         7.4449   40.1246    8.5303 H         1 9B2         0.0542
     35 H12         7.5425   39.5303   10.9116 H         1 9B2         0.0659
     36 H13         5.3882   36.4704    7.7263 H         1 9B2         0.0542
     37 H14         5.5465   35.8478   10.0819 H         1 9B2         0.0659
     38 H15         4.2882   34.4957   13.4839 H         1 9B2         0.0566
     39 H16         4.1187   33.8773   15.8702 H         1 9B2         0.0630
     40 H17         5.4883   35.0683   17.5698 H         1 9B2         0.0563
     41 H18         7.0604   36.8564   16.8544 H         1 9B2         0.0646
     42 H19         8.0349   38.6850   12.6376 H         1 9B2         0.2486
@<TRIPOS>BOND
     1    1    2 1  
     2    1    6 1  
     3    2    3 1  
     4    3    4 1  
     5    4    5 1  
     6    5    6 1  
     7    6    7 1  
     8    7    8 ar 
     9    7   10 ar 
    10    8    9 ar 
    11    9   12 ar 
    12   10   11 ar 
    13   11   12 ar 
    14   12   13 1  
    15   13   14 2  
    16   13   23 1  
    17   14   15 1  
    18   15   16 ar 
    19   15   20 ar 
    20   16   17 ar 
    21   17   18 ar 
    22   18   19 ar 
    23   19   20 ar 
    24   20   21 1  
    25   21   22 2  
    26   21   23 am 
    27    1   24 1  
    28    1   25 1  
    29    2   26 1  
    30    2   27 1  
    31    3   28 1  
    32    3   29 1  
    33    4   30 1  
    34    4   31 1  
    35    5   32 1  
    36    5   33 1  
    37    8   34 1  
    38    9   35 1  
    39   10   36 1  
    40   11   37 1  
    41   16   38 1  
    42   17   39 1  
    43   18   40 1  
    44   19   41 1  
    45   23   42 1  
@<TRIPOS>SUBSTRUCTURE
     1 9B2         1

