### 
### Created by X-TOOL on Mon Sep 10 21:13:33 2018
### 

@<TRIPOS>MOLECULE
5nvv_ligand
   66    68     1     0     0
SMALL
GAST_HUCK


@<TRIPOS>ATOM
      1 CAA        12.4800   50.0040   81.1180 C.3       1 9BT        -0.0271
      2 CBA        13.8710   50.5930   81.4010 C.2       1 9BT         0.0119
      3 NAS        14.8160   50.5150   80.4410 N.2       1 9BT        -0.3006
      4 CAN        15.9980   51.0420   80.7600 C.2       1 9BT         0.0738
      5 SAV        15.8910   51.6460   82.2890 S.3       1 9BT        -0.0127
      6 CBC        14.2580   51.1810   82.5460 C.2       1 9BT         0.0479
      7 CBB        13.5140   51.4040   83.6510 C.ar      1 9BT        -0.0244
      8 CAM        12.6360   50.4400   84.1710 C.ar      1 9BT        -0.0654
      9 CAK        11.8660   50.7020   85.3050 C.ar      1 9BT        -0.0617
     10 CAL        13.5850   52.6230   84.3180 C.ar      1 9BT        -0.0654
     11 CAJ        12.8080   52.8880   85.4630 C.ar      1 9BT        -0.0617
     12 CAZ        11.9300   51.9240   85.9730 C.ar      1 9BT        -0.0241
     13 CAP        11.1120   52.1000   87.0990 C.3       1 9BT         0.0631
     14 NAT        11.5940   53.2420   87.9130 N.am      1 9BT        -0.2741
     15 C          12.4080   53.1130   88.9720 C.2       1 9BT         0.2037
     16 O          12.8360   52.0240   89.3400 O.2       1 9BT        -0.3944
     17 CA         12.8290   54.3210   89.5750 C.3       1 9BT         0.1362
     18 CB         14.1620   54.7480   88.9150 C.3       1 9BT         0.0158
     19 CG         14.9970   55.3770   90.0150 C.3       1 9BT         0.0799
     20 OD1        14.6820   56.7690   90.1190 O.3       1 9BT        -0.3896
     21 CD2        14.5780   54.5990   91.2710 C.3       1 9BT         0.0629
     22 N          13.1430   54.2080   91.0430 N.am      1 9BT        -0.2473
     23 CAY        12.1790   53.8410   91.9180 C.2       1 9BT         0.2070
     24 OAG        11.0270   53.6010   91.5680 O.2       1 9BT        -0.3942
     25 CBF        12.5450   53.7690   93.4230 C.3       1 9BT         0.1360
     26 CBH        12.7090   52.3170   93.9400 C.3       1 9BT         0.0026
     27 CAC        11.3850   51.4920   93.8960 C.3       1 9BT        -0.0558
     28 CAD        13.1960   52.3880   95.4100 C.3       1 9BT        -0.0558
     29 CAB        13.7700   51.5520   93.1110 C.3       1 9BT        -0.0558
     30 NAU        11.4160   54.4080   94.0950 N.am      1 9BT        -0.2632
     31 CAW        11.4220   55.5970   94.6920 C.2       1 9BT         0.2041
     32 OAE        12.4140   56.3060   94.8690 O.2       1 9BT        -0.3944
     33 CAO        10.0500   55.9470   95.2650 C.3       1 9BT         0.1332
     34 OAH        10.2460   57.1850   95.9420 O.3       1 9BT        -0.3746
     35 H1         11.8344   50.1498   81.9966 H         1 9BT         0.0382
     36 H2         12.5733   48.9287   80.9060 H         1 9BT         0.0382
     37 H3         12.0366   50.5120   80.2489 H         1 9BT         0.0382
     38 H4         16.8800   51.0686   80.1217 H         1 9BT         0.1176
     39 H5         12.5547   49.4754   83.6832 H         1 9BT         0.0568
     40 H6         11.1988   49.9330   85.6773 H         1 9BT         0.0550
     41 H7         14.2560   53.3892   83.9468 H         1 9BT         0.0568
     42 H8         12.8910   53.8502   85.9552 H         1 9BT         0.0550
     43 H9         11.1332   51.1851   87.7093 H         1 9BT         0.0679
     44 H10        10.0809   52.2981   86.7709 H         1 9BT         0.0679
     45 H11        11.2951   54.1616   87.6579 H         1 9BT         0.1878
     46 H12        12.0533   55.0858   89.4222 H         1 9BT         0.0803
     47 H13        13.9742   55.4782   88.1141 H         1 9BT         0.0338
     48 H14        14.6790   53.8712   88.4980 H         1 9BT         0.0338
     49 H15        16.0727   55.2550   89.8201 H         1 9BT         0.0616
     50 H16        15.2059   57.1605   90.8081 H         1 9BT         0.2099
     51 H17        14.6656   55.2351   92.1641 H         1 9BT         0.0550
     52 H18        15.2050   53.7038   91.3955 H         1 9BT         0.0550
     53 H19        13.4761   54.3234   93.6121 H         1 9BT         0.0805
     54 H20        11.5730   50.4766   94.2750 H         1 9BT         0.0237
     55 H21        11.0227   51.4350   92.8589 H         1 9BT         0.0237
     56 H22        10.6261   51.9828   94.5231 H         1 9BT         0.0237
     57 H23        14.1300   52.9670   95.4593 H         1 9BT         0.0237
     58 H24        13.3754   51.3701   95.7864 H         1 9BT         0.0237
     59 H25        12.4283   52.8773   96.0274 H         1 9BT         0.0237
     60 H26        13.4421   51.4909   92.0628 H         1 9BT         0.0237
     61 H27        13.8907   50.5369   93.5172 H         1 9BT         0.0237
     62 H28        14.7309   52.0848   93.1641 H         1 9BT         0.0237
     63 H29        10.5537   53.9018   94.1075 H         1 9BT         0.1883
     64 H30         9.7131   55.1701   95.9671 H         1 9BT         0.0801
     65 H31         9.3099   56.0587   94.4589 H         1 9BT         0.0801
     66 H32        10.8958   57.0714   96.6256 H         1 9BT         0.2129
@<TRIPOS>BOND
     1    1    2 1  
     2    2    3 1  
     3    2    6 2  
     4    3    4 2  
     5    4    5 1  
     6    5    6 1  
     7    6    7 1  
     8    7    8 ar 
     9    7   10 ar 
    10    8    9 ar 
    11    9   12 ar 
    12   10   11 ar 
    13   11   12 ar 
    14   12   13 1  
    15   13   14 1  
    16   14   15 am 
    17   15   16 2  
    18   15   17 1  
    19   17   18 1  
    20   17   22 1  
    21   18   19 1  
    22   19   20 1  
    23   19   21 1  
    24   21   22 1  
    25   22   23 am 
    26   23   24 2  
    27   23   25 1  
    28   25   26 1  
    29   25   30 1  
    30   26   27 1  
    31   26   28 1  
    32   26   29 1  
    33   30   31 am 
    34   31   32 2  
    35   31   33 1  
    36   33   34 1  
    37    1   35 1  
    38    1   36 1  
    39    1   37 1  
    40    4   38 1  
    41    8   39 1  
    42    9   40 1  
    43   10   41 1  
    44   11   42 1  
    45   13   43 1  
    46   13   44 1  
    47   14   45 1  
    48   17   46 1  
    49   18   47 1  
    50   18   48 1  
    51   19   49 1  
    52   20   50 1  
    53   21   51 1  
    54   21   52 1  
    55   25   53 1  
    56   27   54 1  
    57   27   55 1  
    58   27   56 1  
    59   28   57 1  
    60   28   58 1  
    61   28   59 1  
    62   29   60 1  
    63   29   61 1  
    64   29   62 1  
    65   30   63 1  
    66   33   64 1  
    67   33   65 1  
    68   34   66 1  
@<TRIPOS>SUBSTRUCTURE
     1 9BT         1

