### 
### Created by X-TOOL on Mon Sep 10 21:13:33 2018
### 

@<TRIPOS>MOLECULE
5nvw_ligand
   69    72     1     0     0
SMALL
GAST_HUCK


@<TRIPOS>ATOM
      1 CAN         9.9120   56.5050   96.8240 C.3       1 9BW        -0.0309
      2 CAO         9.4450   57.3180   95.6310 C.3       1 9BW        -0.0309
      3 CBE         9.7950   55.8600   95.4540 C.3       1 9BW         0.0490
      4 CAX        11.1330   55.5190   94.7830 C.2       1 9BW         0.1813
      5 OAF        12.1080   56.2530   94.9320 O.2       1 9BW        -0.3966
      6 NAU        11.1320   54.3500   94.1450 N.am      1 9BW        -0.2649
      7 CBG        12.2870   53.7620   93.4570 C.3       1 9BW         0.1359
      8 CBI        12.5290   52.3070   93.9680 C.3       1 9BW         0.0026
      9 CAD        12.9570   52.3410   95.4420 C.3       1 9BW        -0.0558
     10 CAB        13.6410   51.6210   93.1590 C.3       1 9BW        -0.0558
     11 CAC        11.2600   51.4100   93.9010 C.3       1 9BW        -0.0558
     12 CAY        11.9380   53.8380   91.9450 C.2       1 9BW         0.2070
     13 OAG        10.7840   53.6510   91.6030 O.2       1 9BW        -0.3942
     14 N          12.9060   54.1490   91.0500 N.am      1 9BW        -0.2473
     15 CD2        14.3630   54.4630   91.2390 C.3       1 9BW         0.0629
     16 CG         14.7350   55.2950   90.0070 C.3       1 9BW         0.0799
     17 OD1        14.3900   56.6800   90.1870 O.3       1 9BW        -0.3896
     18 CB         13.8870   54.7060   88.9170 C.3       1 9BW         0.0158
     19 CA         12.5760   54.2660   89.5880 C.3       1 9BW         0.1362
     20 C          12.1460   53.0720   88.9700 C.2       1 9BW         0.2037
     21 O          12.5850   51.9860   89.3210 O.2       1 9BW        -0.3944
     22 NAT        11.3030   53.2220   87.9290 N.am      1 9BW        -0.2741
     23 CAP        10.8110   52.0990   87.1090 C.3       1 9BW         0.0631
     24 CAZ        11.6290   51.8730   85.9640 C.ar      1 9BW        -0.0241
     25 CAI        12.4700   52.8540   85.4320 C.ar      1 9BW        -0.0617
     26 CAK        13.2620   52.6020   84.3060 C.ar      1 9BW        -0.0654
     27 CAJ        11.6090   50.6360   85.3260 C.ar      1 9BW        -0.0617
     28 CAL        12.4000   50.3930   84.1950 C.ar      1 9BW        -0.0654
     29 CBB        13.2390   51.3780   83.6610 C.ar      1 9BW        -0.0244
     30 CBC        14.0020   51.1650   82.5620 C.2       1 9BW         0.0479
     31 SAV        15.6380   51.5780   82.3550 S.3       1 9BW        -0.0127
     32 CAM        15.7760   50.9790   80.8100 C.2       1 9BW         0.0738
     33 NAS        14.5850   50.4760   80.4590 N.2       1 9BW        -0.3006
     34 CBA        13.6200   50.5840   81.4040 C.2       1 9BW         0.0119
     35 CAA        12.2080   50.0310   81.1180 C.3       1 9BW        -0.0271
     36 H1          9.2022   56.2384   97.6209 H         1 9BW         0.0294
     37 H2         10.9035   56.6902   97.2629 H         1 9BW         0.0294
     38 H3         10.0976   58.0951   95.2064 H         1 9BW         0.0294
     39 H4          8.3963   57.6432   95.5644 H         1 9BW         0.0294
     40 H5          9.0228   55.1117   95.2221 H         1 9BW         0.0538
     41 H6         10.2766   53.8321   94.1339 H         1 9BW         0.1883
     42 H7         13.1907   54.3569   93.6552 H         1 9BW         0.0805
     43 H8         13.1265   51.3142   95.7983 H         1 9BW         0.0237
     44 H9         12.1650   52.8116   96.0431 H         1 9BW         0.0237
     45 H10        13.8861   52.9214   95.5408 H         1 9BW         0.0237
     46 H11        13.3540   51.5860   92.0977 H         1 9BW         0.0237
     47 H12        13.7881   50.5970   93.5329 H         1 9BW         0.0237
     48 H13        14.5768   52.1889   93.2672 H         1 9BW         0.0237
     49 H14        10.4476   51.8807   94.4741 H         1 9BW         0.0237
     50 H15        11.4861   50.4223   94.3291 H         1 9BW         0.0237
     51 H16        10.9488   51.2927   92.8525 H         1 9BW         0.0237
     52 H17        14.9585   53.5391   91.2793 H         1 9BW         0.0550
     53 H18        14.5204   55.0412   92.1614 H         1 9BW         0.0550
     54 H19        15.8067   55.2032   89.7769 H         1 9BW         0.0616
     55 H20        14.6318   57.1691   89.4093 H         1 9BW         0.2099
     56 H21        14.3935   53.8407   88.4646 H         1 9BW         0.0338
     57 H22        13.6848   55.4593   88.1413 H         1 9BW         0.0338
     58 H23        11.7963   55.0303   89.4539 H         1 9BW         0.0803
     59 H24        10.9942   54.1452   87.7001 H         1 9BW         0.1878
     60 H25         9.7877   52.3253   86.7748 H         1 9BW         0.0679
     61 H26        10.8026   51.1873   87.7244 H         1 9BW         0.0679
     62 H27        12.5098   53.8304   85.9012 H         1 9BW         0.0550
     63 H28        13.9098   53.3854   83.9296 H         1 9BW         0.0568
     64 H29        10.9714   49.8480   85.7102 H         1 9BW         0.0550
     65 H30        12.3612   49.4184   83.7221 H         1 9BW         0.0568
     66 H31        16.6738   50.9931   80.1938 H         1 9BW         0.1176
     67 H32        12.1764   49.6149   80.1002 H         1 9BW         0.0382
     68 H33        11.4715   50.8434   81.2050 H         1 9BW         0.0382
     69 H34        11.9696   49.2405   81.8448 H         1 9BW         0.0382
@<TRIPOS>BOND
     1    1    2 1  
     2    1    3 1  
     3    2    3 1  
     4    3    4 1  
     5    4    5 2  
     6    4    6 am 
     7    6    7 1  
     8    7    8 1  
     9    7   12 1  
    10    8    9 1  
    11    8   10 1  
    12    8   11 1  
    13   12   13 2  
    14   12   14 am 
    15   14   15 1  
    16   14   19 1  
    17   15   16 1  
    18   16   17 1  
    19   16   18 1  
    20   18   19 1  
    21   19   20 1  
    22   20   21 2  
    23   20   22 am 
    24   22   23 1  
    25   23   24 1  
    26   24   25 ar 
    27   24   27 ar 
    28   25   26 ar 
    29   26   29 ar 
    30   27   28 ar 
    31   28   29 ar 
    32   29   30 1  
    33   30   31 1  
    34   30   34 2  
    35   31   32 1  
    36   32   33 2  
    37   33   34 1  
    38   34   35 1  
    39    1   36 1  
    40    1   37 1  
    41    2   38 1  
    42    2   39 1  
    43    3   40 1  
    44    6   41 1  
    45    7   42 1  
    46    9   43 1  
    47    9   44 1  
    48    9   45 1  
    49   10   46 1  
    50   10   47 1  
    51   10   48 1  
    52   11   49 1  
    53   11   50 1  
    54   11   51 1  
    55   15   52 1  
    56   15   53 1  
    57   16   54 1  
    58   17   55 1  
    59   18   56 1  
    60   18   57 1  
    61   19   58 1  
    62   22   59 1  
    63   23   60 1  
    64   23   61 1  
    65   25   62 1  
    66   26   63 1  
    67   27   64 1  
    68   28   65 1  
    69   32   66 1  
    70   35   67 1  
    71   35   68 1  
    72   35   69 1  
@<TRIPOS>SUBSTRUCTURE
     1 9BW         1

