### 
### Created by X-TOOL on Mon Sep 10 21:13:33 2018
### 

@<TRIPOS>MOLECULE
5nvx_ligand
   69    72     1     0     0
SMALL
GAST_HUCK


@<TRIPOS>ATOM
      1 CAO        10.2010   56.7800   96.8960 C.3       1 4YY        -0.0098
      2 CAP         9.7200   57.5010   95.6460 C.3       1 4YY        -0.0098
      3 CBJ        10.1120   56.0430   95.5630 C.3       1 4YY         0.1890
      4 FAI         9.1570   55.1980   95.4460 F         1 4YY        -0.2375
      5 CAY        11.4290   55.6500   94.8770 C.2       1 4YY         0.2352
      6 OAF        12.4260   56.3500   95.0050 O.2       1 4YY        -0.3413
      7 NAV        11.3780   54.4730   94.2460 N.am      1 4YY        -0.2619
      8 CBG        12.4960   53.8460   93.5140 C.3       1 4YY         0.1361
      9 CBI        12.7200   52.3930   94.0120 C.3       1 4YY         0.0027
     10 CAD        13.1750   52.4790   95.4710 C.3       1 4YY        -0.0558
     11 CAB        13.8070   51.7170   93.1780 C.3       1 4YY        -0.0558
     12 CAC        11.4280   51.5250   93.9440 C.3       1 4YY        -0.0558
     13 CAZ        12.1460   53.9270   92.0040 C.2       1 4YY         0.2072
     14 OAG        10.9930   53.7360   91.6450 O.2       1 4YY        -0.3941
     15 N          13.1200   54.2780   91.1270 N.am      1 4YY        -0.2472
     16 CD2        14.5630   54.6050   91.3470 C.3       1 4YY         0.0629
     17 CG         14.9560   55.4380   90.1230 C.3       1 4YY         0.0799
     18 OD1        14.5500   56.8090   90.2800 O.3       1 4YY        -0.3896
     19 CB         14.1580   54.8120   89.0040 C.3       1 4YY         0.0158
     20 CA         12.8150   54.4200   89.6400 C.3       1 4YY         0.1362
     21 C          12.3910   53.2210   89.0350 C.2       1 4YY         0.2037
     22 O          12.8460   52.1490   89.4130 O.2       1 4YY        -0.3944
     23 NAU        11.5400   53.3430   87.9880 N.am      1 4YY        -0.2741
     24 CAQ        11.0680   52.1970   87.1810 C.3       1 4YY         0.0631
     25 CBB        11.8860   51.9730   86.0200 C.ar      1 4YY        -0.0241
     26 CAJ        11.8070   50.7560   85.3530 C.ar      1 4YY        -0.0617
     27 CAL        12.5770   50.5030   84.2130 C.ar      1 4YY        -0.0654
     28 CAK        12.7640   52.9360   85.5020 C.ar      1 4YY        -0.0617
     29 CAM        13.5380   52.6840   84.3550 C.ar      1 4YY        -0.0654
     30 CBC        13.4510   51.4650   83.6890 C.ar      1 4YY        -0.0244
     31 CBD        14.2000   51.2400   82.5860 C.2       1 4YY         0.0479
     32 SAW        15.8260   51.7050   82.3860 S.3       1 4YY        -0.0127
     33 CAN        15.9760   51.0920   80.8460 C.2       1 4YY         0.0738
     34 NAT        14.8050   50.5490   80.4960 N.2       1 4YY        -0.3006
     35 CBA        13.8390   50.6280   81.4340 C.2       1 4YY         0.0119
     36 CAA        12.4650   50.0160   81.1340 C.3       1 4YY        -0.0271
     37 H1          9.4926   56.5453   97.7041 H         1 4YY         0.0282
     38 H2         11.1834   57.0213   97.3281 H         1 4YY         0.0282
     39 H3         10.3540   58.2674   95.1762 H         1 4YY         0.0282
     40 H4          8.6632   57.7914   95.5522 H         1 4YY         0.0282
     41 H5         10.5107   53.9759   94.2719 H         1 4YY         0.1890
     42 H6         13.4184   54.4169   93.6961 H         1 4YY         0.0807
     43 H7         13.3451   51.4651   95.8624 H         1 4YY         0.0237
     44 H8         12.3975   52.9771   96.0688 H         1 4YY         0.0237
     45 H9         14.1094   53.0564   95.5303 H         1 4YY         0.0237
     46 H10        13.4796   51.6554   92.1296 H         1 4YY         0.0237
     47 H11        13.9894   50.7037   93.5653 H         1 4YY         0.0237
     48 H12        14.7346   52.3052   93.2385 H         1 4YY         0.0237
     49 H13        10.6354   52.0000   94.5408 H         1 4YY         0.0237
     50 H14        11.6382   50.5226   94.3452 H         1 4YY         0.0237
     51 H15        11.0982   51.4397   92.8981 H         1 4YY         0.0237
     52 H16        15.1661   53.6868   91.4027 H         1 4YY         0.0550
     53 H17        14.6938   55.1863   92.2716 H         1 4YY         0.0550
     54 H18        16.0378   55.3821   89.9320 H         1 4YY         0.0616
     55 H19        14.9717   57.1770   91.0476 H         1 4YY         0.2099
     56 H20        14.6738   53.9229   88.6124 H         1 4YY         0.0338
     57 H21        14.0030   55.5346   88.1892 H         1 4YY         0.0338
     58 H22        12.0551   55.1996   89.4828 H         1 4YY         0.0803
     59 H23        11.2134   54.2571   87.7479 H         1 4YY         0.1878
     60 H24        10.0367   52.3956   86.8540 H         1 4YY         0.0679
     61 H25        11.0866   51.2924   87.8065 H         1 4YY         0.0679
     62 H26        11.1364   49.9890   85.7231 H         1 4YY         0.0550
     63 H27        12.4957   49.5395   83.7230 H         1 4YY         0.0568
     64 H28        12.8481   53.8967   85.9970 H         1 4YY         0.0550
     65 H29        14.2109   53.4490   83.9849 H         1 4YY         0.0568
     66 H30        16.8731   51.1270   80.2296 H         1 4YY         0.1176
     67 H31        12.4668   49.5902   80.1197 H         1 4YY         0.0382
     68 H32        11.6930   50.7966   81.2025 H         1 4YY         0.0382
     69 H33        12.2497   49.2222   81.8645 H         1 4YY         0.0382
@<TRIPOS>BOND
     1    1    2 1  
     2    1    3 1  
     3    2    3 1  
     4    3    4 1  
     5    3    5 1  
     6    5    6 2  
     7    5    7 am 
     8    7    8 1  
     9    8    9 1  
    10    8   13 1  
    11    9   10 1  
    12    9   11 1  
    13    9   12 1  
    14   13   14 2  
    15   13   15 am 
    16   15   16 1  
    17   15   20 1  
    18   16   17 1  
    19   17   18 1  
    20   17   19 1  
    21   19   20 1  
    22   20   21 1  
    23   21   22 2  
    24   21   23 am 
    25   23   24 1  
    26   24   25 1  
    27   25   26 ar 
    28   25   28 ar 
    29   26   27 ar 
    30   27   30 ar 
    31   28   29 ar 
    32   29   30 ar 
    33   30   31 1  
    34   31   32 1  
    35   31   35 2  
    36   32   33 1  
    37   33   34 2  
    38   34   35 1  
    39   35   36 1  
    40    1   37 1  
    41    1   38 1  
    42    2   39 1  
    43    2   40 1  
    44    7   41 1  
    45    8   42 1  
    46   10   43 1  
    47   10   44 1  
    48   10   45 1  
    49   11   46 1  
    50   11   47 1  
    51   11   48 1  
    52   12   49 1  
    53   12   50 1  
    54   12   51 1  
    55   16   52 1  
    56   16   53 1  
    57   17   54 1  
    58   18   55 1  
    59   19   56 1  
    60   19   57 1  
    61   20   58 1  
    62   23   59 1  
    63   24   60 1  
    64   24   61 1  
    65   26   62 1  
    66   27   63 1  
    67   28   64 1  
    68   29   65 1  
    69   33   66 1  
    70   36   67 1  
    71   36   68 1  
    72   36   69 1  
@<TRIPOS>SUBSTRUCTURE
     1 4YY         1

