### 
### Created by X-TOOL on Mon Sep 10 21:13:33 2018
### 

@<TRIPOS>MOLECULE
5nvy_ligand
   56    58     1     0     0
SMALL
GAST_HUCK


@<TRIPOS>ATOM
      1 CAA        10.4910   54.2020   95.5530 C.3       1 9B5         0.0258
      2 CAT        11.5060   54.2830   94.4160 C.2       1 9B5         0.1751
      3 OAD        11.8610   55.3770   93.9790 O.2       1 9B5        -0.3972
      4 N          11.9450   53.0920   93.9630 N.am      1 9B5        -0.2661
      5 CA         12.9210   52.9870   92.8630 C.3       1 9B5         0.1283
      6 CB         13.5240   51.5790   92.8400 C.3       1 9B5        -0.0244
      7 C          12.2260   53.2010   91.5000 C.2       1 9B5         0.2062
      8 O          11.0720   52.8020   91.3530 O.2       1 9B5        -0.3942
      9 NBD        12.9500   53.7530   90.4940 N.am      1 9B5        -0.2473
     10 CAO        14.3520   54.2660   90.5900 C.3       1 9B5         0.0629
     11 CBA        14.5920   55.0910   89.3530 C.3       1 9B5         0.0799
     12 OAG        14.2560   56.4680   89.5940 O.3       1 9B5        -0.3896
     13 CAN        13.6550   54.5360   88.3150 C.3       1 9B5         0.0158
     14 CBC        12.4490   53.9960   89.0680 C.3       1 9B5         0.1362
     15 CAU        12.0430   52.8190   88.4020 C.2       1 9B5         0.2037
     16 OAE        12.5290   51.7330   88.7220 O.2       1 9B5        -0.3944
     17 NAQ        11.1620   52.9600   87.3790 N.am      1 9B5        -0.2741
     18 CAM        10.7120   51.7970   86.6030 C.3       1 9B5         0.0631
     19 CAW        11.4970   51.6530   85.4320 C.ar      1 9B5        -0.0241
     20 CAI        12.3110   52.6660   84.9010 C.ar      1 9B5        -0.0617
     21 CAK        13.0630   52.4460   83.7450 C.ar      1 9B5        -0.0654
     22 CAH        11.4690   50.4230   84.7610 C.ar      1 9B5        -0.0617
     23 CAJ        12.2220   50.2050   83.6030 C.ar      1 9B5        -0.0654
     24 CAY        13.0230   51.2240   83.0700 C.ar      1 9B5        -0.0244
     25 CAZ        13.7640   51.0480   81.9590 C.2       1 9B5         0.0479
     26 SAS        15.3530   51.5120   81.8100 S.3       1 9B5        -0.0127
     27 CAL        15.5420   50.9870   80.2520 C.2       1 9B5         0.0738
     28 NAP        14.3750   50.4640   79.8550 N.2       1 9B5        -0.3006
     29 CAX        13.4000   50.4970   80.7820 C.2       1 9B5         0.0119
     30 CAB        12.0130   49.9270   80.4440 C.3       1 9B5        -0.0271
     31 H1         10.3029   53.1472   95.8021 H         1 9B5         0.0467
     32 H2          9.5503   54.6780   95.2394 H         1 9B5         0.0467
     33 H3         10.8883   54.7222   96.4370 H         1 9B5         0.0467
     34 H4         11.5984   52.2546   94.3856 H         1 9B5         0.1882
     35 H5         13.7134   53.7369   93.0033 H         1 9B5         0.0797
     36 H6         14.2514   51.5050   92.0181 H         1 9B5         0.0277
     37 H7         12.7236   50.8397   92.6889 H         1 9B5         0.0277
     38 H8         14.0301   51.3812   93.7964 H         1 9B5         0.0277
     39 H9         15.0617   53.4266   90.6303 H         1 9B5         0.0550
     40 H10        14.4682   54.8880   91.4898 H         1 9B5         0.0550
     41 H11        15.6391   55.0090   89.0261 H         1 9B5         0.0616
     42 H12        14.4128   56.9738   88.8053 H         1 9B5         0.2099
     43 H13        14.1457   53.7275   87.7533 H         1 9B5         0.0338
     44 H14        13.3447   55.3298   87.6196 H         1 9B5         0.0338
     45 H15        11.6219   54.7211   89.0768 H         1 9B5         0.0803
     46 H16        10.8142   53.8692   87.1503 H         1 9B5         0.1878
     47 H17         9.6585   51.9361   86.3187 H         1 9B5         0.0679
     48 H18        10.8091   50.8905   87.2185 H         1 9B5         0.0679
     49 H19        12.3564   53.6303   85.3941 H         1 9B5         0.0550
     50 H20        13.6921   53.2418   83.3629 H         1 9B5         0.0568
     51 H21        10.8495   49.6223   85.1485 H         1 9B5         0.0550
     52 H22        12.1858   49.2387   83.1130 H         1 9B5         0.0568
     53 H23        16.4515   51.0547   79.6569 H         1 9B5         0.1176
     54 H24        12.0145   49.5468   79.4118 H         1 9B5         0.0382
     55 H25        11.2569   50.7200   80.5415 H         1 9B5         0.0382
     56 H26        11.7751   49.1063   81.1367 H         1 9B5         0.0382
@<TRIPOS>BOND
     1    1    2 1  
     2    2    3 2  
     3    2    4 am 
     4    4    5 1  
     5    5    6 1  
     6    5    7 1  
     7    7    8 2  
     8    7    9 am 
     9    9   10 1  
    10    9   14 1  
    11   10   11 1  
    12   11   12 1  
    13   11   13 1  
    14   13   14 1  
    15   14   15 1  
    16   15   16 2  
    17   15   17 am 
    18   17   18 1  
    19   18   19 1  
    20   19   20 ar 
    21   19   22 ar 
    22   20   21 ar 
    23   21   24 ar 
    24   22   23 ar 
    25   23   24 ar 
    26   24   25 1  
    27   25   26 1  
    28   25   29 2  
    29   26   27 1  
    30   27   28 2  
    31   28   29 1  
    32   29   30 1  
    33    1   31 1  
    34    1   32 1  
    35    1   33 1  
    36    4   34 1  
    37    5   35 1  
    38    6   36 1  
    39    6   37 1  
    40    6   38 1  
    41   10   39 1  
    42   10   40 1  
    43   11   41 1  
    44   12   42 1  
    45   13   43 1  
    46   13   44 1  
    47   14   45 1  
    48   17   46 1  
    49   18   47 1  
    50   18   48 1  
    51   20   49 1  
    52   21   50 1  
    53   22   51 1  
    54   23   52 1  
    55   27   53 1  
    56   30   54 1  
    57   30   55 1  
    58   30   56 1  
@<TRIPOS>SUBSTRUCTURE
     1 9B5         1

