### 
### Created by X-TOOL on Mon Sep 10 21:13:33 2018
### 

@<TRIPOS>MOLECULE
5nvz_ligand
   74    77     1     0     0
SMALL
GAST_HUCK


@<TRIPOS>ATOM
      1 CAP        10.3230   57.3480   97.8340 C.3       1 9BN        -0.0365
      2 CAQ        10.0190   58.3530   96.7180 C.3       1 9BN        -0.0365
      3 CBL        10.2540   56.8830   96.3840 C.3       1 9BN         0.1132
      4 CAY         9.0230   56.0960   95.8850 C.2       1 9BN         0.1356
      5 OAF         9.1520   55.1500   95.1030 O.2       1 9BN        -0.3353
      6 CAA         7.6280   56.5380   96.3780 C.3       1 9BN         0.0102
      7 CBA        11.5830   56.5030   95.6780 C.2       1 9BN         0.2078
      8 OAH        12.5390   57.2840   95.6850 O.2       1 9BN        -0.3472
      9 NAW        11.5900   55.2970   95.0790 N.am      1 9BN        -0.2651
     10 CBI        12.7150   54.7600   94.2980 C.3       1 9BN         0.1359
     11 CBK        13.0060   53.2890   94.7330 C.3       1 9BN         0.0027
     12 CAE        11.7530   52.3960   94.7120 C.3       1 9BN        -0.0558
     13 CAC        13.5250   53.3070   96.1730 C.3       1 9BN        -0.0558
     14 CAD        14.0720   52.6280   93.8240 C.3       1 9BN        -0.0558
     15 CBB        12.3100   54.8430   92.7920 C.2       1 9BN         0.2071
     16 OAI        11.1270   54.6770   92.4650 O.2       1 9BN        -0.3941
     17 N          13.2940   55.0720   91.8810 N.am      1 9BN        -0.2472
     18 CD2        14.7640   55.3480   92.0480 C.3       1 9BN         0.0629
     19 CG         15.1170   56.2340   90.8780 C.3       1 9BN         0.0799
     20 OD1        14.7150   57.5890   91.1290 O.3       1 9BN        -0.3896
     21 CB         14.2860   55.6750   89.7590 C.3       1 9BN         0.0158
     22 CA         12.9880   55.1880   90.4170 C.3       1 9BN         0.1362
     23 C          12.6320   53.9680   89.8310 C.2       1 9BN         0.2037
     24 O          13.1330   52.9240   90.2420 O.2       1 9BN        -0.3944
     25 NAV        11.7940   54.0680   88.7610 N.am      1 9BN        -0.2741
     26 CAR        11.3240   52.9190   87.9450 C.3       1 9BN         0.0631
     27 CBC        12.0940   52.7220   86.7660 C.ar      1 9BN        -0.0241
     28 CAK        12.0740   51.4770   86.1270 C.ar      1 9BN        -0.0617
     29 CAM        12.8330   51.2550   84.9720 C.ar      1 9BN        -0.0654
     30 CAL        12.8920   53.7330   86.2030 C.ar      1 9BN        -0.0617
     31 CAN        13.6450   53.5060   85.0420 C.ar      1 9BN        -0.0654
     32 CBE        13.6160   52.2720   84.4030 C.ar      1 9BN        -0.0244
     33 CBF        14.3500   52.0710   83.2940 C.2       1 9BN         0.0479
     34 SAX        15.9900   52.4780   83.1030 S.3       1 9BN        -0.0127
     35 CAO        16.0980   51.9090   81.5390 C.2       1 9BN         0.0738
     36 NAU        14.8980   51.4310   81.1810 N.2       1 9BN        -0.3006
     37 CBD        13.9490   51.5190   82.1350 C.2       1 9BN         0.0119
     38 CAB        12.5380   51.0030   81.8580 C.3       1 9BN        -0.0271
     39 H1          9.5338   57.0577   98.5431 H         1 9BN         0.0241
     40 H2         11.2908   57.3811   98.3558 H         1 9BN         0.0241
     41 H3         10.7684   59.1079   96.4377 H         1 9BN         0.0241
     42 H4          9.0114   58.7844   96.6250 H         1 9BN         0.0241
     43 H5          6.8598   55.8850   95.9381 H         1 9BN         0.0450
     44 H6          7.4437   57.5784   96.0722 H         1 9BN         0.0450
     45 H7          7.5867   56.4654   97.4748 H         1 9BN         0.0450
     46 H8         10.7737   54.7268   95.1715 H         1 9BN         0.1886
     47 H9         13.6146   55.3690   94.4707 H         1 9BN         0.0807
     48 H10        12.0234   51.3773   95.0270 H         1 9BN         0.0237
     49 H11        11.3403   52.3672   93.6928 H         1 9BN         0.0237
     50 H12        10.9996   52.8050   95.4013 H         1 9BN         0.0237
     51 H13        14.4245   53.9376   96.2307 H         1 9BN         0.0237
     52 H14        13.7749   52.2824   96.4856 H         1 9BN         0.0237
     53 H15        12.7487   53.7140   96.8375 H         1 9BN         0.0237
     54 H16        13.7085   52.6101   92.7860 H         1 9BN         0.0237
     55 H17        14.2577   51.5989   94.1652 H         1 9BN         0.0237
     56 H18        15.0067   53.2056   93.8752 H         1 9BN         0.0237
     57 H19        15.3415   54.4124   92.0154 H         1 9BN         0.0550
     58 H20        14.9570   55.8651   92.9995 H         1 9BN         0.0550
     59 H21        16.1922   56.1904   90.6498 H         1 9BN         0.0616
     60 H22        15.1593   57.9115   91.9044 H         1 9BN         0.2099
     61 H23        14.8084   54.8377   89.2732 H         1 9BN         0.0338
     62 H24        14.0702   56.4547   89.0136 H         1 9BN         0.0338
     63 H25        12.1765   55.9146   90.2634 H         1 9BN         0.0803
     64 H26        11.4724   54.9802   88.5069 H         1 9BN         0.1878
     65 H27        10.2786   53.0999   87.6545 H         1 9BN         0.0679
     66 H28        11.3819   52.0072   88.5576 H         1 9BN         0.0679
     67 H29        11.4646   50.6765   86.5306 H         1 9BN         0.0550
     68 H30        12.8158   50.2762   84.5066 H         1 9BN         0.0568
     69 H31        12.9260   54.7078   86.6759 H         1 9BN         0.0550
     70 H32        14.2578   54.3035   84.6375 H         1 9BN         0.0568
     71 H33        16.9907   51.9234   80.9154 H         1 9BN         0.1176
     72 H34        12.4879   50.6042   80.8341 H         1 9BN         0.0382
     73 H35        11.8182   51.8278   81.9658 H         1 9BN         0.0382
     74 H36        12.2919   50.2055   82.5745 H         1 9BN         0.0382
@<TRIPOS>BOND
     1    1    2 1  
     2    1    3 1  
     3    2    3 1  
     4    3    4 1  
     5    3    7 1  
     6    4    5 2  
     7    4    6 1  
     8    7    8 2  
     9    7    9 am 
    10    9   10 1  
    11   10   11 1  
    12   10   15 1  
    13   11   12 1  
    14   11   13 1  
    15   11   14 1  
    16   15   16 2  
    17   15   17 am 
    18   17   18 1  
    19   17   22 1  
    20   18   19 1  
    21   19   20 1  
    22   19   21 1  
    23   21   22 1  
    24   22   23 1  
    25   23   24 2  
    26   23   25 am 
    27   25   26 1  
    28   26   27 1  
    29   27   28 ar 
    30   27   30 ar 
    31   28   29 ar 
    32   29   32 ar 
    33   30   31 ar 
    34   31   32 ar 
    35   32   33 1  
    36   33   34 1  
    37   33   37 2  
    38   34   35 1  
    39   35   36 2  
    40   36   37 1  
    41   37   38 1  
    42    1   39 1  
    43    1   40 1  
    44    2   41 1  
    45    2   42 1  
    46    6   43 1  
    47    6   44 1  
    48    6   45 1  
    49    9   46 1  
    50   10   47 1  
    51   12   48 1  
    52   12   49 1  
    53   12   50 1  
    54   13   51 1  
    55   13   52 1  
    56   13   53 1  
    57   14   54 1  
    58   14   55 1  
    59   14   56 1  
    60   18   57 1  
    61   18   58 1  
    62   19   59 1  
    63   20   60 1  
    64   21   61 1  
    65   21   62 1  
    66   22   63 1  
    67   25   64 1  
    68   26   65 1  
    69   26   66 1  
    70   28   67 1  
    71   29   68 1  
    72   30   69 1  
    73   31   70 1  
    74   35   71 1  
    75   38   72 1  
    76   38   73 1  
    77   38   74 1  
@<TRIPOS>SUBSTRUCTURE
     1 9BN         1

