### 
### Created by X-TOOL on Mon Sep 10 21:13:33 2018
### 

@<TRIPOS>MOLECULE
5nw0_ligand
   76    79     1     0     0
SMALL
GAST_HUCK


@<TRIPOS>ATOM
      1 CAA         8.2580   53.5360   97.3110 C.3       1 9BK         0.0255
      2 CAZ         9.4000   54.5570   97.3220 C.2       1 9BK         0.1722
      3 OAF        10.4130   54.3440   97.9790 O.2       1 9BK        -0.3975
      4 NAX         9.2220   55.6480   96.5500 N.am      1 9BK        -0.2761
      5 CBM        10.2480   56.6950   96.4490 C.3       1 9BK         0.1328
      6 CAP        10.3470   57.5580   97.6840 C.3       1 9BK        -0.0184
      7 CAQ         9.8080   58.1430   96.3950 C.3       1 9BK        -0.0184
      8 CBB        11.5720   56.2810   95.7390 C.2       1 9BK         0.2266
      9 OAH        12.5720   56.9820   95.8650 O.2       1 9BK        -0.3419
     10 NAW        11.5410   55.1230   95.0560 N.am      1 9BK        -0.2623
     11 CBJ        12.6740   54.5390   94.3170 C.3       1 9BK         0.1361
     12 CBL        12.9430   53.0950   94.8450 C.3       1 9BK         0.0027
     13 CAE        13.9730   52.3430   93.9840 C.3       1 9BK        -0.0558
     14 CAC        11.6440   52.2560   94.9030 C.3       1 9BK        -0.0558
     15 CAD        13.5240   53.1850   96.2690 C.3       1 9BK        -0.0558
     16 CBC        12.3050   54.5750   92.7870 C.2       1 9BK         0.2072
     17 OAI        11.1590   54.3130   92.4280 O.2       1 9BK        -0.3941
     18 N          13.2720   54.9020   91.8900 N.am      1 9BK        -0.2472
     19 CD2        14.7140   55.2890   92.1140 C.3       1 9BK         0.0629
     20 CG         15.1190   56.0750   90.8690 C.3       1 9BK         0.0799
     21 OD1        14.7650   57.4520   91.0260 O.3       1 9BK        -0.3896
     22 CB         14.3050   55.4570   89.7580 C.3       1 9BK         0.0158
     23 CA         12.9800   55.0020   90.4080 C.3       1 9BK         0.1362
     24 C          12.5790   53.7900   89.8090 C.2       1 9BK         0.2037
     25 O          13.0250   52.7200   90.2040 O.2       1 9BK        -0.3944
     26 NAV        11.7480   53.9070   88.7420 N.am      1 9BK        -0.2741
     27 CAR        11.2720   52.7650   87.9260 C.3       1 9BK         0.0631
     28 CBD        12.0700   52.5650   86.7520 C.ar      1 9BK        -0.0241
     29 CAK        12.0480   51.3320   86.0960 C.ar      1 9BK        -0.0617
     30 CAM        12.8150   51.1080   84.9470 C.ar      1 9BK        -0.0654
     31 CAL        12.8880   53.5640   86.2170 C.ar      1 9BK        -0.0617
     32 CAN        13.6610   53.3370   85.0640 C.ar      1 9BK        -0.0654
     33 CBF        13.6310   52.1140   84.4040 C.ar      1 9BK        -0.0244
     34 CBG        14.3790   51.9190   83.2950 C.2       1 9BK         0.0479
     35 SAY        15.9930   52.4280   83.0800 S.3       1 9BK        -0.0127
     36 CAO        16.1430   51.8100   81.5430 C.2       1 9BK         0.0738
     37 NAU        14.9850   51.2370   81.2050 N.2       1 9BK        -0.3006
     38 CBE        14.0220   51.2950   82.1510 C.2       1 9BK         0.0119
     39 CAB        12.6450   50.6630   81.8700 C.3       1 9BK        -0.0271
     40 H1          7.4437   53.9036   96.6693 H         1 9BK         0.0467
     41 H2          7.8824   53.3949   98.3352 H         1 9BK         0.0467
     42 H3          8.6278   52.5764   96.9206 H         1 9BK         0.0467
     43 H4          8.3713   55.7470   96.0338 H         1 9BK         0.1838
     44 H5         11.3329   57.8698   98.0592 H         1 9BK         0.0276
     45 H6          9.6703   57.3823   98.5332 H         1 9BK         0.0276
     46 H7          8.7399   58.3910   96.3073 H         1 9BK         0.0276
     47 H8         10.4026   58.8785   95.8333 H         1 9BK         0.0276
     48 H9         10.6785   54.6169   95.0491 H         1 9BK         0.1889
     49 H10        13.5765   55.1461   94.4812 H         1 9BK         0.0807
     50 H11        14.1279   51.3345   94.3949 H         1 9BK         0.0237
     51 H12        14.9264   52.8917   93.9899 H         1 9BK         0.0237
     52 H13        13.6011   52.2652   92.9517 H         1 9BK         0.0237
     53 H14        10.8959   52.7803   95.5158 H         1 9BK         0.0237
     54 H15        11.8610   51.2745   95.3497 H         1 9BK         0.0237
     55 H16        11.2516   52.1169   93.8849 H         1 9BK         0.0237
     56 H17        14.4499   53.7786   96.2504 H         1 9BK         0.0237
     57 H18        13.7446   52.1731   96.6397 H         1 9BK         0.0237
     58 H19        12.7924   53.6676   96.9337 H         1 9BK         0.0237
     59 H20        15.3410   54.3919   92.2240 H         1 9BK         0.0550
     60 H21        14.8095   55.9156   93.0130 H         1 9BK         0.0550
     61 H22        16.1972   55.9818   90.6720 H         1 9BK         0.0616
     62 H23        15.2148   57.8092   91.7828 H         1 9BK         0.2099
     63 H24        14.8362   54.5950   89.3281 H         1 9BK         0.0338
     64 H25        14.1095   56.1980   88.9689 H         1 9BK         0.0338
     65 H26        12.1932   55.7528   90.2433 H         1 9BK         0.0803
     66 H27        11.4367   54.8234   88.4902 H         1 9BK         0.1878
     67 H28        10.2335   52.9581   87.6191 H         1 9BK         0.0679
     68 H29        11.3096   51.8523   88.5389 H         1 9BK         0.0679
     69 H30        11.4254   50.5340   86.4840 H         1 9BK         0.0550
     70 H31        12.7785   50.1373   84.4658 H         1 9BK         0.0568
     71 H32        12.9275   54.5334   86.7004 H         1 9BK         0.0550
     72 H33        14.2925   54.1313   84.6827 H         1 9BK         0.0568
     73 H34        17.0337   51.8635   80.9187 H         1 9BK         0.1176
     74 H35        12.6407   50.2275   80.8599 H         1 9BK         0.0382
     75 H36        11.8657   51.4362   81.9392 H         1 9BK         0.0382
     76 H37        12.4457   49.8741   82.6102 H         1 9BK         0.0382
@<TRIPOS>BOND
     1    1    2 1  
     2    2    3 2  
     3    2    4 am 
     4    4    5 1  
     5    5    6 1  
     6    5    7 1  
     7    5    8 1  
     8    6    7 1  
     9    8    9 2  
    10    8   10 am 
    11   10   11 1  
    12   11   12 1  
    13   11   16 1  
    14   12   13 1  
    15   12   14 1  
    16   12   15 1  
    17   16   17 2  
    18   16   18 am 
    19   18   19 1  
    20   18   23 1  
    21   19   20 1  
    22   20   21 1  
    23   20   22 1  
    24   22   23 1  
    25   23   24 1  
    26   24   25 2  
    27   24   26 am 
    28   26   27 1  
    29   27   28 1  
    30   28   29 ar 
    31   28   31 ar 
    32   29   30 ar 
    33   30   33 ar 
    34   31   32 ar 
    35   32   33 ar 
    36   33   34 1  
    37   34   35 1  
    38   34   38 2  
    39   35   36 1  
    40   36   37 2  
    41   37   38 1  
    42   38   39 1  
    43    1   40 1  
    44    1   41 1  
    45    1   42 1  
    46    4   43 1  
    47    6   44 1  
    48    6   45 1  
    49    7   46 1  
    50    7   47 1  
    51   10   48 1  
    52   11   49 1  
    53   13   50 1  
    54   13   51 1  
    55   13   52 1  
    56   14   53 1  
    57   14   54 1  
    58   14   55 1  
    59   15   56 1  
    60   15   57 1  
    61   15   58 1  
    62   19   59 1  
    63   19   60 1  
    64   20   61 1  
    65   21   62 1  
    66   22   63 1  
    67   22   64 1  
    68   23   65 1  
    69   26   66 1  
    70   27   67 1  
    71   27   68 1  
    72   29   69 1  
    73   30   70 1  
    74   31   71 1  
    75   32   72 1  
    76   36   73 1  
    77   39   74 1  
    78   39   75 1  
    79   39   76 1  
@<TRIPOS>SUBSTRUCTURE
     1 9BK         1

