### 
### Created by X-TOOL on Mon Sep 10 21:13:33 2018
### 

@<TRIPOS>MOLECULE
5nw1_ligand
   72    75     1     0     0
SMALL
GAST_HUCK


@<TRIPOS>ATOM
      1 CAO        10.0320   56.3290   97.5660 C.3       1 9BH        -0.0331
      2 CAN        10.1300   57.7790   97.9960 C.3       1 9BH        -0.0484
      3 CAP        10.0090   58.2050   96.5450 C.3       1 9BH        -0.0331
      4 CBF        10.1620   56.7580   96.1190 C.3       1 9BH         0.0488
      5 CAX        11.5620   56.4560   95.5820 C.2       1 9BH         0.1813
      6 OAE        12.5090   57.2220   95.7970 O.2       1 9BH        -0.3966
      7 NAV        11.7060   55.2820   94.9690 N.am      1 9BH        -0.2649
      8 CBH        12.7410   54.5350   94.2370 C.3       1 9BH         0.1359
      9 CBJ        12.8660   53.1050   94.7770 C.3       1 9BH         0.0026
     10 CAD        13.3620   53.1830   96.2330 C.3       1 9BH        -0.0558
     11 CAB        13.9050   52.3220   93.9560 C.3       1 9BH        -0.0558
     12 CAC        11.5140   52.3550   94.7860 C.3       1 9BH        -0.0558
     13 CAZ        12.3950   54.6440   92.7240 C.2       1 9BH         0.2070
     14 OAG        11.2440   54.4830   92.3490 O.2       1 9BH        -0.3942
     15 N          13.3790   55.0000   91.8600 N.am      1 9BH        -0.2473
     16 CD2        14.8190   55.3630   92.0910 C.3       1 9BH         0.0629
     17 CG         15.2420   56.1490   90.8500 C.3       1 9BH         0.0799
     18 OD1        14.9240   57.5570   90.9600 O.3       1 9BH        -0.3896
     19 CB         14.4030   55.4910   89.7530 C.3       1 9BH         0.0158
     20 CA         13.0530   55.1290   90.4010 C.3       1 9BH         0.1362
     21 C          12.5650   53.9250   89.7940 C.2       1 9BH         0.2037
     22 O          12.9640   52.8230   90.1470 O.2       1 9BH        -0.3944
     23 NAU        11.7480   54.0630   88.7380 N.am      1 9BH        -0.2741
     24 CAQ        11.2720   52.9050   87.9320 C.3       1 9BH         0.0631
     25 CBA        12.0810   52.6780   86.7610 C.ar      1 9BH        -0.0241
     26 CAI        12.9680   53.6310   86.2540 C.ar      1 9BH        -0.0617
     27 CAK        13.7440   53.3800   85.1090 C.ar      1 9BH        -0.0654
     28 CAJ        12.0060   51.4660   86.0770 C.ar      1 9BH        -0.0617
     29 CAL        12.7740   51.2210   84.9290 C.ar      1 9BH        -0.0654
     30 CBC        13.6590   52.1780   84.4100 C.ar      1 9BH        -0.0244
     31 CBD        14.4070   51.9650   83.2910 C.2       1 9BH         0.0479
     32 SAW        16.0790   52.4270   83.0400 S.3       1 9BH        -0.0127
     33 CAM        16.1770   51.8200   81.5060 C.2       1 9BH         0.0738
     34 NAT        14.9870   51.3020   81.1770 N.2       1 9BH        -0.3006
     35 CBB        14.0310   51.3780   82.1310 C.2       1 9BH         0.0119
     36 CAA        12.6360   50.7940   81.8210 C.3       1 9BH        -0.0271
     37 H1          9.0716   55.8510   97.8094 H         1 9BH         0.0292
     38 H2         10.8576   55.6964   97.9240 H         1 9BH         0.0292
     39 H3         11.0880   58.0462   98.4659 H         1 9BH         0.0268
     40 H4          9.3012   58.1166   98.6355 H         1 9BH         0.0268
     41 H5         10.8189   58.8645   96.1998 H         1 9BH         0.0292
     42 H6          9.0374   58.6508   96.2857 H         1 9BH         0.0292
     43 H7          9.3842   56.3820   95.4381 H         1 9BH         0.0538
     44 H8         10.8601   54.7512   95.0221 H         1 9BH         0.1883
     45 H9         13.7116   55.0272   94.3970 H         1 9BH         0.0805
     46 H10        13.4594   52.1666   96.6421 H         1 9BH         0.0237
     47 H11        12.6403   53.7534   96.8362 H         1 9BH         0.0237
     48 H12        14.3405   53.6847   96.2607 H         1 9BH         0.0237
     49 H13        13.5703   52.2539   92.9104 H         1 9BH         0.0237
     50 H14        14.0143   51.3098   94.3726 H         1 9BH         0.0237
     51 H15        14.8732   52.8424   93.9979 H         1 9BH         0.0237
     52 H16        10.7819   52.9259   95.3760 H         1 9BH         0.0237
     53 H17        11.6498   51.3597   95.2341 H         1 9BH         0.0237
     54 H18        11.1483   52.2459   93.7543 H         1 9BH         0.0237
     55 H19        15.4321   54.4562   92.2000 H         1 9BH         0.0550
     56 H20        14.9196   55.9843   92.9931 H         1 9BH         0.0550
     57 H21        16.3184   56.0320   90.6561 H         1 9BH         0.0616
     58 H22        15.3751   57.9247   91.7109 H         1 9BH         0.2099
     59 H23        14.9034   54.5840   89.3829 H         1 9BH         0.0338
     60 H24        14.2496   56.1914   88.9188 H         1 9BH         0.0338
     61 H25        12.3141   55.9301   90.2518 H         1 9BH         0.0803
     62 H26        11.4465   54.9815   88.4820 H         1 9BH         0.1878
     63 H27        10.2370   53.0984   87.6136 H         1 9BH         0.0679
     64 H28        11.2998   52.0026   88.5603 H         1 9BH         0.0679
     65 H29        13.0601   54.5874   86.7559 H         1 9BH         0.0550
     66 H30        14.4287   54.1443   84.7597 H         1 9BH         0.0568
     67 H31        11.3379   50.6938   86.4410 H         1 9BH         0.0550
     68 H32        12.6810   50.2642   84.4281 H         1 9BH         0.0568
     69 H33        17.0607   51.8383   80.8699 H         1 9BH         0.1176
     70 H34        12.6287   50.3842   80.8002 H         1 9BH         0.0382
     71 H35        11.8795   51.5884   81.9026 H         1 9BH         0.0382
     72 H36        12.4058   49.9933   82.5392 H         1 9BH         0.0382
@<TRIPOS>BOND
     1    1    2 1  
     2    1    4 1  
     3    2    3 1  
     4    3    4 1  
     5    4    5 1  
     6    5    6 2  
     7    5    7 am 
     8    7    8 1  
     9    8    9 1  
    10    8   13 1  
    11    9   10 1  
    12    9   11 1  
    13    9   12 1  
    14   13   14 2  
    15   13   15 am 
    16   15   16 1  
    17   15   20 1  
    18   16   17 1  
    19   17   18 1  
    20   17   19 1  
    21   19   20 1  
    22   20   21 1  
    23   21   22 2  
    24   21   23 am 
    25   23   24 1  
    26   24   25 1  
    27   25   26 ar 
    28   25   28 ar 
    29   26   27 ar 
    30   27   30 ar 
    31   28   29 ar 
    32   29   30 ar 
    33   30   31 1  
    34   31   32 1  
    35   31   35 2  
    36   32   33 1  
    37   33   34 2  
    38   34   35 1  
    39   35   36 1  
    40    1   37 1  
    41    1   38 1  
    42    2   39 1  
    43    2   40 1  
    44    3   41 1  
    45    3   42 1  
    46    4   43 1  
    47    7   44 1  
    48    8   45 1  
    49   10   46 1  
    50   10   47 1  
    51   10   48 1  
    52   11   49 1  
    53   11   50 1  
    54   11   51 1  
    55   12   52 1  
    56   12   53 1  
    57   12   54 1  
    58   16   55 1  
    59   16   56 1  
    60   17   57 1  
    61   18   58 1  
    62   19   59 1  
    63   19   60 1  
    64   20   61 1  
    65   23   62 1  
    66   24   63 1  
    67   24   64 1  
    68   26   65 1  
    69   27   66 1  
    70   28   67 1  
    71   29   68 1  
    72   33   69 1  
    73   36   70 1  
    74   36   71 1  
    75   36   72 1  
@<TRIPOS>SUBSTRUCTURE
     1 9BH         1

