### 
### Created by X-TOOL on Mon Sep 10 21:13:33 2018
### 

@<TRIPOS>MOLECULE
5nw2_ligand
   70    73     1     0     0
SMALL
GAST_HUCK


@<TRIPOS>ATOM
      1 CAO        10.6230   57.0060   97.9340 C.3       1 9B8         0.0695
      2 OAV        10.3430   58.3720   97.5480 O.3       1 9B8        -0.3744
      3 CAP         9.9810   57.9640   96.2120 C.3       1 9B8         0.0695
      4 CBF        10.3360   56.5460   96.4970 C.3       1 9B8         0.0953
      5 CAY        11.6230   56.1470   95.7720 C.2       1 9B8         0.1858
      6 OAF        12.6420   56.8250   95.9050 O.2       1 9B8        -0.3965
      7 NAU        11.6220   55.0110   95.0790 N.am      1 9B8        -0.2647
      8 CBH        12.5640   54.2390   94.2560 C.3       1 9B8         0.1359
      9 CBJ        12.6410   52.7630   94.7300 C.3       1 9B8         0.0026
     10 CAD        13.6080   51.9770   93.8270 C.3       1 9B8        -0.0558
     11 CAB        11.2730   52.0700   94.7170 C.3       1 9B8        -0.0558
     12 CAC        13.2050   52.7810   96.1580 C.3       1 9B8        -0.0558
     13 CAZ        12.1680   54.4630   92.7700 C.2       1 9B8         0.2070
     14 OAG        11.0100   54.3110   92.4230 O.2       1 9B8        -0.3942
     15 N          13.1290   54.8710   91.9030 N.am      1 9B8        -0.2473
     16 CD2        14.5740   55.1910   92.1520 C.3       1 9B8         0.0629
     17 CG         14.9850   56.0650   90.9720 C.3       1 9B8         0.0799
     18 OD1        14.6380   57.4520   91.1930 O.3       1 9B8        -0.3896
     19 CB         14.1730   55.5010   89.8230 C.3       1 9B8         0.0158
     20 CA         12.8200   55.0680   90.4360 C.3       1 9B8         0.1362
     21 C          12.3870   53.8750   89.7860 C.2       1 9B8         0.2037
     22 O          12.8180   52.7830   90.1250 O.2       1 9B8        -0.3944
     23 NAT        11.5360   54.0140   88.7550 N.am      1 9B8        -0.2741
     24 CAN        11.0600   52.8870   87.9190 C.3       1 9B8         0.0631
     25 CBA        11.9050   52.6690   86.7570 C.ar      1 9B8        -0.0241
     26 CAI        11.8260   51.4780   86.0470 C.ar      1 9B8        -0.0617
     27 CAK        12.6210   51.2260   84.9140 C.ar      1 9B8        -0.0654
     28 CAJ        12.8280   53.6090   86.2850 C.ar      1 9B8        -0.0617
     29 CAL        13.6270   53.3650   85.1450 C.ar      1 9B8        -0.0654
     30 CBC        13.5440   52.1710   84.4320 C.ar      1 9B8        -0.0244
     31 CBD        14.3180   51.9470   83.3340 C.2       1 9B8         0.0479
     32 SAW        15.9540   52.3920   83.1170 S.3       1 9B8        -0.0127
     33 CAM        16.1140   51.7690   81.5980 C.2       1 9B8         0.0738
     34 NAS        14.9380   51.2460   81.2470 N.2       1 9B8        -0.3006
     35 CBB        13.9600   51.3490   82.1740 C.2       1 9B8         0.0119
     36 CAA        12.5710   50.7600   81.8640 C.3       1 9B8        -0.0271
     37 H1          9.9284   56.5991   98.6836 H         1 9B8         0.0589
     38 H2         11.6587   56.8348   98.2626 H         1 9B8         0.0589
     39 H3         10.5984   58.4247   95.4268 H         1 9B8         0.0589
     40 H4          8.9169   58.1144   95.9772 H         1 9B8         0.0589
     41 H5          9.5402   55.7981   96.3656 H         1 9B8         0.0584
     42 H6         10.7332   54.5559   95.1332 H         1 9B8         0.1883
     43 H7         13.5694   54.6637   94.3927 H         1 9B8         0.0805
     44 H8         13.6593   50.9320   94.1667 H         1 9B8         0.0237
     45 H9         14.6092   52.4294   93.8805 H         1 9B8         0.0237
     46 H10        13.2467   52.0077   92.7885 H         1 9B8         0.0237
     47 H11        10.5746   52.6253   95.3603 H         1 9B8         0.0237
     48 H12        11.3792   51.0417   95.0930 H         1 9B8         0.0237
     49 H13        10.8839   52.0460   93.6884 H         1 9B8         0.0237
     50 H14        14.1856   53.2794   96.1586 H         1 9B8         0.0237
     51 H15        13.3182   51.7487   96.5206 H         1 9B8         0.0237
     52 H16        12.5154   53.3279   96.8178 H         1 9B8         0.0237
     53 H17        15.1758   54.2707   92.1813 H         1 9B8         0.0550
     54 H18        14.6928   55.7372   93.0994 H         1 9B8         0.0550
     55 H19        16.0643   55.9809   90.7768 H         1 9B8         0.0616
     56 H20        15.0820   57.7683   91.9710 H         1 9B8         0.2099
     57 H21        14.6869   54.6356   89.3792 H         1 9B8         0.0338
     58 H22        14.0157   56.2693   89.0516 H         1 9B8         0.0338
     59 H23        12.0568   55.8499   90.3092 H         1 9B8         0.0803
     60 H24        11.2044   54.9325   88.5393 H         1 9B8         0.1878
     61 H25        10.0378   53.1068   87.5772 H         1 9B8         0.0679
     62 H26        11.0538   51.9716   88.5289 H         1 9B8         0.0679
     63 H27        11.1282   50.7169   86.3770 H         1 9B8         0.0550
     64 H28        12.5193   50.2778   84.3987 H         1 9B8         0.0568
     65 H29        12.9333   54.5520   86.8091 H         1 9B8         0.0550
     66 H30        14.3235   54.1278   84.8164 H         1 9B8         0.0568
     67 H31        17.0177   51.7823   80.9905 H         1 9B8         0.1176
     68 H32        12.5696   50.3396   80.8475 H         1 9B8         0.0382
     69 H33        11.8124   51.5535   81.9337 H         1 9B8         0.0382
     70 H34        12.3391   49.9662   82.5893 H         1 9B8         0.0382
@<TRIPOS>BOND
     1    1    2 1  
     2    1    4 1  
     3    2    3 1  
     4    3    4 1  
     5    4    5 1  
     6    5    6 2  
     7    5    7 am 
     8    7    8 1  
     9    8    9 1  
    10    8   13 1  
    11    9   10 1  
    12    9   11 1  
    13    9   12 1  
    14   13   14 2  
    15   13   15 am 
    16   15   16 1  
    17   15   20 1  
    18   16   17 1  
    19   17   18 1  
    20   17   19 1  
    21   19   20 1  
    22   20   21 1  
    23   21   22 2  
    24   21   23 am 
    25   23   24 1  
    26   24   25 1  
    27   25   26 ar 
    28   25   28 ar 
    29   26   27 ar 
    30   27   30 ar 
    31   28   29 ar 
    32   29   30 ar 
    33   30   31 1  
    34   31   32 1  
    35   31   35 2  
    36   32   33 1  
    37   33   34 2  
    38   34   35 1  
    39   35   36 1  
    40    1   37 1  
    41    1   38 1  
    42    3   39 1  
    43    3   40 1  
    44    4   41 1  
    45    7   42 1  
    46    8   43 1  
    47   10   44 1  
    48   10   45 1  
    49   10   46 1  
    50   11   47 1  
    51   11   48 1  
    52   11   49 1  
    53   12   50 1  
    54   12   51 1  
    55   12   52 1  
    56   16   53 1  
    57   16   54 1  
    58   17   55 1  
    59   18   56 1  
    60   19   57 1  
    61   19   58 1  
    62   20   59 1  
    63   23   60 1  
    64   24   61 1  
    65   24   62 1  
    66   26   63 1  
    67   27   64 1  
    68   28   65 1  
    69   29   66 1  
    70   33   67 1  
    71   36   68 1  
    72   36   69 1  
    73   36   70 1  
@<TRIPOS>SUBSTRUCTURE
     1 9B8         1

