### 
### Created by X-TOOL on Wed Jan  1 15:39:36 2020
### 

@<TRIPOS>MOLECULE
5nwb_ligand
   39    41     1     0     0
SMALL
GAST_HUCK


@<TRIPOS>ATOM
      1 OAE         4.5780   39.0530    4.9360 O.3       1 9C5        -0.3930
      2 CAD         5.0540   37.7510    5.1180 C.3       1 9C5         0.0642
      3 CAC         6.4210   37.9880    5.6350 C.3       1 9C5         0.0516
      4 NAB         6.1810   38.9260    6.7390 N.pl3     1 9C5        -0.3047
      5 CAA         5.9340   40.3470    6.4570 C.3       1 9C5         0.0175
      6 CAF         6.2800   38.5410    8.0220 C.ar      1 9C5         0.0495
      7 CAK         5.8030   37.3020    8.4260 C.ar      1 9C5        -0.0345
      8 CAJ         5.9110   36.8930    9.7570 C.ar      1 9C5        -0.0503
      9 CAG         6.8800   39.3620    8.9640 C.ar      1 9C5        -0.0345
     10 CAH         6.9880   38.9570   10.2950 C.ar      1 9C5        -0.0503
     11 CAI         6.5330   37.7040   10.6990 C.ar      1 9C5         0.0332
     12 CAL         6.5890   37.3320   12.0470 C.2       1 9C5         0.1516
     13 NAM         5.7670   36.3820   12.4990 N.2       1 9C5        -0.3034
     14 CAN         5.7560   36.0320   13.7940 C.ar      1 9C5         0.0186
     15 CAS         4.8900   35.0200   14.1900 C.ar      1 9C5        -0.0515
     16 CAR         4.8360   34.6460   15.5210 C.ar      1 9C5        -0.0652
     17 CAQ         5.6380   35.2890   16.4580 C.ar      1 9C5        -0.0641
     18 CAP         6.5040   36.3060   16.0640 C.ar      1 9C5        -0.0489
     19 CAO         6.5540   36.6880   14.7310 C.ar      1 9C5         0.0616
     20 CAT         7.4230   37.6920   14.2960 C.2       1 9C5         0.2335
     21 OAU         8.1790   38.3040   15.0560 O.2       1 9C5        -0.3864
     22 NAV         7.4060   38.0180   12.9500 N.am      1 9C5        -0.2018
     23 H1          3.6900   39.0203    4.6000 H         1 9C5         0.2095
     24 H2          5.0773   37.1982    4.1673 H         1 9C5         0.0577
     25 H3          4.4415   37.2006    5.8473 H         1 9C5         0.0577
     26 H4          7.0658   38.4363    4.8648 H         1 9C5         0.0541
     27 H5          6.8770   37.0549    5.9974 H         1 9C5         0.0541
     28 H6          5.7774   40.8866    7.4027 H         1 9C5         0.0483
     29 H7          5.0383   40.4453    5.8261 H         1 9C5         0.0483
     30 H8          6.8014   40.7727    5.9313 H         1 9C5         0.0483
     31 H9          5.3408   36.6435    7.6995 H         1 9C5         0.0542
     32 H10         5.5058   35.9338   10.0583 H         1 9C5         0.0659
     33 H11         7.2692   40.3282    8.6638 H         1 9C5         0.0542
     34 H12         7.4315   39.6259   11.0237 H         1 9C5         0.0659
     35 H13         4.2597   34.5259   13.4595 H         1 9C5         0.0566
     36 H14         4.1683   33.8514   15.8337 H         1 9C5         0.0630
     37 H15         5.5887   34.9969   17.5007 H         1 9C5         0.0563
     38 H16         7.1360   36.7968   16.7952 H         1 9C5         0.0646
     39 H17         7.9898   38.7588   12.6177 H         1 9C5         0.2486
@<TRIPOS>BOND
     1    1    2 1  
     2    2    3 1  
     3    3    4 1  
     4    4    5 1  
     5    4    6 1  
     6    6    7 ar 
     7    6    9 ar 
     8    7    8 ar 
     9    8   11 ar 
    10    9   10 ar 
    11   10   11 ar 
    12   11   12 1  
    13   12   13 2  
    14   12   22 1  
    15   13   14 1  
    16   14   15 ar 
    17   14   19 ar 
    18   15   16 ar 
    19   16   17 ar 
    20   17   18 ar 
    21   18   19 ar 
    22   19   20 1  
    23   20   21 2  
    24   20   22 am 
    25    1   23 1  
    26    2   24 1  
    27    2   25 1  
    28    3   26 1  
    29    3   27 1  
    30    5   28 1  
    31    5   29 1  
    32    5   30 1  
    33    7   31 1  
    34    8   32 1  
    35    9   33 1  
    36   10   34 1  
    37   15   35 1  
    38   16   36 1  
    39   17   37 1  
    40   18   38 1  
    41   22   39 1  
@<TRIPOS>SUBSTRUCTURE
     1 9C5         1

