### 
### Created by X-TOOL on Wed Jan  1 15:39:36 2020
### 

@<TRIPOS>MOLECULE
5nwc_ligand
   29    31     1     0     0
SMALL
GAST_HUCK


@<TRIPOS>ATOM
      1 NAR         7.4280   37.9470   12.8410 N.am      1 9CE        -0.2020
      2 CAP         7.4040   37.6570   14.1900 C.2       1 9CE         0.2333
      3 OAQ         8.1540   38.3010   14.9250 O.2       1 9CE        -0.3864
      4 CAK         6.5330   36.6550   14.6420 C.ar      1 9CE         0.0614
      5 CAL         6.4500   36.2960   15.9930 C.ar      1 9CE        -0.0490
      6 CAM         5.5810   35.2800   16.3930 C.ar      1 9CE        -0.0642
      7 CAN         4.8150   34.6110   15.4350 C.ar      1 9CE        -0.0652
      8 CAO         4.8980   34.9620   14.0950 C.ar      1 9CE        -0.0516
      9 CAJ         5.7690   35.9700   13.6890 C.ar      1 9CE         0.0181
     10 NAI         5.8040   36.2930   12.3700 N.2       1 9CE        -0.3042
     11 CAH         6.6230   37.2570   11.9070 C.2       1 9CE         0.1539
     12 CAG         6.6180   37.6160   10.5290 C.ar      1 9CE         0.0647
     13 CAF         7.0810   38.8930   10.1410 C.ar      1 9CE        -0.0504
     14 CAE         7.0480   39.3300    8.8140 C.ar      1 9CE        -0.0665
     15 CAD         6.5190   38.5170    7.8310 C.ar      1 9CE        -0.0665
     16 CAC         6.0160   37.2740    8.1750 C.ar      1 9CE        -0.0349
     17 CAB         6.0470   36.8260    9.5040 C.ar      1 9CE         0.0616
     18 NAA         5.5720   35.6050    9.7810 N.pl3     1 9CE        -0.3297
     19 H1          8.0359   38.6702   12.5133 H         1 9CE         0.2485
     20 H2          7.0608   36.8074   16.7282 H         1 9CE         0.0646
     21 H3          5.5008   35.0116   17.4402 H         1 9CE         0.0563
     22 H4          4.1504   33.8112   15.7410 H         1 9CE         0.0630
     23 H5          4.2837   34.4506   13.3628 H         1 9CE         0.0565
     24 H6          7.4763   39.5581   10.9002 H         1 9CE         0.0652
     25 H7          7.4380   40.3080    8.5561 H         1 9CE         0.0529
     26 H8          6.4978   38.8492    6.7994 H         1 9CE         0.0639
     27 H9          5.5921   36.6378    7.4065 H         1 9CE         0.0536
     28 H10         5.5846   35.2550   10.7496 H         1 9CE         0.1766
     29 H11         5.1941   35.0158    9.0254 H         1 9CE         0.1766
@<TRIPOS>BOND
     1    1    2 am 
     2    1   11 1  
     3    2    3 2  
     4    2    4 1  
     5    4    5 ar 
     6    4    9 ar 
     7    5    6 ar 
     8    6    7 ar 
     9    7    8 ar 
    10    8    9 ar 
    11    9   10 1  
    12   10   11 2  
    13   11   12 1  
    14   12   13 ar 
    15   12   17 ar 
    16   13   14 ar 
    17   14   15 ar 
    18   15   16 ar 
    19   16   17 ar 
    20   17   18 1  
    21    1   19 1  
    22    5   20 1  
    23    6   21 1  
    24    7   22 1  
    25    8   23 1  
    26   13   24 1  
    27   14   25 1  
    28   15   26 1  
    29   16   27 1  
    30   18   28 1  
    31   18   29 1  
@<TRIPOS>SUBSTRUCTURE
     1 9CE         1

