### 
### Created by X-TOOL on Wed Jan  1 15:39:35 2020
### 

@<TRIPOS>MOLECULE
5nwd_ligand
   41    43     1     0     0
SMALL
GAST_HUCK


@<TRIPOS>ATOM
      1 CAA         5.7500   40.6540    6.0230 C.3       1 9C8        -0.0450
      2 CAB         7.0130   39.8390    5.8980 C.3       1 9C8         0.0259
      3 NAC         6.8340   38.4860    6.4630 N.pl3     1 9C8        -0.3043
      4 CAD         6.9960   37.4140    5.4630 C.3       1 9C8         0.0259
      5 CAE         8.5150   37.2040    5.3820 C.3       1 9C8        -0.0450
      6 CAF         6.7820   38.2140    7.8010 C.ar      1 9C8         0.0497
      7 CAK         6.3220   36.9870    8.2830 C.ar      1 9C8        -0.0345
      8 CAJ         6.2860   36.6790    9.6470 C.ar      1 9C8        -0.0503
      9 CAG         7.2110   39.1440    8.7480 C.ar      1 9C8        -0.0345
     10 CAH         7.1940   38.8470   10.1140 C.ar      1 9C8        -0.0503
     11 CAI         6.7400   37.6050   10.5840 C.ar      1 9C8         0.0332
     12 CAL         6.6940   37.3190   11.9670 C.2       1 9C8         0.1516
     13 NAM         5.9110   36.3380   12.4480 N.2       1 9C8        -0.3034
     14 CAN         5.8510   36.0760   13.7690 C.ar      1 9C8         0.0186
     15 CAO         5.0000   35.0570   14.1880 C.ar      1 9C8        -0.0515
     16 CAP         4.8840   34.7560   15.5270 C.ar      1 9C8        -0.0652
     17 CAQ         5.6050   35.4690   16.4910 C.ar      1 9C8        -0.0641
     18 CAR         6.4780   36.4780   16.0740 C.ar      1 9C8        -0.0489
     19 CAS         6.5930   36.8010   14.7120 C.ar      1 9C8         0.0616
     20 CAT         7.4610   37.7980   14.2320 C.2       1 9C8         0.2335
     21 OAU         8.2050   38.4750   14.9490 O.2       1 9C8        -0.3864
     22 NAV         7.4910   38.0420   12.8720 N.am      1 9C8        -0.2018
     23 H1          5.9148   41.6536    5.5945 H         1 9C8         0.0249
     24 H2          5.4793   40.7503    7.0848 H         1 9C8         0.0249
     25 H3          4.9348   40.1525    5.4808 H         1 9C8         0.0249
     26 H4          7.8241   40.3490    6.4384 H         1 9C8         0.0516
     27 H5          7.2796   39.7512    4.8344 H         1 9C8         0.0516
     28 H6          6.5923   37.7250    4.4882 H         1 9C8         0.0516
     29 H7          6.4916   36.4935    5.7920 H         1 9C8         0.0516
     30 H8          8.7372   36.4123    4.6514 H         1 9C8         0.0249
     31 H9          8.8976   36.9089    6.3702 H         1 9C8         0.0249
     32 H10         8.9983   38.1403    5.0663 H         1 9C8         0.0249
     33 H11         5.9793   36.2438    7.5722 H         1 9C8         0.0542
     34 H12         5.9045   35.7190    9.9754 H         1 9C8         0.0659
     35 H13         7.5640   40.1146    8.4188 H         1 9C8         0.0542
     36 H14         7.5382   39.5904   10.8239 H         1 9C8         0.0659
     37 H15         4.4263   34.4982   13.4574 H         1 9C8         0.0566
     38 H16         4.2241   33.9545   15.8387 H         1 9C8         0.0630
     39 H17         5.4885   35.2425   17.5447 H         1 9C8         0.0563
     40 H18         7.0700   37.0146   16.8066 H         1 9C8         0.0646
     41 H19         8.0982   38.7547   12.5208 H         1 9C8         0.2486
@<TRIPOS>BOND
     1    1    2 1  
     2    2    3 1  
     3    3    4 1  
     4    3    6 1  
     5    4    5 1  
     6    6    7 ar 
     7    6    9 ar 
     8    7    8 ar 
     9    8   11 ar 
    10    9   10 ar 
    11   10   11 ar 
    12   11   12 1  
    13   12   13 2  
    14   12   22 1  
    15   13   14 1  
    16   14   15 ar 
    17   14   19 ar 
    18   15   16 ar 
    19   16   17 ar 
    20   17   18 ar 
    21   18   19 ar 
    22   19   20 1  
    23   20   21 2  
    24   20   22 am 
    25    1   23 1  
    26    1   24 1  
    27    1   25 1  
    28    2   26 1  
    29    2   27 1  
    30    4   28 1  
    31    4   29 1  
    32    5   30 1  
    33    5   31 1  
    34    5   32 1  
    35    7   33 1  
    36    8   34 1  
    37    9   35 1  
    38   10   36 1  
    39   15   37 1  
    40   16   38 1  
    41   17   39 1  
    42   18   40 1  
    43   22   41 1  
@<TRIPOS>SUBSTRUCTURE
     1 9C8         1

