### 
### Created by X-TOOL on Wed Jan  1 15:39:38 2020
### 

@<TRIPOS>MOLECULE
5nwe_ligand
   44    44     1     0     0
SMALL
GAST_HUCK


@<TRIPOS>ATOM
      1 C1          8.9170    1.4420   44.9720 C.2       1 G39         0.0478
      2 O1A         8.0720    0.6560   44.4870 O.co2     1 G39        -0.5666
      3 O1B         8.6880    2.6840   45.0390 O.co2     1 G39        -0.5666
      4 C2         10.2000    0.9100   45.4640 C.2       1 G39        -0.0181
      5 C3         10.4350   -0.5930   45.4580 C.3       1 G39         0.0201
      6 C4         11.9090   -1.0200   45.3990 C.3       1 G39         0.0100
      7 C5         12.6730   -0.2810   46.4990 C.3       1 G39         0.1202
      8 N5         14.0960   -0.6200   46.4840 N.am      1 G39        -0.2740
      9 C10        14.7420   -1.2290   47.5000 C.2       1 G39         0.1735
     10 O10        14.2070   -1.6740   48.4810 O.2       1 G39        -0.3974
     11 C11        16.2480   -1.3340   47.3870 C.3       1 G39         0.0257
     12 C6         12.5200    1.2520   46.4010 C.3       1 G39         0.1112
     13 C7         11.1580    1.7390   45.9160 C.2       1 G39        -0.0470
     14 O7         12.8170    1.8850   47.6630 O.3       1 G39        -0.3596
     15 C8         13.8520    2.8910   47.5110 C.3       1 G39         0.0613
     16 C9         13.2450    4.2160   46.9860 C.3       1 G39        -0.0292
     17 C81        14.6430    3.0960   48.8030 C.3       1 G39        -0.0292
     18 C82        15.5780    1.9200   49.1280 C.3       1 G39        -0.0629
     19 C91        12.0940    4.7470   47.8290 C.3       1 G39        -0.0629
     20 N4         11.9880   -2.4820   45.5710 N.4       1 G39         0.2238
     21 H1          9.9224   -1.0149   44.5810 H         1 G39         0.0441
     22 H2          9.9954   -1.0106   46.3758 H         1 G39         0.0441
     23 H3         12.3342   -0.7499   44.4211 H         1 G39         0.0895
     24 H4         12.2543   -0.6021   47.4642 H         1 G39         0.0664
     25 H5         14.6241   -0.3852   45.6679 H         1 G39         0.1859
     26 H6         16.6473   -1.8476   48.2740 H         1 G39         0.0467
     27 H7         16.6820   -0.3254   47.3210 H         1 G39         0.0467
     28 H8         16.5090   -1.9053   46.4840 H         1 G39         0.0467
     29 H9         13.2647    1.5956   45.6680 H         1 G39         0.0776
     30 H10        10.9517    2.8081   45.9367 H         1 G39         0.0592
     31 H11        14.5588    2.5268   46.7510 H         1 G39         0.0598
     32 H12        12.8754    4.0461   45.9640 H         1 G39         0.0288
     33 H13        14.0393    4.9767   46.9670 H         1 G39         0.0288
     34 H14        13.9322    3.2184   49.6335 H         1 G39         0.0288
     35 H15        15.2493    4.0082   48.7018 H         1 G39         0.0288
     36 H16        16.1162    2.1275   50.0647 H         1 G39         0.0231
     37 H17        16.3021    1.7904   48.3102 H         1 G39         0.0231
     38 H18        14.9849    1.0006   49.2419 H         1 G39         0.0231
     39 H19        11.7212    5.6848   47.3914 H         1 G39         0.0231
     40 H20        12.4465    4.9353   48.8538 H         1 G39         0.0231
     41 H21        11.2826    4.0047   47.8509 H         1 G39         0.0231
     42 H22        11.4752   -2.9355   44.8311 H         1 G39         0.1999
     43 H23        11.5901   -2.7376   46.4612 H         1 G39         0.1999
     44 H24        12.9526   -2.7726   45.5383 H         1 G39         0.1999
@<TRIPOS>BOND
     1    1    2 ar 
     2    1    3 ar 
     3    1    4 1  
     4    4    5 1  
     5    4   13 2  
     6    5    6 1  
     7    6    7 1  
     8    6   20 1  
     9    7    8 1  
    10    7   12 1  
    11    8    9 am 
    12    9   10 2  
    13    9   11 1  
    14   12   13 1  
    15   12   14 1  
    16   14   15 1  
    17   15   16 1  
    18   15   17 1  
    19   16   19 1  
    20   17   18 1  
    21    5   21 1  
    22    5   22 1  
    23    6   23 1  
    24    7   24 1  
    25    8   25 1  
    26   11   26 1  
    27   11   27 1  
    28   11   28 1  
    29   12   29 1  
    30   13   30 1  
    31   15   31 1  
    32   16   32 1  
    33   16   33 1  
    34   17   34 1  
    35   17   35 1  
    36   18   36 1  
    37   18   37 1  
    38   18   38 1  
    39   19   39 1  
    40   19   40 1  
    41   19   41 1  
    42   20   42 1  
    43   20   43 1  
    44   20   44 1  
@<TRIPOS>SUBSTRUCTURE
     1 G39         1

