### 
### Created by X-TOOL on Wed Jan  1 15:39:34 2020
### 

@<TRIPOS>MOLECULE
5nwg_ligand
   39    41     1     0     0
SMALL
GAST_HUCK


@<TRIPOS>ATOM
      1 OAE         6.8000   37.5890    3.6710 O.3       1 9CB        -0.3930
      2 CAD         6.9850   38.0800    4.9530 C.3       1 9CB         0.0642
      3 CAC         5.6310   38.0070    5.6090 C.3       1 9CB         0.0516
      4 NAB         5.8880   38.9660    6.6960 N.pl3     1 9CB        -0.3047
      5 CAA         6.0120   40.4040    6.3720 C.3       1 9CB         0.0175
      6 CAF         6.0450   38.5820    7.9890 C.ar      1 9CB         0.0495
      7 CAK         6.6470   39.3860    8.9470 C.ar      1 9CB        -0.0345
      8 CAJ         6.7890   38.9760   10.2750 C.ar      1 9CB        -0.0503
      9 CAG         5.5820   37.3510    8.4190 C.ar      1 9CB        -0.0345
     10 CAH         5.7160   36.9310    9.7380 C.ar      1 9CB        -0.0503
     11 CAI         6.3440   37.7130   10.6900 C.ar      1 9CB         0.0332
     12 CAL         6.3920   37.3100   12.0350 C.2       1 9CB         0.1516
     13 NAM         5.5840   36.3340   12.4990 N.2       1 9CB        -0.3035
     14 CAN         5.5800   35.9940   13.8110 C.ar      1 9CB         0.0189
     15 CAT         4.7440   34.9620   14.2520 C.ar      1 9CB        -0.0376
     16 CAR         4.7170   34.6100   15.5980 C.ar      1 9CB         0.0375
     17 CL          3.7170   33.3340   16.1460 Cl        1 9CB        -0.0690
     18 CAQ         5.5100   35.2800   16.5150 C.ar      1 9CB        -0.0502
     19 CAP         6.3390   36.3070   16.0850 C.ar      1 9CB        -0.0485
     20 CAO         6.3860   36.6730   14.7400 C.ar      1 9CB         0.0616
     21 CAU         7.2440   37.6970   14.2880 C.2       1 9CB         0.2335
     22 OAV         8.0210   38.3440   15.0220 O.2       1 9CB        -0.3864
     23 NAW         7.2080   37.9920   12.9320 N.am      1 9CB        -0.2018
     24 H1          6.1632   38.1273    3.2157 H         1 9CB         0.2095
     25 H2          7.3405   39.1204    4.9190 H         1 9CB         0.0577
     26 H3          7.7117   37.4619    5.5006 H         1 9CB         0.0577
     27 H4          5.4028   36.9991    5.9859 H         1 9CB         0.0541
     28 H5          4.8238   38.3398    4.9400 H         1 9CB         0.0541
     29 H6          6.2015   40.9726    7.2944 H         1 9CB         0.0483
     30 H7          5.0790   40.7573    5.9087 H         1 9CB         0.0483
     31 H8          6.8477   40.5515    5.6721 H         1 9CB         0.0483
     32 H9          7.0183   40.3619    8.6559 H         1 9CB         0.0542
     33 H10         7.2495   39.6435   10.9943 H         1 9CB         0.0659
     34 H11         5.0996   36.6932    7.7052 H         1 9CB         0.0542
     35 H12         5.3177   35.9653   10.0274 H         1 9CB         0.0659
     36 H13         4.1156   34.4353   13.5430 H         1 9CB         0.0571
     37 H14         5.4834   35.0038   17.5629 H         1 9CB         0.0569
     38 H15         6.9580   36.8314   16.8040 H         1 9CB         0.0646
     39 H16         7.7930   38.7253   12.5855 H         1 9CB         0.2486
@<TRIPOS>BOND
     1    1    2 1  
     2    2    3 1  
     3    3    4 1  
     4    4    5 1  
     5    4    6 1  
     6    6    7 ar 
     7    6    9 ar 
     8    7    8 ar 
     9    8   11 ar 
    10    9   10 ar 
    11   10   11 ar 
    12   11   12 1  
    13   12   13 2  
    14   12   23 1  
    15   13   14 1  
    16   14   15 ar 
    17   14   20 ar 
    18   15   16 ar 
    19   16   17 1  
    20   16   18 ar 
    21   18   19 ar 
    22   19   20 ar 
    23   20   21 1  
    24   21   22 2  
    25   21   23 am 
    26    1   24 1  
    27    2   25 1  
    28    2   26 1  
    29    3   27 1  
    30    3   28 1  
    31    5   29 1  
    32    5   30 1  
    33    5   31 1  
    34    7   32 1  
    35    8   33 1  
    36    9   34 1  
    37   10   35 1  
    38   15   36 1  
    39   18   37 1  
    40   19   38 1  
    41   23   39 1  
@<TRIPOS>SUBSTRUCTURE
     1 9CB         1

