### 
### Created by X-TOOL on Wed Jan  1 15:39:36 2020
### 

@<TRIPOS>MOLECULE
5nwh_ligand
   56    60     1     0     0
SMALL
GAST_HUCK


@<TRIPOS>ATOM
      1 C14        13.2860  -14.6390  -15.7240 C.ar      1 9CH         0.0423
      2 C10        13.1360  -14.3450  -12.1430 C.2       1 9CH         0.2296
      3 C13        13.2740  -14.8270  -14.2690 C.2       1 9CH         0.2177
      4 C01         8.9160  -15.5480   -7.0000 C.3       1 9CH         0.0358
      5 N02         9.2510  -14.8540   -8.1520 N.am      1 9CH        -0.2315
      6 C03         8.2670  -14.2780   -8.8860 C.2       1 9CH         0.2828
      7 N04         8.5410  -13.6110   -9.9990 N.am      1 9CH        -0.2260
      8 C05         7.4640  -12.9960  -10.7900 C.3       1 9CH         0.0271
      9 C06         9.8150  -13.4990  -10.3980 C.3       1 9CH         0.1798
     10 C07        10.8680  -14.0700   -9.6510 C.2       1 9CH         0.1038
     11 N08        12.2370  -14.1530   -9.8000 N.pl3     1 9CH        -0.2219
     12 C09        13.0090  -13.5160  -10.9080 C.3       1 9CH         0.1447
     13 N11        13.3170  -15.6680  -12.2340 N.2       1 9CH        -0.2450
     14 N12        13.4040  -15.9860  -13.5660 N.2       1 9CH        -0.2460
     15 C15        13.3910  -15.6960  -16.5660 C.ar      1 9CH        -0.0454
     16 C16        13.3770  -15.4680  -17.9250 C.ar      1 9CH        -0.0444
     17 C17        13.2810  -14.1290  -18.4050 C.ar      1 9CH         0.0567
     18 CL1        13.2710  -13.8110  -20.0920 Cl        1 9CH        -0.0677
     19 C19        13.1820  -13.1200  -17.5540 C.ar      1 9CH         0.0573
     20 CL2        13.0430  -11.5170  -18.1730 Cl        1 9CH        -0.0695
     21 C21        13.1870  -13.3360  -16.1960 C.ar      1 9CH        -0.0316
     22 O22        13.1020  -13.8090  -13.4220 O.3       1 9CH        -0.1881
     23 C23        12.7470  -14.8370   -8.7870 C.2       1 9CH         0.1988
     24 N24        14.1350  -15.1130   -8.6020 N.pl3     1 9CH        -0.2636
     25 C25        14.8830  -15.7140   -9.6540 C.3       1 9CH         0.0721
     26 C26        16.3480  -15.3560   -9.5880 C.3       1 9CH        -0.0130
     27 N27        16.8650  -15.4520   -8.2600 N.4       1 9CH         0.2298
     28 C28        16.0870  -14.8080   -7.2420 C.3       1 9CH        -0.0130
     29 C29        14.6610  -15.2820   -7.3030 C.3       1 9CH         0.0721
     30 N30        11.7360  -15.2310   -7.9710 N.2       1 9CH        -0.3173
     31 C31        10.5580  -14.7620   -8.5070 C.2       1 9CH         0.0831
     32 O32        10.0620  -12.8330  -11.5150 O.3       1 9CH        -0.3624
     33 O33         7.0180  -14.3720   -8.5160 O.2       1 9CH        -0.3951
     34 H1          7.8249  -15.5247   -6.8621 H         1 9CH         0.0528
     35 H2          9.4051  -15.0786   -6.1338 H         1 9CH         0.0528
     36 H3          9.2520  -16.5916   -7.0898 H         1 9CH         0.0528
     37 H4          6.4956  -13.1940  -10.3073 H         1 9CH         0.0486
     38 H5          7.4629  -13.4241  -11.8033 H         1 9CH         0.0486
     39 H6          7.6280  -11.9100  -10.8509 H         1 9CH         0.0486
     40 H7          9.7221  -14.4342  -10.9696 H         1 9CH         0.0963
     41 H8         12.5064  -12.5755  -11.1779 H         1 9CH         0.0877
     42 H9         14.0214  -13.2975  -10.5374 H         1 9CH         0.0877
     43 H10        13.4844  -16.7035  -16.1770 H         1 9CH         0.0648
     44 H11        13.4383  -16.2970  -18.6208 H         1 9CH         0.0628
     45 H12        13.1149  -12.5036  -15.5053 H         1 9CH         0.0653
     46 H13        14.4777  -15.3715  -10.6175 H         1 9CH         0.0572
     47 H14        14.7817  -16.8069   -9.5813 H         1 9CH         0.0572
     48 H15        16.4774  -14.3237   -9.9452 H         1 9CH         0.0834
     49 H16        16.9105  -16.0422  -10.2381 H         1 9CH         0.0834
     50 H17        17.7844  -15.0389   -8.2549 H         1 9CH         0.2015
     51 H18        16.9346  -16.4296   -8.0246 H         1 9CH         0.2015
     52 H19        16.1153  -13.7193   -7.3968 H         1 9CH         0.0834
     53 H20        16.5085  -15.0492   -6.2550 H         1 9CH         0.0834
     54 H21        14.6228  -16.3478   -7.0336 H         1 9CH         0.0572
     55 H22        14.0567  -14.7017   -6.5902 H         1 9CH         0.0572
     56 H23        10.9975  -12.8299  -11.6802 H         1 9CH         0.2143
@<TRIPOS>BOND
     1    3    1 1  
     2    1   15 ar 
     3    1   21 ar 
     4   12    2 1  
     5    2   13 2  
     6    2   22 1  
     7    3   14 2  
     8   22    3 1  
     9    5    4 1  
    10    5    6 am 
    11   31    5 1  
    12    7    6 am 
    13    6   33 2  
    14    7    8 1  
    15    9    7 1  
    16   10    9 1  
    17    9   32 1  
    18   11   10 1  
    19   10   31 2  
    20   11   12 1  
    21   11   23 1  
    22   13   14 1  
    23   15   16 ar 
    24   16   17 ar 
    25   17   18 1  
    26   17   19 ar 
    27   19   20 1  
    28   19   21 ar 
    29   23   24 1  
    30   23   30 2  
    31   24   25 1  
    32   24   29 1  
    33   25   26 1  
    34   26   27 1  
    35   27   28 1  
    36   28   29 1  
    37   30   31 1  
    38    4   34 1  
    39    4   35 1  
    40    4   36 1  
    41    8   37 1  
    42    8   38 1  
    43    8   39 1  
    44    9   40 1  
    45   12   41 1  
    46   12   42 1  
    47   15   43 1  
    48   16   44 1  
    49   21   45 1  
    50   25   46 1  
    51   25   47 1  
    52   26   48 1  
    53   26   49 1  
    54   27   50 1  
    55   27   51 1  
    56   28   52 1  
    57   28   53 1  
    58   29   54 1  
    59   29   55 1  
    60   32   56 1  
@<TRIPOS>SUBSTRUCTURE
     1 9CH         1

