### 
### Created by X-TOOL on Wed Jan  1 15:39:38 2020
### 

@<TRIPOS>MOLECULE
5nwz_ligand
   57    59     1     0     0
SMALL
GAST_HUCK


@<TRIPOS>ATOM
      1 C1          3.7280  -11.0950   22.9370 C.3       1 9CT        -0.0477
      2 C2          2.4610  -11.7400   23.5450 C.3       1 9CT         0.0409
      3 C3          2.7270  -13.0120   24.3120 C.2       1 9CT         0.2057
      4 C11         3.9330  -15.0660   26.2480 C.ar      1 9CT        -0.0349
      5 C12         1.3700  -12.9250   28.2560 C.2       1 9CT         0.2189
      6 C15        -0.3660  -12.1270   29.7830 C.2       1 9CT         0.0955
      7 C18        -1.5680  -10.2770   30.2060 C.2       1 9CT         0.0584
      8 C19        -2.1570   -8.8950   30.3090 C.3       1 9CT         0.0167
      9 C20        -1.9740   -7.9940   29.0610 C.3       1 9CT        -0.0106
     10 C21        -2.9500   -6.8170   29.1940 C.ar      1 9CT        -0.0581
     11 C22        -2.6700   -5.7650   30.0980 C.ar      1 9CT        -0.0431
     12 C23        -3.5810   -4.7030   30.2650 C.ar      1 9CT         0.0756
     13 C25        -3.9140   -2.3770   31.1760 C.3       1 9CT         0.0590
     14 C26        -4.7790   -4.7090   29.5130 C.ar      1 9CT        -0.0125
     15 C27        -5.0780   -5.7340   28.6040 C.ar      1 9CT         0.0756
     16 C29        -7.1070   -4.5530   27.6550 C.3       1 9CT         0.0590
     17 C30        -4.1630   -6.7970   28.4590 C.ar      1 9CT        -0.0431
     18 O4          2.8150  -14.0610   23.6950 O.2       1 9CT        -0.3837
     19 N5          2.8630  -12.9210   25.6580 N.am      1 9CT        -0.2289
     20 C6          3.0430  -14.0140   26.5690 C.ar      1 9CT         0.0881
     21 C7          2.3070  -14.0610   27.8000 C.ar      1 9CT         0.0749
     22 C8          2.5160  -15.1660   28.6640 C.ar      1 9CT        -0.0549
     23 C9          3.4050  -16.2030   28.3320 C.ar      1 9CT        -0.0713
     24 C10         4.1130  -16.1540   27.1170 C.ar      1 9CT        -0.0710
     25 O13         1.4890  -11.8440   27.6960 O.2       1 9CT        -0.3838
     26 N14         0.4960  -13.0680   29.2970 N.am      1 9CT        -0.2389
     27 N16        -1.2980  -12.3790   30.6290 N.2       1 9CT        -0.2373
     28 N17        -2.0300  -11.2790   30.9110 N.pl3     1 9CT        -0.2381
     29 O24        -3.2880   -3.6770   31.1810 O.3       1 9CT        -0.3257
     30 O28        -6.2680   -5.7200   27.8580 O.3       1 9CT        -0.3257
     31 C31        -0.5040  -10.6850   29.4790 C.2       1 9CT        -0.0274
     32 H1          3.4496  -10.1777   22.3974 H         1 9CT         0.0254
     33 H2          4.2004  -11.8018   22.2390 H         1 9CT         0.0254
     34 H3          4.4353  -10.8465   23.7420 H         1 9CT         0.0254
     35 H4          1.7629  -11.9694   22.7264 H         1 9CT         0.0505
     36 H5          1.9978  -11.0140   24.2294 H         1 9CT         0.0505
     37 H6          4.4850  -15.0314   25.3157 H         1 9CT         0.0517
     38 H7         -1.6849   -8.3888   31.1639 H         1 9CT         0.0494
     39 H8         -3.2360   -9.0000   30.4952 H         1 9CT         0.0494
     40 H9         -2.1980   -8.5662   28.1487 H         1 9CT         0.0448
     41 H10        -0.9401   -7.6211   29.0154 H         1 9CT         0.0448
     42 H11        -1.7472   -5.7762   30.6667 H         1 9CT         0.0390
     43 H12        -3.5034   -1.7692   31.9957 H         1 9CT         0.0577
     44 H13        -4.9993   -2.4921   31.3130 H         1 9CT         0.0577
     45 H14        -3.7165   -1.8786   30.2155 H         1 9CT         0.0577
     46 H15        -5.4863   -3.8979   29.6431 H         1 9CT         0.0408
     47 H16        -7.9721   -4.8271   27.0333 H         1 9CT         0.0577
     48 H17        -6.5264   -3.7674   27.1494 H         1 9CT         0.0577
     49 H18        -7.4584   -4.1802   28.6284 H         1 9CT         0.0577
     50 H19        -4.3894   -7.6089   27.7774 H         1 9CT         0.0390
     51 H20         2.8351  -12.0031   26.0538 H         1 9CT         0.2288
     52 H21         1.9770  -15.2121   29.6034 H         1 9CT         0.0628
     53 H22         3.5446  -17.0375   29.0096 H         1 9CT         0.0502
     54 H23         4.7953  -16.9538   26.8527 H         1 9CT         0.0612
     55 H24         0.4868  -13.9584   29.7522 H         1 9CT         0.2195
     56 H25        -2.8199  -11.2358   31.5707 H         1 9CT         0.2428
     57 H26         0.1159  -10.0843   28.8150 H         1 9CT         0.0204
@<TRIPOS>BOND
     1    2    1 1  
     2    3    2 1  
     3    3   18 2  
     4   19    3 am 
     5   20    4 ar 
     6    4   24 ar 
     7   21    5 1  
     8    5   25 2  
     9    5   26 am 
    10   26    6 1  
    11    6   27 2  
    12    6   31 1  
    13    7    8 1  
    14    7   28 1  
    15   31    7 2  
    16    8    9 1  
    17    9   10 1  
    18   10   11 ar 
    19   10   17 ar 
    20   11   12 ar 
    21   12   14 ar 
    22   12   29 1  
    23   29   13 1  
    24   15   14 ar 
    25   17   15 ar 
    26   15   30 1  
    27   30   16 1  
    28   20   19 1  
    29   20   21 ar 
    30   21   22 ar 
    31   22   23 ar 
    32   23   24 ar 
    33   27   28 1  
    34    1   32 1  
    35    1   33 1  
    36    1   34 1  
    37    2   35 1  
    38    2   36 1  
    39    4   37 1  
    40    8   38 1  
    41    8   39 1  
    42    9   40 1  
    43    9   41 1  
    44   11   42 1  
    45   13   43 1  
    46   13   44 1  
    47   13   45 1  
    48   14   46 1  
    49   16   47 1  
    50   16   48 1  
    51   16   49 1  
    52   17   50 1  
    53   19   51 1  
    54   22   52 1  
    55   23   53 1  
    56   24   54 1  
    57   26   55 1  
    58   28   56 1  
    59   31   57 1  
@<TRIPOS>SUBSTRUCTURE
     1 9CT         1

