### 
### Created by X-TOOL on Wed Jan  1 15:39:34 2020
### 

@<TRIPOS>MOLECULE
5nxg_ligand
   33    34     1     0     0
SMALL
GAST_HUCK


@<TRIPOS>ATOM
      1 CL         -1.9090    9.6500   14.4050 Cl        1 RA1        -0.0633
      2 C10        -2.1970    9.6290   12.6930 C.ar      1 RA1         0.0723
      3 C9         -1.4020   10.5210   11.9450 C.ar      1 RA1        -0.0089
      4 C8         -1.5820   10.5720   10.5520 C.ar      1 RA1         0.0886
      5 N2         -0.7450   11.4800    9.7440 N.2       1 RA1        -0.2137
      6 O4         -0.3400   11.0910    8.6750 O.2       1 RA1        -0.4873
      7 O3         -0.4750   12.5790   10.1520 O.2       1 RA1        -0.4873
      8 C7         -2.5280    9.7940    9.8610 C.ar      1 RA1        -0.0228
      9 C6         -3.3210    8.9380   10.5930 C.ar      1 RA1        -0.0298
     10 C5         -3.1500    8.8580   11.9830 C.ar      1 RA1         0.1194
     11 C4         -4.0770    7.9240   12.6670 C.2       1 RA1         0.3993
     12 O2         -5.3080    8.0890   12.6520 O.2       1 RA1        -0.2668
     13 N1         -3.5290    6.9420   13.3900 N.am      1 RA1        -0.0813
     14 C3         -4.1710    5.9860   14.1890 C.ar      1 RA1         0.3197
     15 C2         -5.5350    5.9230   14.4990 C.ar      1 RA1         0.1258
     16 C1         -6.0110    4.8970   15.2860 C.ar      1 RA1         0.0805
     17 C11        -3.2940    4.9870   14.6750 C.ar      1 RA1         0.1258
     18 C12        -3.8040    3.9430   15.4260 C.ar      1 RA1         0.0805
     19 C          -5.1940    3.8690   15.7630 C.ar      1 RA1         0.2124
     20 S          -5.8320    2.5820   16.6680 S.o2      1 RA1         0.1135
     21 O          -5.2980    2.6950   17.9980 O.2       1 RA1        -0.1366
     22 O1         -7.2760    2.6840   16.5340 O.2       1 RA1        -0.1366
     23 N          -5.2680    1.2370   16.0270 N.am      1 RA1        -0.2496
     24 H1         -0.6688   11.1530   12.4329 H         1 RA1         0.0705
     25 H2         -2.6301    9.8658    8.7842 H         1 RA1         0.0699
     26 H3         -4.0711    8.3311   10.0989 H         1 RA1         0.0683
     27 H4         -2.5314    6.8817   13.3564 H         1 RA1         0.4365
     28 H5         -6.2141    6.6787   14.1212 H         1 RA1         0.1367
     29 H6         -7.0633    4.8871   15.5459 H         1 RA1         0.0991
     30 H7         -2.2327    5.0394   14.4608 H         1 RA1         0.1367
     31 H8         -3.1349    3.1616   15.7678 H         1 RA1         0.0991
     32 H9         -5.5251    0.3520   16.4151 H         1 RA1         0.1647
     33 H10        -4.6569    1.2778   15.2365 H         1 RA1         0.1647
@<TRIPOS>BOND
     1    1    2 1  
     2    2    3 ar 
     3    2   10 ar 
     4    3    4 ar 
     5    4    5 1  
     6    4    8 ar 
     7    5    6 2  
     8    5    7 2  
     9    8    9 ar 
    10    9   10 ar 
    11   10   11 1  
    12   11   12 2  
    13   11   13 am 
    14   13   14 1  
    15   14   15 ar 
    16   14   17 ar 
    17   15   16 ar 
    18   16   19 ar 
    19   17   18 ar 
    20   18   19 ar 
    21   19   20 1  
    22   20   21 2  
    23   20   22 2  
    24   20   23 am 
    25    3   24 1  
    26    8   25 1  
    27    9   26 1  
    28   13   27 1  
    29   15   28 1  
    30   16   29 1  
    31   17   30 1  
    32   18   31 1  
    33   23   32 1  
    34   23   33 1  
@<TRIPOS>SUBSTRUCTURE
     1 RA1         1

