### 
### Created by X-TOOL on Wed Jan  1 15:39:34 2020
### 

@<TRIPOS>MOLECULE
5nxi_ligand
   32    33     1     0     0
SMALL
GAST_HUCK


@<TRIPOS>ATOM
      1 CAA        -5.8530    6.1320   14.9420 C.ar      1 9DE        -0.0437
      2 CAB        -6.2710    5.0080   15.6220 C.ar      1 9DE        -0.0513
      3 CAC        -5.3930    3.9830   15.9740 C.ar      1 9DE         0.0904
      4 SAR        -6.0280    2.6350   16.8700 S.o2      1 9DE         0.0582
      5 OAS        -5.4920    2.7700   18.2670 O.2       1 9DE        -0.1527
      6 OAT        -7.5050    2.7090   16.8090 O.2       1 9DE        -0.1527
      7 NAU        -5.4690    1.2590   16.2030 N.am      1 9DE        -0.2627
      8 CAD        -4.0330    4.1230   15.6490 C.ar      1 9DE        -0.0513
      9 CAE        -3.5920    5.2570   14.9450 C.ar      1 9DE        -0.0437
     10 CAF        -4.5100    6.3000   14.5830 C.ar      1 9DE         0.0626
     11 NAG        -4.2110    7.4390   13.8710 N.am      1 9DE        -0.1867
     12 SAH        -2.6730    7.7550   13.3220 S.o2      1 9DE         0.0907
     13 OAI        -1.5910    7.4730   14.3980 O.2       1 9DE        -0.1442
     14 OAJ        -2.3490    6.8790   12.0960 O.2       1 9DE        -0.1442
     15 CAK        -2.5930    9.4410   13.0970 C.ar      1 9DE         0.1169
     16 CAL        -2.0700   10.2190   14.1280 C.ar      1 9DE        -0.0317
     17 CAM        -2.0410   11.5870   13.9500 C.ar      1 9DE        -0.0503
     18 CAN        -2.5400   12.1310   12.7790 C.ar      1 9DE         0.0131
     19 BR         -2.4970   13.9310   12.6090 Br        1 9DE        -0.0498
     20 CAO        -3.0690   11.3620   11.7550 C.ar      1 9DE        -0.0503
     21 CAP        -3.1010    9.9920   11.9320 C.ar      1 9DE        -0.0317
     22 H1         -6.5750    6.8974   14.6813 H         1 9DE         0.0482
     23 H2         -7.3169    4.9178   15.8921 H         1 9DE         0.0591
     24 H3         -5.7310    0.3742   16.5883 H         1 9DE         0.1633
     25 H4         -4.8637    1.2987   15.4080 H         1 9DE         0.1633
     26 H5         -3.3241    3.3567   15.9411 H         1 9DE         0.0591
     27 H6         -2.5466    5.3451   14.6722 H         1 9DE         0.0482
     28 H7         -4.9398    8.0960   13.6780 H         1 9DE         0.2163
     29 H8         -1.6984    9.7647   15.0394 H         1 9DE         0.0644
     30 H9         -1.6311   12.2300   14.7204 H         1 9DE         0.0645
     31 H10        -3.4446   11.8192   10.8467 H         1 9DE         0.0645
     32 H11        -3.5210    9.3525   11.1641 H         1 9DE         0.0644
@<TRIPOS>BOND
     1    1    2 ar 
     2    1   10 ar 
     3    2    3 ar 
     4    3    4 1  
     5    3    8 ar 
     6    4    5 2  
     7    4    6 2  
     8    4    7 am 
     9    8    9 ar 
    10    9   10 ar 
    11   10   11 1  
    12   11   12 am 
    13   12   13 2  
    14   12   14 2  
    15   12   15 1  
    16   15   16 ar 
    17   15   21 ar 
    18   16   17 ar 
    19   17   18 ar 
    20   18   19 1  
    21   18   20 ar 
    22   20   21 ar 
    23    1   22 1  
    24    2   23 1  
    25    7   24 1  
    26    7   25 1  
    27    8   26 1  
    28    9   27 1  
    29   11   28 1  
    30   16   29 1  
    31   17   30 1  
    32   20   31 1  
    33   21   32 1  
@<TRIPOS>SUBSTRUCTURE
     1 9DE         1

