### 
### Created by X-TOOL on Wed Jan  1 15:39:34 2020
### 

@<TRIPOS>MOLECULE
5nxo_ligand
   32    33     1     0     0
SMALL
GAST_HUCK


@<TRIPOS>ATOM
      1 CAA        -3.0750    8.8730   14.8010 C.ar      1 9HK        -0.0498
      2 CAB        -2.0380    9.7580   15.0470 C.ar      1 9HK        -0.0250
      3 CAC        -1.0360    9.9470   14.1000 C.ar      1 9HK         0.1926
      4 NAR        -0.0390   10.8060   14.3530 N.2       1 9HK         0.3096
      5 OAT        -0.1460   11.5910   15.3980 O.2       1 9HK         0.1751
      6 OAS         0.9660   10.8860   13.4730 O.2       1 9HK         0.1751
      7 CAD        -1.0690    9.1960   12.9270 C.ar      1 9HK        -0.0250
      8 CAE        -2.1290    8.3230   12.6820 C.ar      1 9HK        -0.0498
      9 CAF        -3.1370    8.1450   13.6270 C.ar      1 9HK        -0.0261
     10 CAG        -4.2730    7.3120   13.3540 C.3       1 9HK         0.0167
     11 CAH        -4.6520    6.2510   14.2520 C.ar      1 9HK        -0.0308
     12 CAI        -5.9800    6.1260   14.6560 C.ar      1 9HK        -0.0563
     13 CAJ        -6.3920    5.0650   15.4530 C.ar      1 9HK        -0.0415
     14 CAK        -5.4720    4.0780   15.8350 C.ar      1 9HK         0.1012
     15 SAN        -6.0670    2.6720   16.7820 S.o2      1 9HK         0.0630
     16 OAO        -5.4800    2.8250   18.1430 O.2       1 9HK        -0.1513
     17 OAP        -7.5250    2.7110   16.6980 O.2       1 9HK        -0.1513
     18 NAQ        -5.4990    1.3840   16.0690 N.am      1 9HK        -0.2616
     19 CAL        -4.1210    4.1820   15.4710 C.ar      1 9HK        -0.0415
     20 CAM        -3.7440    5.2720   14.6760 C.ar      1 9HK        -0.0563
     21 H1         -3.8541    8.7486   15.5444 H         1 9HK         0.0577
     22 H2         -2.0069   10.3060   15.9818 H         1 9HK         0.0676
     23 H3         -0.2683    9.2904   12.2024 H         1 9HK         0.0676
     24 H4         -2.1688    7.7772   11.7463 H         1 9HK         0.0577
     25 H5         -4.0879    6.8424   12.3767 H         1 9HK         0.0596
     26 H6         -5.1414    7.9831   13.2798 H         1 9HK         0.0596
     27 H7         -6.7041    6.8695   14.3430 H         1 9HK         0.0562
     28 H8         -7.4237    5.0003   15.7792 H         1 9HK         0.0619
     29 H9         -5.7093    0.4769   16.4336 H         1 9HK         0.1634
     30 H10        -4.9287    1.4749   15.2526 H         1 9HK         0.1634
     31 H11        -3.3946    3.4449   15.7936 H         1 9HK         0.0619
     32 H12        -2.7061    5.3617   14.3763 H         1 9HK         0.0562
@<TRIPOS>BOND
     1    1    2 ar 
     2    1    9 ar 
     3    2    3 ar 
     4    3    4 1  
     5    3    7 ar 
     6    4    5 2  
     7    4    6 2  
     8    7    8 ar 
     9    8    9 ar 
    10    9   10 1  
    11   10   11 1  
    12   11   12 ar 
    13   11   20 ar 
    14   12   13 ar 
    15   13   14 ar 
    16   14   15 1  
    17   14   19 ar 
    18   15   16 2  
    19   15   17 2  
    20   15   18 am 
    21   19   20 ar 
    22    1   21 1  
    23    2   22 1  
    24    7   23 1  
    25    8   24 1  
    26   10   25 1  
    27   10   26 1  
    28   12   27 1  
    29   13   28 1  
    30   18   29 1  
    31   18   30 1  
    32   19   31 1  
    33   20   32 1  
@<TRIPOS>SUBSTRUCTURE
     1 9HK         1

