### 
### Created by X-TOOL on Wed Jan  1 15:39:34 2020
### 

@<TRIPOS>MOLECULE
5nxp_ligand
   39    40     1     0     0
SMALL
GAST_HUCK


@<TRIPOS>ATOM
      1 CAH        -5.6220    6.0360   14.6950 C.ar      1 9DH        -0.0394
      2 CAI        -6.1260    4.9490   15.4380 C.ar      1 9DH        -0.0490
      3 CAJ        -5.2930    3.9490   15.9140 C.ar      1 9DH         0.0924
      4 SAM        -5.8870    2.5660   16.7920 S.o2      1 9DH         0.0591
      5 OAN        -5.3660    2.6600   18.1490 O.2       1 9DH        -0.1524
      6 OAO        -7.3600    2.6410   16.6610 O.2       1 9DH        -0.1524
      7 NAP        -5.3130    1.2950   16.1110 N.am      1 9DH        -0.2626
      8 CAK        -3.9210    4.0390   15.6240 C.ar      1 9DH        -0.0490
      9 CAL        -3.4170    5.1070   14.8900 C.ar      1 9DH        -0.0394
     10 CAG        -4.2420    6.0890   14.4100 C.ar      1 9DH         0.0664
     11 NAF        -3.5480    7.0540   13.7280 N.am      1 9DH        -0.2323
     12 C          -4.0740    7.8290   12.7870 C.2       1 9DH         0.2255
     13 O          -5.2770    7.8810   12.5580 O.2       1 9DH        -0.3827
     14 CA         -3.1300    8.7970   12.0190 C.3       1 9DH         0.1216
     15 N          -1.6400    8.7550   12.2740 N.pl3     1 9DH        -0.2931
     16 CAA        -0.7520    7.9190   11.4300 C.3       1 9DH         0.0179
     17 CAQ        -1.0330    9.6050   13.1290 C.ar      1 9DH         0.0420
     18 CAR         0.2230   10.2170   12.9040 C.ar      1 9DH        -0.0442
     19 CAS         0.7530   11.1070   13.8380 C.ar      1 9DH        -0.0737
     20 CAT         0.0520   11.4190   15.0020 C.ar      1 9DH        -0.0751
     21 CAU        -1.1780   10.8110   15.2360 C.ar      1 9DH        -0.0737
     22 CAV        -1.7000    9.9300   14.3170 C.ar      1 9DH        -0.0442
     23 H1         -6.2857    6.8196   14.3479 H         1 9DH         0.0503
     24 H2         -7.1893    4.8942   15.6416 H         1 9DH         0.0596
     25 H3         -5.5396    0.3897   16.4702 H         1 9DH         0.1633
     26 H4         -4.7165    1.3814   15.3130 H         1 9DH         0.1633
     27 H5         -3.2474    3.2665   15.9768 H         1 9DH         0.0596
     28 H6         -2.3523    5.1633   14.6943 H         1 9DH         0.0503
     29 H7         -2.5824    7.1829   13.9538 H         1 9DH         0.2257
     30 H8         -3.4641    9.8189   12.2518 H         1 9DH         0.0762
     31 H9         -3.2751    8.5991   10.9467 H         1 9DH         0.0762
     32 H10         0.2874    8.0251   11.7742 H         1 9DH         0.0479
     33 H11        -0.8266    8.2466   10.3826 H         1 9DH         0.0479
     34 H12        -1.0580    6.8653   11.5073 H         1 9DH         0.0479
     35 H13         0.7769    9.9926   11.9996 H         1 9DH         0.0515
     36 H14         1.7205   11.5611   13.6569 H         1 9DH         0.0583
     37 H15         0.4596   12.1259   15.7156 H         1 9DH         0.0505
     38 H16        -1.7261   11.0322   16.1447 H         1 9DH         0.0583
     39 H17        -2.6611    9.4714   14.5195 H         1 9DH         0.0515
@<TRIPOS>BOND
     1    1    2 ar 
     2    1   10 ar 
     3    2    3 ar 
     4    3    4 1  
     5    3    8 ar 
     6    4    5 2  
     7    4    6 2  
     8    4    7 am 
     9    8    9 ar 
    10    9   10 ar 
    11   10   11 1  
    12   11   12 am 
    13   12   13 2  
    14   12   14 1  
    15   14   15 1  
    16   15   16 1  
    17   15   17 1  
    18   17   18 ar 
    19   17   22 ar 
    20   18   19 ar 
    21   19   20 ar 
    22   20   21 ar 
    23   21   22 ar 
    24    1   23 1  
    25    2   24 1  
    26    7   25 1  
    27    7   26 1  
    28    8   27 1  
    29    9   28 1  
    30   11   29 1  
    31   14   30 1  
    32   14   31 1  
    33   16   32 1  
    34   16   33 1  
    35   16   34 1  
    36   18   35 1  
    37   19   36 1  
    38   20   37 1  
    39   21   38 1  
    40   22   39 1  
@<TRIPOS>SUBSTRUCTURE
     1 9DH         1

