### 
### Created by X-TOOL on Wed Jan  1 15:39:34 2020
### 

@<TRIPOS>MOLECULE
5nxv_ligand
   36    37     1     0     0
SMALL
GAST_HUCK


@<TRIPOS>ATOM
      1 C11        -3.8910    4.2280   15.6950 C.ar      1 9E2        -0.0490
      2 C5         -2.3040    8.6080   12.3650 C.3       1 9E2         0.2195
      3 C9         -6.1380    4.9310   15.4140 C.ar      1 9E2        -0.0490
      4 C8         -5.7090    6.0590   14.7240 C.ar      1 9E2        -0.0394
      5 C7         -4.3530    6.2780   14.5210 C.ar      1 9E2         0.0664
      6 C6         -2.6440    7.7870   13.5920 C.2       1 9E2         0.2418
      7 N4         -5.2790    1.2840   16.0190 N.am      1 9E2        -0.2626
      8 C2         -2.0020   10.8830   13.3030 C.2       1 9E2         0.3434
      9 N1         -3.0810   10.8260   11.3520 N.2       1 9E2         0.1072
     10 N3         -3.9490    7.4410   13.8380 N.am      1 9E2        -0.2313
     11 CL1        -1.9590   13.5390   13.9000 Cl        1 9E2         0.1134
     12 C3         -2.3240   12.1420   12.9450 C.2       1 9E2         0.3679
     13 C4         -2.9970   12.0770   11.7130 C.2       1 9E2         0.4155
     14 N5         -3.5460   13.2100   10.9570 N.2       1 9E2        -0.1520
     15 O5         -3.7050   13.0840    9.7530 O.2       1 9E2        -0.4799
     16 O4         -3.8460   14.2450   11.5370 O.2       1 9E2        -0.4799
     17 N2         -2.4700   10.0580   12.3550 N.pl3     1 9E2         0.0477
     18 C1         -1.2790   10.4490   14.5520 C.3       1 9E2         0.1164
     19 O1         -1.6980    7.3160   14.2250 O.2       1 9E2        -0.3814
     20 C12        -3.4470    5.3560   15.0100 C.ar      1 9E2        -0.0394
     21 C10        -5.2420    4.0120   15.9080 C.ar      1 9E2         0.0924
     22 S1         -5.8590    2.6040   16.7610 S.o2      1 9E2         0.0591
     23 O3         -7.2760    2.6870   16.5730 O.2       1 9E2        -0.1524
     24 O2         -5.3610    2.6840   18.0670 O.2       1 9E2        -0.1524
     25 H1         -3.1694    3.5094   16.0665 H         1 9E2         0.0596
     26 H2         -2.9264    8.2175   11.5464 H         1 9E2         0.0944
     27 H3         -1.2440    8.4142   12.1442 H         1 9E2         0.0944
     28 H4         -7.1996    4.7727   15.5656 H         1 9E2         0.0596
     29 H5         -6.4345    6.7690   14.3437 H         1 9E2         0.0503
     30 H6         -5.5182    0.3741   16.3580 H         1 9E2         0.1633
     31 H7         -4.6821    1.3798   15.2224 H         1 9E2         0.1633
     32 H8         -4.6634    8.0585   13.5089 H         1 9E2         0.2258
     33 H9         -1.0110   11.3346   15.1470 H         1 9E2         0.1057
     34 H10        -0.3651    9.9027   14.2756 H         1 9E2         0.1057
     35 H11        -1.9331    9.7930   15.1452 H         1 9E2         0.1057
     36 H12        -2.3849    5.5119   14.8594 H         1 9E2         0.0503
@<TRIPOS>BOND
     1    1   20 ar 
     2   21    1 ar 
     3    6    2 1  
     4    2   17 1  
     5    3    4 ar 
     6   21    3 ar 
     7    4    5 ar 
     8    5   10 1  
     9   20    5 ar 
    10   10    6 am 
    11    6   19 2  
    12   22    7 am 
    13    8   12 2  
    14   17    8 1  
    15    8   18 1  
    16    9   13 2  
    17   17    9 1  
    18   12   11 1  
    19   13   12 1  
    20   13   14 1  
    21   14   15 2  
    22   14   16 2  
    23   21   22 1  
    24   22   23 2  
    25   22   24 2  
    26    1   25 1  
    27    2   26 1  
    28    2   27 1  
    29    3   28 1  
    30    4   29 1  
    31    7   30 1  
    32    7   31 1  
    33   10   32 1  
    34   18   33 1  
    35   18   34 1  
    36   18   35 1  
    37   20   36 1  
@<TRIPOS>SUBSTRUCTURE
     1 9E2         1

