### 
### Created by X-TOOL on Wed Jan  1 15:39:34 2020
### 

@<TRIPOS>MOLECULE
5nxw_ligand
   32    33     1     0     0
SMALL
GAST_HUCK


@<TRIPOS>ATOM
      1 O2         -7.5090    2.6370   16.7080 O.2       1 RA9        -0.1524
      2 S2         -6.0690    2.5930   16.7970 S.o2      1 RA9         0.0591
      3 O1         -5.4960    2.7070   18.1400 O.2       1 RA9        -0.1524
      4 N4         -5.5090    1.2820   16.0570 N.am      1 RA9        -0.2626
      5 C2         -5.5300    3.9390   15.9450 C.ar      1 RA9         0.0924
      6 C1         -4.1870    4.1140   15.5780 C.ar      1 RA9        -0.0490
      7 C3         -6.4170    4.9610   15.5260 C.ar      1 RA9        -0.0490
      8 C4         -6.0090    6.0780   14.8070 C.ar      1 RA9        -0.0394
      9 C5         -4.6770    6.2340   14.4400 C.ar      1 RA9         0.0664
     10 C          -3.7650    5.2580   14.8500 C.ar      1 RA9        -0.0394
     11 N          -4.2410    7.3500   13.7520 N.am      1 RA9        -0.2331
     12 C6         -2.9410    7.7370   13.5220 C.2       1 RA9         0.2166
     13 O          -1.8840    7.1860   13.8060 O.2       1 RA9        -0.3837
     14 C7         -2.6740    9.0690   12.8720 C.3       1 RA9         0.1091
     15 S          -1.4440    9.8840   13.8540 S.3       1 RA9        -0.0329
     16 C8         -1.6530   11.5350   13.3680 C.2       1 RA9         0.1639
     17 N1         -2.3950   11.8690   12.2930 N.2       1 RA9        -0.2748
     18 S1         -0.8830   12.7760   14.2940 S.3       1 RA9         0.0726
     19 C9         -1.6350   13.8210   13.1300 C.2       1 RA9         0.1888
     20 N2         -2.3860   13.2750   12.1460 N.2       1 RA9        -0.2732
     21 N3         -1.4610   15.1610   13.2130 N.pl3     1 RA9        -0.2996
     22 H1         -5.8090    1.0657   15.1279 H         1 RA9         0.1633
     23 H2         -4.8604    0.6821   16.5254 H         1 RA9         0.1633
     24 H3         -3.4577    3.3616   15.8555 H         1 RA9         0.0596
     25 H4         -7.4669    4.8670   15.7790 H         1 RA9         0.0596
     26 H5         -6.7350    6.8338   14.5300 H         1 RA9         0.0503
     27 H6         -2.7151    5.3763   14.6077 H         1 RA9         0.0503
     28 H7         -4.9524    7.9451   13.3781 H         1 RA9         0.2257
     29 H8         -3.5957    9.6688   12.8461 H         1 RA9         0.0655
     30 H9         -2.3032    8.9221   11.8469 H         1 RA9         0.0655
     31 H10        -1.9069   15.7820   12.5227 H         1 RA9         0.1847
     32 H11        -0.8827   15.5596   13.9665 H         1 RA9         0.1847
@<TRIPOS>BOND
     1    1    2 2  
     2    2    3 2  
     3    2    4 am 
     4    2    5 1  
     5    5    6 ar 
     6    5    7 ar 
     7    6   10 ar 
     8    7    8 ar 
     9    8    9 ar 
    10    9   10 ar 
    11    9   11 1  
    12   11   12 am 
    13   12   13 2  
    14   12   14 1  
    15   14   15 1  
    16   15   16 1  
    17   16   17 2  
    18   16   18 1  
    19   17   20 1  
    20   18   19 1  
    21   19   20 2  
    22   19   21 1  
    23    4   22 1  
    24    4   23 1  
    25    6   24 1  
    26    7   25 1  
    27    8   26 1  
    28   10   27 1  
    29   11   28 1  
    30   14   29 1  
    31   14   30 1  
    32   21   31 1  
    33   21   32 1  
@<TRIPOS>SUBSTRUCTURE
     1 RA9         1

