#	Name:			5ny1_ligand
#	Creating user name:	wangrx
#	Creation time:		Thu Aug  5 17:11:45 2021

#	Modifying user name:	wangrx
#	Modification time:	Thu Aug  5 17:12:08 2021

@<TRIPOS>MOLECULE
5ny1_ligand
   46    48     1     0     0
SMALL
GAST_HUCK


@<TRIPOS>ATOM
      1 C4          2.1650   11.1330   13.0820 C.ar      1 9E5        -0.0776 
      2 C5          1.0210   10.3460   13.1950 C.ar      1 9E5        -0.0051 
      3 C6         -0.1240   10.3850   14.0000 C.2       1 9E5        -0.0121 
      4 C11         1.5350    7.6340   10.5670 C.3       1 9E5        -0.0350 
      5 C7         -0.8900    9.3060   13.6100 C.2       1 9E5         0.1793 
      6 C9          0.8460    9.2300   12.3830 C.ar      1 9E5         0.1204 
      7 C10         1.7830    8.8580   11.4190 C.ar      1 9E5        -0.0111 
      8 C12        -2.2000    8.8600   14.0920 C.2       1 9E5         0.2246 
      9 C3          3.1160   10.7680   12.1280 C.ar      1 9E5        -0.0778 
     10 O24        -7.3510    2.6900   16.6880 O.2       1 9E5        -0.1514 
     11 S22        -5.9160    2.6290   16.8020 S.o2      1 9E5         0.0628 
     12 O23        -5.3600    2.7570   18.1140 O.2       1 9E5        -0.1514 
     13 N25        -5.3430    1.3180   16.1000 N.am      1 9E5        -0.2617 
     14 C19        -5.3410    3.9790   15.9580 C.ar      1 9E5         0.1009 
     15 C18        -6.2000    5.0140   15.5310 C.ar      1 9E5        -0.0419 
     16 C17        -5.7560    6.1280   14.8390 C.ar      1 9E5        -0.0566 
     17 C20        -3.9730    4.1690   15.6710 C.ar      1 9E5        -0.0419 
     18 C21        -3.5230    5.3050   14.9720 C.ar      1 9E5        -0.0566 
     19 C16        -4.4210    6.3010   14.5410 C.ar      1 9E5        -0.0210 
     20 C15        -4.1620    7.5580   13.7490 C.3       1 9E5         0.0633 
     21 N14        -2.7840    7.8470   13.4520 N.am      1 9E5        -0.2761 
     22 O13        -2.7350    9.4770   15.0080 O.2       1 9E5        -0.3930 
     23 C26        -0.3390   11.4590   15.0310 C.3       1 9E5        -0.0381 
     24 O8         -0.2890    8.5930   12.6240 O.3       1 9E5        -0.2592 
     25 C2          2.9410    9.6430   11.3000 C.ar      1 9E5        -0.0529 
     26 C1          4.0430    9.3460   10.3040 C.3       1 9E5        -0.0373 
     27 H1          2.3117   12.0009   13.7147 H         1 9E5         0.0502 
     28 H2          0.5676    7.1871   10.8400 H         1 9E5         0.0358 
     29 H3          2.3379    6.9012   10.7353 H         1 9E5         0.0358 
     30 H4          1.5189    7.9230    9.5058 H         1 9E5         0.0358 
     31 H5          4.0134   11.3667   12.0217 H         1 9E5         0.0469 
     32 H6         -5.6326    1.0801   15.1729 H         1 9E5         0.1634 
     33 H7         -4.6939    0.7333   16.5866 H         1 9E5         0.1634 
     34 H8         -7.2574    4.9330   15.7554 H         1 9E5         0.0619 
     35 H9         -6.4721    6.8789   14.5253 H         1 9E5         0.0558 
     36 H10        -3.2540    3.4254   15.9952 H         1 9E5         0.0619 
     37 H11        -2.4654    5.4154   14.7614 H         1 9E5         0.0558 
     38 H12        -4.5671    8.4054   14.3216 H         1 9E5         0.0682 
     39 H13        -4.7003    7.4701   12.7937 H         1 9E5         0.0682 
     40 H14        -2.2779    7.3023   12.7832 H         1 9E5         0.1861 
     41 H15         0.5219   12.1438   15.0321 H         1 9E5         0.0356 
     42 H16        -0.4422   10.9982   16.0245 H         1 9E5         0.0356 
     43 H17        -1.2538   12.0205   14.7904 H         1 9E5         0.0356 
     44 H18         3.7818    8.4478    9.7252 H         1 9E5         0.0368 
     45 H19         4.9869    9.1738   10.8420 H         1 9E5         0.0368 
     46 H20         4.1605   10.2006    9.6215 H         1 9E5         0.0368 
@<TRIPOS>BOND
     1    2    1 ar   
     2    1    9 ar   
     3    3    2 1    
     4    6    2 ar   
     5    5    3 2    
     6    3   23 1    
     7    7    4 1    
     8    8    5 1    
     9    5   24 1    
    10    6    7 ar   
    11   24    6 1    
    12    7   25 ar   
    13   21    8 am   
    14    8   22 2    
    15   25    9 ar   
    16   11   10 2    
    17   11   12 2    
    18   11   13 am   
    19   14   11 1    
    20   15   14 ar   
    21   17   14 ar   
    22   16   15 ar   
    23   19   16 ar   
    24   18   17 ar   
    25   19   18 ar   
    26   20   19 1    
    27   20   21 1    
    28   25   26 1    
    29    1   27 1    
    30    4   28 1    
    31    4   29 1    
    32    4   30 1    
    33    9   31 1    
    34   13   32 1    
    35   13   33 1    
    36   15   34 1    
    37   16   35 1    
    38   17   36 1    
    39   18   37 1    
    40   20   38 1    
    41   20   39 1    
    42   21   40 1    
    43   23   41 1    
    44   23   42 1    
    45   23   43 1    
    46   26   44 1    
    47   26   45 1    
    48   26   46 1    
@<TRIPOS>SUBSTRUCTURE
     1 9E5         1 PERM              0 ****  ****    0 ROOT 
