### 
### Created by X-TOOL on Wed Jan  1 15:39:35 2020
### 

@<TRIPOS>MOLECULE
5ny3_ligand
   39    40     1     0     0
SMALL
GAST_HUCK


@<TRIPOS>ATOM
      1 N1         -5.4280    1.2880   16.1000 N.am      1 9E8        -0.2617
      2 C1         -5.4710    3.9580   15.9490 C.ar      1 9E8         0.1009
      3 C2         -4.1130    4.1220   15.5980 C.ar      1 9E8        -0.0419
      4 C3         -3.6220    5.2530   14.9250 C.ar      1 9E8        -0.0584
      5 C4         -4.5230    6.2640   14.6060 C.ar      1 9E8        -0.0410
      6 C5         -5.8590    6.1710   14.9710 C.ar      1 9E8        -0.0584
      7 C6         -6.3150    5.0470   15.6410 C.ar      1 9E8        -0.0419
      8 C7         -2.9010    7.5550   13.0000 C.3       1 9E8         0.0413
      9 C          -4.1330    7.5200   13.9040 C.3       1 9E8         0.0009
     10 C8         -1.8120    9.7490   13.4600 C.2       1 9E8         0.2876
     11 C10         0.2190   14.2630   13.7020 C.ar      1 9E8        -0.0618
     12 C11        -0.8190   13.3860   13.3620 C.ar      1 9E8        -0.0408
     13 C12        -0.7890   12.0350   13.8130 C.ar      1 9E8         0.0670
     14 C13         1.3130   13.8100   14.4820 C.ar      1 9E8         0.0238
     15 C14         0.3340   11.6140   14.5850 C.ar      1 9E8        -0.0408
     16 C15         1.3650   12.4830   14.9220 C.ar      1 9E8        -0.0618
     17 O8         -0.9210    9.1620   14.1520 O.2       1 9E8        -0.3903
     18 N8         -1.8430   11.1640   13.4060 N.am      1 9E8        -0.2192
     19 CL1         2.6020   14.8470   14.9150 Cl        1 9E8        -0.0850
     20 N7         -2.7220    8.9840   12.7550 N.am      1 9E8        -0.2659
     21 S          -6.0400    2.6250   16.8220 S.o2      1 9E8         0.0628
     22 O1         -5.4870    2.7110   18.1460 O.2       1 9E8        -0.1514
     23 O2         -7.4720    2.6450   16.7050 O.2       1 9E8        -0.1514
     24 H1         -5.6435    0.3812   16.4622 H         1 9E8         0.1634
     25 H2         -4.8389    1.3787   15.2971 H         1 9E8         0.1634
     26 H3         -3.4146    3.3358   15.8611 H         1 9E8         0.0619
     27 H4         -2.5735    5.3355   14.6623 H         1 9E8         0.0557
     28 H5         -6.5444    6.9762   14.7323 H         1 9E8         0.0557
     29 H6         -7.3563    5.0023   15.9391 H         1 9E8         0.0619
     30 H7         -3.0825    7.0115   12.0611 H         1 9E8         0.0540
     31 H8         -2.0242    7.1269   13.5079 H         1 9E8         0.0540
     32 H9         -3.9732    8.2796   14.6834 H         1 9E8         0.0445
     33 H10        -4.9903    7.8106   13.2790 H         1 9E8         0.0445
     34 H11         0.1857   15.2934   13.3670 H         1 9E8         0.0583
     35 H12        -1.6462   13.7358   12.7549 H         1 9E8         0.0502
     36 H13         0.3850   10.5841   14.9193 H         1 9E8         0.0502
     37 H14         2.2005   12.1363   15.5194 H         1 9E8         0.0583
     38 H15        -2.6759   11.5894   13.0519 H         1 9E8         0.2258
     39 H16        -3.2786    9.4251   12.0510 H         1 9E8         0.1854
@<TRIPOS>BOND
     1   21    1 am 
     2    3    2 ar 
     3    7    2 ar 
     4    2   21 1  
     5    4    3 ar 
     6    5    4 ar 
     7    5    6 ar 
     8    9    5 1  
     9    6    7 ar 
    10    8    9 1  
    11   20    8 1  
    12   10   17 2  
    13   18   10 am 
    14   10   20 am 
    15   12   11 ar 
    16   11   14 ar 
    17   13   12 ar 
    18   13   15 ar 
    19   13   18 1  
    20   14   16 ar 
    21   14   19 1  
    22   15   16 ar 
    23   21   22 2  
    24   21   23 2  
    25    1   24 1  
    26    1   25 1  
    27    3   26 1  
    28    4   27 1  
    29    6   28 1  
    30    7   29 1  
    31    8   30 1  
    32    8   31 1  
    33    9   32 1  
    34    9   33 1  
    35   11   34 1  
    36   12   35 1  
    37   15   36 1  
    38   16   37 1  
    39   18   38 1  
    40   20   39 1  
@<TRIPOS>SUBSTRUCTURE
     1 9E8         1

