### 
### Created by X-TOOL on Wed Jan  1 15:39:34 2020
### 

@<TRIPOS>MOLECULE
5ny6_ligand
   38    39     1     0     0
SMALL
GAST_HUCK


@<TRIPOS>ATOM
      1 CL6       -31.0800   -4.1410    6.4730 Cl        1 R92        -0.0646
      2 C6        -29.7150   -4.2180    5.4660 C.ar      1 R92         0.0715
      3 C1        -28.4480   -4.2430    6.0560 C.ar      1 R92         0.1273
      4 S         -28.1900   -4.1870    7.7000 S.o2      1 R92         0.0673
      5 O1        -27.0480   -4.9920    7.9960 O.2       1 R92        -0.1504
      6 O2        -27.9700   -2.8450    8.1470 O.2       1 R92        -0.1504
      7 N1        -29.5420   -4.8100    8.2230 N.am      1 R92        -0.2609
      8 C5        -29.8630   -4.2640    4.0800 C.ar      1 R92        -0.0404
      9 C4        -28.7190   -4.3380    3.2820 C.ar      1 R92        -0.0415
     10 C3        -27.4480   -4.3490    3.8830 C.ar      1 R92         0.0518
     11 C2        -27.3030   -4.3180    5.2540 C.ar      1 R92        -0.0149
     12 C         -26.2190   -4.4420    3.0690 C.2       1 R92         0.2068
     13 O7        -25.3420   -3.5410    3.1120 O.2       1 R92        -0.3845
     14 N8        -26.1150   -5.5540    2.3150 N.am      1 R92        -0.2738
     15 C9        -24.9560   -5.8090    1.4960 C.3       1 R92         0.0705
     16 C16       -24.7640   -7.3430    1.5080 C.3       1 R92        -0.0336
     17 C10       -25.0590   -5.2110    0.1110 C.ar      1 R92         0.0108
     18 C11       -24.0010   -5.1380   -0.8050 C.ar      1 R92         0.0914
     19 O11       -22.7570   -5.6060   -0.4470 O.3       1 R92        -0.3368
     20 C12       -24.1340   -4.6060   -2.1100 C.ar      1 R92        -0.0398
     21 C14       -25.3700   -4.1320   -2.4990 C.ar      1 R92        -0.0776
     22 C15       -26.4450   -4.1950   -1.6220 C.ar      1 R92        -0.0796
     23 C13       -26.3030   -4.7280   -0.3450 C.ar      1 R92        -0.0666
     24 H1        -29.6972   -4.9148    9.2053 H         1 R92         0.1635
     25 H2        -30.2436   -5.1001    7.5722 H         1 R92         0.1635
     26 H3        -30.8489   -4.2427    3.6298 H         1 R92         0.0635
     27 H4        -28.8108   -4.3868    2.2030 H         1 R92         0.0669
     28 H5        -26.3173   -4.3512    5.7039 H         1 R92         0.0688
     29 H6        -26.8611   -6.2198    2.3237 H         1 R92         0.1871
     30 H7        -24.0811   -5.3478    1.9775 H         1 R92         0.0692
     31 H8        -23.8887   -7.6077    0.8966 H         1 R92         0.0271
     32 H9        -25.6604   -7.8280    1.0943 H         1 R92         0.0271
     33 H10       -24.6062   -7.6847    2.5416 H         1 R92         0.0271
     34 H11       -22.1542   -5.4862   -1.1715 H         1 R92         0.2456
     35 H12       -23.2872   -4.5719   -2.7859 H         1 R92         0.0521
     36 H13       -25.5020   -3.7105   -3.4889 H         1 R92         0.0531
     37 H14       -27.4124   -3.8220   -1.9384 H         1 R92         0.0505
     38 H15       -27.1643   -4.7729    0.3116 H         1 R92         0.0526
@<TRIPOS>BOND
     1    1    2 1  
     2    2    3 ar 
     3    2    8 ar 
     4    3    4 1  
     5    3   11 ar 
     6    4    5 2  
     7    4    6 2  
     8    4    7 am 
     9    8    9 ar 
    10    9   10 ar 
    11   10   11 ar 
    12   10   12 1  
    13   12   13 2  
    14   12   14 am 
    15   14   15 1  
    16   15   16 1  
    17   15   17 1  
    18   17   18 ar 
    19   17   23 ar 
    20   18   19 1  
    21   18   20 ar 
    22   20   21 ar 
    23   21   22 ar 
    24   22   23 ar 
    25    7   24 1  
    26    7   25 1  
    27    8   26 1  
    28    9   27 1  
    29   11   28 1  
    30   14   29 1  
    31   15   30 1  
    32   16   31 1  
    33   16   32 1  
    34   16   33 1  
    35   19   34 1  
    36   20   35 1  
    37   21   36 1  
    38   22   37 1  
    39   23   38 1  
@<TRIPOS>SUBSTRUCTURE
     1 R92         1

