### 
### Created by X-TOOL on Wed Jan  1 15:39:34 2020
### 

@<TRIPOS>MOLECULE
5nya_ligand
   17    17     1     0     0
SMALL
GAST_HUCK


@<TRIPOS>ATOM
      1 C01        -4.4830    6.3740   14.7790 C.ar      1 FB2        -0.0616
      2 C02        -5.8460    6.2420   15.0900 C.ar      1 FB2        -0.0599
      3 C03        -6.3060    5.0980   15.7210 C.ar      1 FB2        -0.0351
      4 C04        -5.4280    4.0750   16.0530 C.ar      1 FB2         0.1079
      5 C05        -4.0410    4.1870   15.7470 C.ar      1 FB2        -0.0351
      6 C06        -3.5990    5.3570   15.1170 C.ar      1 FB2        -0.0599
      7 S07        -5.9860    2.6060   16.8490 S.o2      1 FB2         0.0659
      8 O09        -5.4290    2.6720   18.1990 O.2       1 FB2        -0.1505
      9 O08        -7.4340    2.6490   16.7100 O.2       1 FB2        -0.1505
     10 NP0        -5.3860    1.3420   16.0420 N.am      1 FB2        -0.2609
     11 H1         -4.1224    7.2649   14.2777 H         1 FB2         0.0618
     12 H2         -6.5388    7.0361   14.8360 H         1 FB2         0.0618
     13 H3         -7.3594    5.0007   15.9574 H         1 FB2         0.0637
     14 H4         -3.3486    3.3905   15.9944 H         1 FB2         0.0637
     15 H5         -2.5456    5.4714   14.8884 H         1 FB2         0.0618
     16 H6         -5.5933    0.4116   16.3444 H         1 FB2         0.1635
     17 H7         -4.8072    1.4898   15.2400 H         1 FB2         0.1635
@<TRIPOS>BOND
     1    1    2 ar 
     2    1    6 ar 
     3    2    3 ar 
     4    3    4 ar 
     5    4    5 ar 
     6    4    7 1  
     7    5    6 ar 
     8    7    8 2  
     9    7    9 2  
    10    7   10 am 
    11    1   11 1  
    12    2   12 1  
    13    3   13 1  
    14    5   14 1  
    15    6   15 1  
    16   10   16 1  
    17   10   17 1  
@<TRIPOS>SUBSTRUCTURE
     1 FB2         1

