### 
### Created by X-TOOL on Wed Jan  1 15:39:37 2020
### 

@<TRIPOS>MOLECULE
5nyh_ligand
   60    64     1     0     0
SMALL
GAST_HUCK


@<TRIPOS>ATOM
      1 C1         -0.1620   33.7110   21.7930 C.2       1 9EK         0.2256
      2 C7         -1.2960   32.6640   23.7750 C.ar      1 9EK         0.1101
      3 C9         -0.0500   31.8070   25.6150 C.ar      1 9EK         0.0101
      4 C10         1.1580   32.1350   24.9810 C.ar      1 9EK         0.0343
      5 C11         2.2130   31.7700   25.9080 C.2       1 9EK         0.1966
      6 C14         3.6720   32.0490   25.6960 C.2       1 9EK         0.2414
      7 C16         5.8190   31.4030   24.6350 C.3       1 9EK         0.0325
      8 C19         3.8890   29.9850   24.3450 C.3       1 9EK         0.0325
      9 C21         1.2170   35.5700   22.6790 C.ar      1 9EK         0.0557
     10 C22         2.5660   35.7920   22.5200 C.ar      1 9EK        -0.0516
     11 C24         1.2830   36.7850   24.7470 C.ar      1 9EK        -0.0566
     12 C27         0.3960   35.5850   20.3680 C.3       1 9EK         0.0412
     13 C30         5.3690   38.9710   26.2050 C.3       1 9EK         0.0668
     14 C32         3.7110   38.6490   27.7900 C.3       1 9EK         0.0668
     15 C33         2.7030   38.2080   26.7590 C.3       1 9EK         0.0475
     16 N2          0.4690   34.9060   21.6520 N.am      1 9EK        -0.2314
     17 O3         -0.7980   33.2150   20.8950 O.2       1 9EK        -0.3809
     18 C4         -0.0990   33.0200   23.1240 C.ar      1 9EK         0.0845
     19 C5          1.1230   32.7360   23.7300 C.ar      1 9EK        -0.0373
     20 C6         -1.2780   32.0580   25.0210 C.ar      1 9EK        -0.0187
     21 O8         -2.4840   32.9000   23.1810 O.3       1 9EK        -0.3276
     22 N12         1.6230   31.2520   26.9930 N.pl3     1 9EK        -0.2179
     23 N13         0.2840   31.2840   26.8160 N.2       1 9EK        -0.2728
     24 N15         4.4010   31.2150   24.9440 N.am      1 9EK        -0.2723
     25 C17         6.2420   30.0610   24.1000 C.3       1 9EK        -0.0309
     26 C18         5.0470   29.4690   23.5320 C.3       1 9EK        -0.0309
     27 O20         4.1380   33.0200   26.2430 O.2       1 9EK        -0.3882
     28 C23         2.6440   37.0150   24.5930 C.ar      1 9EK         0.0258
     29 C25         3.2710   36.5100   23.4630 C.ar      1 9EK        -0.0566
     30 C26         0.5790   36.0670   23.7990 C.ar      1 9EK        -0.0516
     31 N28         3.3800   37.6940   25.5620 N.pl3     1 9EK        -0.3122
     32 C29         4.4650   38.5450   25.0630 C.3       1 9EK         0.0475
     33 O31         4.6300   39.5630   27.2540 O.3       1 9EK        -0.3760
     34 H1          6.3878   31.6626   25.5400 H         1 9EK         0.0519
     35 H2          5.9557   32.1891   23.8778 H         1 9EK         0.0519
     36 H3          3.0217   30.1945   23.7017 H         1 9EK         0.0519
     37 H4          3.6029   29.2609   25.1220 H         1 9EK         0.0519
     38 H5          3.0774   35.4001   21.6482 H         1 9EK         0.0474
     39 H6          0.7682   37.1722   25.6188 H         1 9EK         0.0481
     40 H7         -0.2001   34.9817   19.6676 H         1 9EK         0.0544
     41 H8          1.4110   35.7181   19.9653 H         1 9EK         0.0544
     42 H9         -0.0781   36.5688   20.4999 H         1 9EK         0.0544
     43 H10         6.1023   39.6993   25.8285 H         1 9EK         0.0579
     44 H11         5.8962   38.0870   26.5931 H         1 9EK         0.0579
     45 H12         4.2568   37.7669   28.1562 H         1 9EK         0.0579
     46 H13         3.1803   39.1256   28.6274 H         1 9EK         0.0579
     47 H14         2.0739   39.0656   26.4784 H         1 9EK         0.0531
     48 H15         2.0721   37.4147   27.1863 H         1 9EK         0.0531
     49 H16         2.0485   32.9849   23.2235 H         1 9EK         0.0648
     50 H17        -2.2015   31.7866   25.5196 H         1 9EK         0.0559
     51 H18        -2.3389   33.3163   22.3395 H         1 9EK         0.2509
     52 H19         2.1097   30.8891   27.8251 H         1 9EK         0.3028
     53 H20         6.6331   29.4306   24.9122 H         1 9EK         0.0285
     54 H21         7.0142   30.1830   23.3262 H         1 9EK         0.0285
     55 H22         4.9369   29.7696   22.4796 H         1 9EK         0.0285
     56 H23         5.0983   28.3721   23.5966 H         1 9EK         0.0285
     57 H24         4.3315   36.6825   23.3192 H         1 9EK         0.0481
     58 H25        -0.4821   35.8924   23.9353 H         1 9EK         0.0474
     59 H26         5.0549   37.9840   24.3232 H         1 9EK         0.0531
     60 H27         4.0353   39.4391   24.5876 H         1 9EK         0.0531
@<TRIPOS>BOND
     1   16    1 am 
     2    1   17 2  
     3    1   18 1  
     4   18    2 ar 
     5    2   20 ar 
     6    2   21 1  
     7    4    3 ar 
     8   20    3 ar 
     9    3   23 2  
    10    4    5 2  
    11   19    4 ar 
    12    5    6 1  
    13    5   22 1  
    14    6   24 am 
    15    6   27 2  
    16   24    7 1  
    17    7   25 1  
    18   24    8 1  
    19    8   26 1  
    20   10    9 ar 
    21    9   16 1  
    22   30    9 ar 
    23   29   10 ar 
    24   28   11 ar 
    25   11   30 ar 
    26   16   12 1  
    27   13   32 1  
    28   33   13 1  
    29   15   14 1  
    30   14   33 1  
    31   31   15 1  
    32   18   19 ar 
    33   22   23 1  
    34   26   25 1  
    35   28   29 ar 
    36   28   31 1  
    37   31   32 1  
    38    7   34 1  
    39    7   35 1  
    40    8   36 1  
    41    8   37 1  
    42   10   38 1  
    43   11   39 1  
    44   12   40 1  
    45   12   41 1  
    46   12   42 1  
    47   13   43 1  
    48   13   44 1  
    49   14   45 1  
    50   14   46 1  
    51   15   47 1  
    52   15   48 1  
    53   19   49 1  
    54   20   50 1  
    55   21   51 1  
    56   22   52 1  
    57   25   53 1  
    58   25   54 1  
    59   26   55 1  
    60   26   56 1  
    61   29   57 1  
    62   30   58 1  
    63   32   59 1  
    64   32   60 1  
@<TRIPOS>SUBSTRUCTURE
     1 9EK         1

