### 
### Created by X-TOOL on Wed Jan  1 15:39:34 2020
### 

@<TRIPOS>MOLECULE
5nz4_ligand
   44    44     1     0     0
SMALL
GAST_HUCK


@<TRIPOS>ATOM
      1 C1        -29.4780  -56.2810   23.8240 C.2       1 G39         0.0478
      2 O1A       -28.2650  -56.3420   24.1290 O.co2     1 G39        -0.5666
      3 O1B       -30.3300  -56.7450   24.5930 O.co2     1 G39        -0.5666
      4 C2        -29.8930  -55.5610   22.6340 C.2       1 G39        -0.0181
      5 C3        -31.3810  -55.3650   22.3920 C.3       1 G39         0.0201
      6 C4        -31.6150  -54.2300   21.3880 C.3       1 G39         0.0100
      7 C5        -30.7110  -54.3390   20.1800 C.3       1 G39         0.1202
      8 N5        -31.0160  -53.2340   19.2720 N.am      1 G39        -0.2740
      9 C10       -31.5700  -53.3750   18.0680 C.2       1 G39         0.1735
     10 O10       -31.7720  -54.4610   17.5740 O.2       1 G39        -0.3974
     11 C11       -31.8540  -52.0960   17.3160 C.3       1 G39         0.0257
     12 C6        -29.2960  -54.1270   20.6600 C.3       1 G39         0.1112
     13 C7        -28.9730  -55.0440   21.8100 C.2       1 G39        -0.0470
     14 O7        -28.3470  -54.3920   19.6140 O.3       1 G39        -0.3596
     15 C8        -27.7030  -53.2070   19.0990 C.3       1 G39         0.0613
     16 C9        -26.7400  -52.5560   20.1350 C.3       1 G39        -0.0292
     17 C81       -27.0970  -53.6420   17.7740 C.3       1 G39        -0.0292
     18 C82       -28.2260  -53.8990   16.7750 C.3       1 G39        -0.0629
     19 C91       -25.5890  -53.4410   20.4850 C.3       1 G39        -0.0629
     20 N4        -33.0670  -54.2840   20.9930 N.4       1 G39         0.2238
     21 H1        -31.8729  -55.1142   23.3434 H         1 G39         0.0441
     22 H2        -31.8088  -56.2962   21.9923 H         1 G39         0.0441
     23 H3        -31.4112  -53.2684   21.8818 H         1 G39         0.0895
     24 H4        -30.8281  -55.3121   19.6807 H         1 G39         0.0664
     25 H5        -30.7933  -52.3076   19.5757 H         1 G39         0.1859
     26 H6        -32.3075  -52.3358   16.3429 H         1 G39         0.0467
     27 H7        -30.9138  -51.5475   17.1572 H         1 G39         0.0467
     28 H8        -32.5476  -51.4734   17.9002 H         1 G39         0.0467
     29 H9        -29.1907  -53.0824   20.9882 H         1 G39         0.0776
     30 H10       -27.9290  -55.3020   21.9816 H         1 G39         0.0592
     31 H11       -28.4751  -52.4541   18.8820 H         1 G39         0.0598
     32 H12       -27.3061  -52.3353   21.0519 H         1 G39         0.0288
     33 H13       -26.3481  -51.6194   19.7116 H         1 G39         0.0288
     34 H14       -26.5149  -54.5640   17.9189 H         1 G39         0.0288
     35 H15       -26.4382  -52.8488   17.3909 H         1 G39         0.0288
     36 H16       -27.7985  -54.2146   15.8119 H         1 G39         0.0231
     37 H17       -28.8074  -52.9760   16.6332 H         1 G39         0.0231
     38 H18       -28.8841  -54.6913   17.1612 H         1 G39         0.0231
     39 H19       -24.9447  -52.9323   21.2172 H         1 G39         0.0231
     40 H20       -25.0082  -53.6633   19.5777 H         1 G39         0.0231
     41 H21       -25.9662  -54.3792   20.9180 H         1 G39         0.0231
     42 H22       -33.6424  -54.2092   21.8172 H         1 G39         0.1999
     43 H23       -33.2567  -55.1585   20.5291 H         1 G39         0.1999
     44 H24       -33.2739  -53.5204   20.3684 H         1 G39         0.1999
@<TRIPOS>BOND
     1    1    2 ar 
     2    1    3 ar 
     3    1    4 1  
     4    4    5 1  
     5    4   13 2  
     6    5    6 1  
     7    6    7 1  
     8    6   20 1  
     9    7    8 1  
    10    7   12 1  
    11    8    9 am 
    12    9   10 2  
    13    9   11 1  
    14   12   13 1  
    15   12   14 1  
    16   14   15 1  
    17   15   16 1  
    18   15   17 1  
    19   16   19 1  
    20   17   18 1  
    21    5   21 1  
    22    5   22 1  
    23    6   23 1  
    24    7   24 1  
    25    8   25 1  
    26   11   26 1  
    27   11   27 1  
    28   11   28 1  
    29   12   29 1  
    30   13   30 1  
    31   15   31 1  
    32   16   32 1  
    33   16   33 1  
    34   17   34 1  
    35   17   35 1  
    36   18   36 1  
    37   18   37 1  
    38   18   38 1  
    39   19   39 1  
    40   19   40 1  
    41   19   41 1  
    42   20   42 1  
    43   20   43 1  
    44   20   44 1  
@<TRIPOS>SUBSTRUCTURE
     1 G39         1

