### 
### Created by X-TOOL on Wed Jan  1 15:39:36 2020
### 

@<TRIPOS>MOLECULE
5nze_ligand
   44    44     1     0     0
SMALL
GAST_HUCK


@<TRIPOS>ATOM
      1 C1        -29.0250  -55.9070   24.2010 C.2       1 G39         0.0478
      2 O1A       -27.7680  -55.9680   24.4190 O.co2     1 G39        -0.5666
      3 O1B       -29.8990  -56.2950   25.0040 O.co2     1 G39        -0.5666
      4 C2        -29.4660  -55.2550   22.9700 C.2       1 G39        -0.0181
      5 C3        -30.9380  -55.0590   22.6930 C.3       1 G39         0.0201
      6 C4        -31.1850  -53.8870   21.6910 C.3       1 G39         0.0100
      7 C5        -30.2310  -53.9690   20.4840 C.3       1 G39         0.1202
      8 N5        -30.5220  -52.8770   19.5500 N.am      1 G39        -0.2740
      9 C10       -31.0330  -53.0090   18.3180 C.2       1 G39         0.1735
     10 O10       -31.1620  -54.0960   17.7770 O.2       1 G39        -0.3974
     11 C11       -31.3290  -51.7490   17.5630 C.3       1 G39         0.0257
     12 C6        -28.8090  -53.8110   21.0010 C.3       1 G39         0.1112
     13 C7        -28.5060  -54.7320   22.1570 C.2       1 G39        -0.0470
     14 O7        -27.8390  -54.0090   19.9630 O.3       1 G39        -0.3596
     15 C8        -27.2750  -52.7440   19.5200 C.3       1 G39         0.0613
     16 C9        -26.3870  -52.0580   20.5860 C.3       1 G39        -0.0292
     17 C81       -26.5080  -53.0120   18.2470 C.3       1 G39        -0.0292
     18 C82       -27.4460  -53.4410   17.1590 C.3       1 G39        -0.0629
     19 C91       -25.2180  -52.9010   21.0060 C.3       1 G39        -0.0629
     20 N4        -32.5970  -53.8790   21.2880 N.4       1 G39         0.2238
     21 H1        -31.4521  -54.8337   23.6390 H         1 G39         0.0441
     22 H2        -31.3470  -55.9862   22.2651 H         1 G39         0.0441
     23 H3        -30.9773  -52.9415   22.2133 H         1 G39         0.0895
     24 H4        -30.3462  -54.9376   19.9756 H         1 G39         0.0664
     25 H5        -30.3207  -51.9481   19.8608 H         1 G39         0.1859
     26 H6        -31.7408  -52.0019   16.5748 H         1 G39         0.0467
     27 H7        -30.4018  -51.1707   17.4368 H         1 G39         0.0467
     28 H8        -32.0618  -51.1495   18.1230 H         1 G39         0.0467
     29 H9        -28.7077  -52.7772   21.3630 H         1 G39         0.0776
     30 H10       -27.4665  -54.9921   22.3515 H         1 G39         0.0592
     31 H11       -28.1046  -52.0586   19.2921 H         1 G39         0.0598
     32 H12       -27.0032  -51.8467   21.4724 H         1 G39         0.0288
     33 H13       -26.0065  -51.1134   20.1702 H         1 G39         0.0288
     34 H14       -25.7716  -53.8090   18.4272 H         1 G39         0.0288
     35 H15       -25.9867  -52.0944   17.9366 H         1 G39         0.0288
     36 H16       -26.8759  -53.6330   16.2380 H         1 G39         0.0231
     37 H17       -28.1827  -52.6451   16.9750 H         1 G39         0.0231
     38 H18       -27.9675  -54.3597   17.4656 H         1 G39         0.0231
     39 H19       -24.6288  -52.3605   21.7614 H         1 G39         0.0231
     40 H20       -24.5860  -53.1134   20.1311 H         1 G39         0.0231
     41 H21       -25.5826  -53.8468   21.4333 H         1 G39         0.0231
     42 H22       -33.1802  -53.8246   22.1083 H         1 G39         0.1999
     43 H23       -32.8069  -54.7252   20.7821 H         1 G39         0.1999
     44 H24       -32.7733  -53.0817   20.6970 H         1 G39         0.1999
@<TRIPOS>BOND
     1    1    2 ar 
     2    1    3 ar 
     3    1    4 1  
     4    4    5 1  
     5    4   13 2  
     6    5    6 1  
     7    6    7 1  
     8    6   20 1  
     9    7    8 1  
    10    7   12 1  
    11    8    9 am 
    12    9   10 2  
    13    9   11 1  
    14   12   13 1  
    15   12   14 1  
    16   14   15 1  
    17   15   16 1  
    18   15   17 1  
    19   16   19 1  
    20   17   18 1  
    21    5   21 1  
    22    5   22 1  
    23    6   23 1  
    24    7   24 1  
    25    8   25 1  
    26   11   26 1  
    27   11   27 1  
    28   11   28 1  
    29   12   29 1  
    30   13   30 1  
    31   15   31 1  
    32   16   32 1  
    33   16   33 1  
    34   17   34 1  
    35   17   35 1  
    36   18   36 1  
    37   18   37 1  
    38   18   38 1  
    39   19   39 1  
    40   19   40 1  
    41   19   41 1  
    42   20   42 1  
    43   20   43 1  
    44   20   44 1  
@<TRIPOS>SUBSTRUCTURE
     1 G39         1

