### 
### Created by X-TOOL on Wed Jan  1 15:39:38 2020
### 

@<TRIPOS>MOLECULE
5nzf_ligand
   44    44     1     0     0
SMALL
GAST_HUCK


@<TRIPOS>ATOM
      1 C1         42.8970   -1.2810   17.5140 C.2       1 G39         0.0478
      2 O1A        42.6260   -0.5050   16.5380 O.co2     1 G39        -0.5666
      3 O1B        42.9350   -2.5390   17.4050 O.co2     1 G39        -0.5666
      4 C2         43.1380   -0.7350   18.8640 C.2       1 G39        -0.0181
      5 C3         42.9210    0.7420   19.0680 C.3       1 G39         0.0201
      6 C4         42.5940    1.1170   20.5150 C.3       1 G39         0.0100
      7 C5         43.5750    0.4120   21.4590 C.3       1 G39         0.1202
      8 N5         43.2620    0.7470   22.8340 N.am      1 G39        -0.2740
      9 C10        44.1090    1.4530   23.6000 C.2       1 G39         0.1735
     10 O10        45.1820    1.8830   23.2360 O.2       1 G39        -0.3974
     11 C11        43.6110    1.7690   25.0160 C.3       1 G39         0.0257
     12 C6         43.5610   -1.0800   21.3370 C.3       1 G39         0.1112
     13 C7         43.4840   -1.5420   19.8890 C.2       1 G39        -0.0470
     14 O7         44.7330   -1.6040   21.9960 O.3       1 G39        -0.3596
     15 C8         44.3440   -2.6850   22.8740 C.3       1 G39         0.0613
     16 C9         43.9980   -3.9880   22.1250 C.3       1 G39        -0.0292
     17 C81        45.4510   -2.9160   23.8750 C.3       1 G39        -0.0292
     18 C82        45.7130   -1.7020   24.7450 C.3       1 G39        -0.0629
     19 C91        45.0880   -4.5080   21.2090 C.3       1 G39        -0.0629
     20 N4         42.6780    2.5920   20.5900 N.4       1 G39         0.2238
     21 H1         42.0858    1.0628   18.4280 H         1 G39         0.0441
     22 H2         43.8369    1.2730   18.7693 H         1 G39         0.0441
     23 H3         41.5717    0.7975   20.7657 H         1 G39         0.0895
     24 H4         44.5883    0.7690   21.2229 H         1 G39         0.0664
     25 H5         42.3918    0.4441   23.2226 H         1 G39         0.1859
     26 H6         44.3772    2.3468   25.5537 H         1 G39         0.0467
     27 H7         43.4154    0.8297   25.5541 H         1 G39         0.0467
     28 H8         42.6834    2.3571   24.9558 H         1 G39         0.0467
     29 H9         42.6695   -1.4603   21.8572 H         1 G39         0.0776
     30 H10        43.7213   -2.5815   19.6676 H         1 G39         0.0592
     31 H11        43.4428   -2.3692   23.4201 H         1 G39         0.0598
     32 H12        43.1000   -3.8041   21.5169 H         1 G39         0.0288
     33 H13        43.7815   -4.7647   22.8732 H         1 G39         0.0288
     34 H14        46.3733   -3.1640   23.3293 H         1 G39         0.0288
     35 H15        45.1700   -3.7595   24.5227 H         1 G39         0.0288
     36 H16        46.5252   -1.9261   25.4522 H         1 G39         0.0231
     37 H17        44.8003   -1.4474   25.3037 H         1 G39         0.0231
     38 H18        46.0036   -0.8519   24.1103 H         1 G39         0.0231
     39 H19        44.7479   -5.4347   20.7236 H         1 G39         0.0231
     40 H20        45.9943   -4.7137   21.7974 H         1 G39         0.0231
     41 H21        45.3128   -3.7531   20.4412 H         1 G39         0.0231
     42 H22        42.0135    2.9993   19.9508 H         1 G39         0.1999
     43 H23        43.6087    2.8887   20.3413 H         1 G39         0.1999
     44 H24        42.4690    2.8932   21.5290 H         1 G39         0.1999
@<TRIPOS>BOND
     1    1    2 ar 
     2    1    3 ar 
     3    1    4 1  
     4    4    5 1  
     5    4   13 2  
     6    5    6 1  
     7    6    7 1  
     8    6   20 1  
     9    7    8 1  
    10    7   12 1  
    11    8    9 am 
    12    9   10 2  
    13    9   11 1  
    14   12   13 1  
    15   12   14 1  
    16   14   15 1  
    17   15   16 1  
    18   15   17 1  
    19   16   19 1  
    20   17   18 1  
    21    5   21 1  
    22    5   22 1  
    23    6   23 1  
    24    7   24 1  
    25    8   25 1  
    26   11   26 1  
    27   11   27 1  
    28   11   28 1  
    29   12   29 1  
    30   13   30 1  
    31   15   31 1  
    32   16   32 1  
    33   16   33 1  
    34   17   34 1  
    35   17   35 1  
    36   18   36 1  
    37   18   37 1  
    38   18   38 1  
    39   19   39 1  
    40   19   40 1  
    41   19   41 1  
    42   20   42 1  
    43   20   43 1  
    44   20   44 1  
@<TRIPOS>SUBSTRUCTURE
     1 G39         1

