### 
### Created by X-TOOL on Wed Jan  1 15:39:37 2020
### 

@<TRIPOS>MOLECULE
5nzm_ligand
   46    49     1     0     0
SMALL
GAST_HUCK


@<TRIPOS>ATOM
      1 C10        29.3990    5.2550    4.8360 C.ar      1 9ET         0.0020
      2 C13        29.1840    3.5350    3.2250 C.ar      1 9ET        -0.0355
      3 C15        30.5360    3.6940    2.9410 C.ar      1 9ET        -0.0820
      4 C17        32.7180    5.1410    3.5720 C.ar      1 9ET        -0.0220
      5 C20        35.0770    6.4540    4.0010 C.ar      1 9ET         0.0760
      6 C22        33.9890    6.8470    4.7480 C.ar      1 9ET        -0.0148
      7 C01        28.9680    6.4560    8.6390 C.3       1 9ET         0.0372
      8 C02        27.6460    5.7120    8.5710 C.2       1 9ET         0.2307
      9 C05        26.1800    5.2090    6.6940 C.3       1 9ET         0.1093
     10 C06        26.6430    5.4700    5.2430 C.3       1 9ET         0.1140
     11 C07        25.5940    6.1670    4.4420 C.3       1 9ET        -0.0293
     12 C08        27.6080    6.5960    5.4060 C.3       1 9ET        -0.0112
     13 C09        28.8850    6.1550    5.8030 C.3       1 9ET        -0.0226
     14 C11        28.6020    4.3640    4.2070 C.ar      1 9ET         0.0847
     15 C14        28.3590    2.5130    2.4940 C.3       1 9ET        -0.0397
     16 C16        31.3280    4.6710    3.6200 C.ar      1 9ET        -0.0309
     17 C18        33.8580    4.7400    2.8130 C.ar      1 9ET        -0.0764
     18 C19        35.0390    5.4150    3.0480 C.ar      1 9ET        -0.0458
     19 C23        32.7970    6.1750    4.5180 C.ar      1 9ET         0.0520
     20 C25        30.7670    5.4440    4.5510 C.ar      1 9ET         0.0521
     21 N24        31.6140    6.3550    5.1040 N.pl3     1 9ET        -0.2857
     22 O03        26.9540    5.8210    9.4850 O.2       1 9ET        -0.3707
     23 O04        27.2560    4.8750    7.5180 O.3       1 9ET        -0.2738
     24 O12        27.1650    4.2480    4.5520 O.3       1 9ET        -0.3208
     25 O21        36.2560    7.1250    4.2440 O.3       1 9ET        -0.3375
     26 H1         30.9985    3.0643    2.1896 H         1 9ET         0.0417
     27 H2         34.0603    7.6430    5.4804 H         1 9ET         0.0444
     28 H3         29.0138    7.0378    9.5714 H         1 9ET         0.0483
     29 H4         29.0509    7.1359    7.7782 H         1 9ET         0.0483
     30 H5         29.7970    5.7334    8.6167 H         1 9ET         0.0483
     31 H6         25.4568    4.3801    6.6957 H         1 9ET         0.0646
     32 H7         25.6979    6.1171    7.0850 H         1 9ET         0.0646
     33 H8         25.9634    6.3327    3.4192 H         1 9ET         0.0262
     34 H9         25.3594    7.1352    4.9084 H         1 9ET         0.0262
     35 H10        24.6862    5.5468    4.4079 H         1 9ET         0.0262
     36 H11        27.2197    7.2865    6.1692 H         1 9ET         0.0314
     37 H12        27.6996    7.1247    4.4457 H         1 9ET         0.0314
     38 H13        29.5591    7.0195    5.8934 H         1 9ET         0.0380
     39 H14        28.8104    5.6450    6.7747 H         1 9ET         0.0380
     40 H15        28.9947    1.9743    1.7758 H         1 9ET         0.0348
     41 H16        27.5434    3.0174    1.9553 H         1 9ET         0.0348
     42 H17        27.9353    1.7993    3.2159 H         1 9ET         0.0348
     43 H18        33.7991    3.9402    2.0837 H         1 9ET         0.0548
     44 H19        35.9357    5.1469    2.5010 H         1 9ET         0.0456
     45 H20        31.3854    7.0470    5.8319 H         1 9ET         0.2114
     46 H21        36.1102    7.7889    4.9078 H         1 9ET         0.2471
@<TRIPOS>BOND
     1   13    1 1  
     2    1   14 ar 
     3    1   20 ar 
     4    2    3 ar 
     5   14    2 ar 
     6    2   15 1  
     7    3   16 ar 
     8   16    4 1  
     9    4   17 ar 
    10    4   19 ar 
    11    6    5 ar 
    12    5   18 ar 
    13    5   25 1  
    14   19    6 ar 
    15    8    7 1  
    16    8   22 2  
    17   23    8 1  
    18   10    9 1  
    19    9   23 1  
    20   10   11 1  
    21   12   10 1  
    22   10   24 1  
    23   12   13 1  
    24   14   24 1  
    25   16   20 ar 
    26   17   18 ar 
    27   19   21 1  
    28   20   21 1  
    29    3   26 1  
    30    6   27 1  
    31    7   28 1  
    32    7   29 1  
    33    7   30 1  
    34    9   31 1  
    35    9   32 1  
    36   11   33 1  
    37   11   34 1  
    38   11   35 1  
    39   12   36 1  
    40   12   37 1  
    41   13   38 1  
    42   13   39 1  
    43   15   40 1  
    44   15   41 1  
    45   15   42 1  
    46   17   43 1  
    47   18   44 1  
    48   21   45 1  
    49   25   46 1  
@<TRIPOS>SUBSTRUCTURE
     1 9ET         1

