### 
### Created by X-TOOL on Wed Jan  1 15:39:38 2020
### 

@<TRIPOS>MOLECULE
5nzn_ligand
   44    44     1     0     0
SMALL
GAST_HUCK


@<TRIPOS>ATOM
      1 C1         42.9510   -1.2490   17.4520 C.2       1 G39         0.0478
      2 O1A        42.6670   -0.4830   16.4650 O.co2     1 G39        -0.5666
      3 O1B        42.9690   -2.5010   17.3430 O.co2     1 G39        -0.5666
      4 C2         43.2430   -0.7000   18.7880 C.2       1 G39        -0.0181
      5 C3         43.0120    0.7760   19.0270 C.3       1 G39         0.0201
      6 C4         42.7190    1.1270   20.4900 C.3       1 G39         0.0100
      7 C5         43.7590    0.4700   21.3890 C.3       1 G39         0.1202
      8 N5         43.4600    0.7670   22.7660 N.am      1 G39        -0.2740
      9 C10        44.2860    1.4530   23.5330 C.2       1 G39         0.1735
     10 O10        45.3170    1.9130   23.1700 O.2       1 G39        -0.3974
     11 C11        43.7750    1.7100   24.9510 C.3       1 G39         0.0257
     12 C6         43.7130   -1.0300   21.2440 C.3       1 G39         0.1112
     13 C7         43.6560   -1.4900   19.7790 C.2       1 G39        -0.0470
     14 O7         44.8310   -1.6440   21.8970 O.3       1 G39        -0.3596
     15 C8         44.3990   -2.7200   22.7650 C.3       1 G39         0.0613
     16 C9         44.1120   -4.0680   22.0430 C.3       1 G39        -0.0292
     17 C81        45.4390   -2.9400   23.8380 C.3       1 G39        -0.0292
     18 C82        45.6810   -1.7380   24.7030 C.3       1 G39        -0.0629
     19 C91        45.2740   -4.5580   21.1850 C.3       1 G39        -0.0629
     20 N4         42.7380    2.5860   20.6130 N.4       1 G39         0.2238
     21 H1         42.1559    1.0967   18.4152 H         1 G39         0.0441
     22 H2         43.9128    1.3235   18.7127 H         1 G39         0.0441
     23 H3         41.7222    0.7537   20.7676 H         1 G39         0.0895
     24 H4         44.7600    0.8435   21.1273 H         1 G39         0.0664
     25 H5         42.5974    0.4424   23.1540 H         1 G39         0.1859
     26 H6         44.5260    2.2849   25.5128 H         1 G39         0.0467
     27 H7         43.5957    0.7493   25.4559 H         1 G39         0.0467
     28 H8         42.8358    2.2808   24.9045 H         1 G39         0.0467
     29 H9         42.7952   -1.3797   21.7392 H         1 G39         0.0776
     30 H10        43.9666   -2.5060   19.5399 H         1 G39         0.0592
     31 H11        43.4632   -2.3991   23.2460 H         1 G39         0.0598
     32 H12        43.2326   -3.9359   21.3955 H         1 G39         0.0288
     33 H13        43.8953   -4.8316   22.8045 H         1 G39         0.0288
     34 H14        46.3868   -3.2134   23.3513 H         1 G39         0.0288
     35 H15        45.1046   -3.7678   24.4805 H         1 G39         0.0288
     36 H16        46.4469   -1.9762   25.4558 H         1 G39         0.0231
     37 H17        44.7457   -1.4555   25.2083 H         1 G39         0.0231
     38 H18        46.0279   -0.9011   24.0791 H         1 G39         0.0231
     39 H19        45.0011   -5.5107   20.7077 H         1 G39         0.0231
     40 H20        46.1608   -4.7063   21.8187 H         1 G39         0.0231
     41 H21        45.4981   -3.8105   20.4098 H         1 G39         0.0231
     42 H22        42.0388    2.9835   20.0054 H         1 G39         0.1999
     43 H23        43.6473    2.9335   20.3513 H         1 G39         0.1999
     44 H24        42.5409    2.8454   21.5669 H         1 G39         0.1999
@<TRIPOS>BOND
     1    1    2 ar 
     2    1    3 ar 
     3    1    4 1  
     4    4    5 1  
     5    4   13 2  
     6    5    6 1  
     7    6    7 1  
     8    6   20 1  
     9    7    8 1  
    10    7   12 1  
    11    8    9 am 
    12    9   10 2  
    13    9   11 1  
    14   12   13 1  
    15   12   14 1  
    16   14   15 1  
    17   15   16 1  
    18   15   17 1  
    19   16   19 1  
    20   17   18 1  
    21    5   21 1  
    22    5   22 1  
    23    6   23 1  
    24    7   24 1  
    25    8   25 1  
    26   11   26 1  
    27   11   27 1  
    28   11   28 1  
    29   12   29 1  
    30   13   30 1  
    31   15   31 1  
    32   16   32 1  
    33   16   33 1  
    34   17   34 1  
    35   17   35 1  
    36   18   36 1  
    37   18   37 1  
    38   18   38 1  
    39   19   39 1  
    40   19   40 1  
    41   19   41 1  
    42   20   42 1  
    43   20   43 1  
    44   20   44 1  
@<TRIPOS>SUBSTRUCTURE
     1 G39         1

