### 
### Created by X-TOOL on Mon Sep 10 21:13:33 2018
### 

@<TRIPOS>MOLECULE
5nzo_ligand
   24    25     1     0     0
SMALL
GAST_HUCK


@<TRIPOS>ATOM
      1 C4        -25.7480   14.5660    6.4860 C.ar      1 9EZ        -0.0553
      2 C5        -26.8910   14.3110    5.7450 C.ar      1 9EZ        -0.0194
      3 C6        -27.2050   12.9930    5.4240 C.ar      1 9EZ        -0.0553
      4 C7        -27.7440   15.3930    5.2480 C.2       1 9EZ         0.0147
      5 C8        -28.6120   15.3710    4.1540 C.2       1 9EZ        -0.0294
      6 C9        -29.1770   16.6090    4.0850 C.2       1 9EZ         0.1523
      7 C10       -28.9230   18.6990    5.4940 C.3       1 9EZ         0.0586
      8 N1        -28.6480   17.3350    5.1040 N.pl3     1 9EZ        -0.1942
      9 N2        -27.7630   16.5990    5.8190 N.2       1 9EZ        -0.2347
     10 C3        -24.9560   13.5190    6.9240 C.ar      1 9EZ        -0.0621
     11 N3        -30.0970   17.0970    3.1990 N.pl3     1 9EZ        -0.3096
     12 C1        -26.4030   11.9550    5.8580 C.ar      1 9EZ        -0.0621
     13 C2        -25.2670   12.2160    6.5870 C.ar      1 9EZ        -0.0625
     14 H1        -25.4737   15.5876    6.7230 H         1 9EZ         0.0616
     15 H2        -28.0856   12.7796    4.8289 H         1 9EZ         0.0616
     16 H3        -28.8001   14.5304    3.4877 H         1 9EZ         0.0177
     17 H4        -28.3099   18.9609    6.3689 H         1 9EZ         0.0591
     18 H5        -29.9882   18.7997    5.7494 H         1 9EZ         0.0591
     19 H6        -28.6802   19.3747    4.6607 H         1 9EZ         0.0591
     20 H7        -24.0850   13.7230    7.5362 H         1 9EZ         0.0616
     21 H8        -30.4590   16.4929    2.4474 H         1 9EZ         0.1782
     22 H9        -30.4280   18.0687    3.2832 H         1 9EZ         0.1782
     23 H10       -26.6705   10.9312    5.6229 H         1 9EZ         0.0616
     24 H11       -24.6189   11.4037    6.8956 H         1 9EZ         0.0611
@<TRIPOS>BOND
     1    1    2 ar 
     2    1   10 ar 
     3    2    3 ar 
     4    2    4 1  
     5    3   12 ar 
     6    4    5 1  
     7    4    9 2  
     8    5    6 2  
     9    6    8 1  
    10    6   11 1  
    11    8    7 1  
    12    8    9 1  
    13   10   13 ar 
    14   12   13 ar 
    15    1   14 1  
    16    3   15 1  
    17    5   16 1  
    18    7   17 1  
    19    7   18 1  
    20    7   19 1  
    21   10   20 1  
    22   11   21 1  
    23   11   22 1  
    24   12   23 1  
    25   13   24 1  
@<TRIPOS>SUBSTRUCTURE
     1 9EZ         1

