### 
### Created by X-TOOL on Mon Sep 10 21:13:31 2018
### 

@<TRIPOS>MOLECULE
5nzp_ligand
   15    16     1     0     0
SMALL
GAST_HUCK


@<TRIPOS>ATOM
      1 C4        -26.3660   12.5280    6.0380 C.ar      1 9EW        -0.0241
      2 C5        -26.6240   13.8830    6.1030 C.ar      1 9EW         0.1496
      3 C6        -26.1380   14.6650    7.1250 C.ar      1 9EW         0.0820
      4 C7        -26.5940   16.0000    6.8980 C.2       1 9EW         0.2236
      5 N1        -27.2880   16.0350    5.7770 N.am      1 9EW        -0.1347
      6 C3        -25.5640   11.9810    7.0500 C.ar      1 9EW        -0.0666
      7 C1        -25.3740   14.1230    8.1500 C.ar      1 9EW        -0.0512
      8 C2        -25.0770   12.7680    8.0880 C.ar      1 9EW        -0.0677
      9 O1        -27.3600   14.6690    5.2730 O.3       1 9EW        -0.1788
     10 O2        -26.3300   17.0150    7.7270 O.2       1 9EW        -0.3974
     11 H1        -26.7660   11.9138    5.2394 H         1 9EW         0.0553
     12 H2        -27.6895   16.8465    5.3524 H         1 9EW         0.2308
     13 H3        -25.3192   10.9254    7.0227 H         1 9EW         0.0622
     14 H4        -25.0213   14.7369    8.9708 H         1 9EW         0.0638
     15 H5        -24.4589   12.3188    8.8569 H         1 9EW         0.0532
@<TRIPOS>BOND
     1    1    2 ar 
     2    1    6 ar 
     3    2    3 ar 
     4    2    9 1  
     5    3    4 1  
     6    3    7 ar 
     7    4    5 am 
     8    4   10 2  
     9    5    9 1  
    10    6    8 ar 
    11    7    8 ar 
    12    1   11 1  
    13    5   12 1  
    14    6   13 1  
    15    7   14 1  
    16    8   15 1  
@<TRIPOS>SUBSTRUCTURE
     1 9EW         1

