### 
### Created by X-TOOL on Mon Sep 10 21:13:34 2018
### 

@<TRIPOS>MOLECULE
5nzq_ligand
   20    21     1     0     0
SMALL
GAST_HUCK


@<TRIPOS>ATOM
      1 NAA       -23.9410   14.1580    8.5070 N.pl3     1 5AO        -0.3375
      2 CAB       -25.5980   11.8370    6.1810 C.ar      1 5AO        -0.0748
      3 CAC       -24.7670   12.3120    7.1660 C.ar      1 5AO        -0.0466
      4 CAD       -26.4230   12.7100    5.4930 C.ar      1 5AO        -0.0671
      5 CAE       -28.4120   16.7250    4.5330 C.2       1 5AO         0.1646
      6 CAF       -28.1680   14.7150    4.0170 C.2       1 5AO         0.0087
      7 CAG       -25.5800   14.5540    6.7860 C.ar      1 5AO        -0.0378
      8 NAH       -28.8650   15.8130    3.6790 N.2       1 5AO        -0.3022
      9 OAI       -27.3490   16.3270    5.3290 O.3       1 5AO        -0.2280
     10 CAJ       -24.7720   13.6700    7.4930 C.ar      1 5AO         0.0330
     11 CAK       -26.4210   14.0730    5.7920 C.ar      1 5AO         0.0007
     12 CAL       -27.2870   14.9660    5.0420 C.2       1 5AO         0.1395
     13 H1        -23.3392   13.5106    9.0358 H         1 5AO         0.1716
     14 H2        -23.9309   15.1647    8.7248 H         1 5AO         0.1716
     15 H3        -25.6078   10.7796    5.9426 H         1 5AO         0.0579
     16 H4        -24.1060   11.6317    7.6907 H         1 5AO         0.0501
     17 H5        -27.0763   12.3315    4.7152 H         1 5AO         0.0497
     18 H6        -28.8477   17.7206    4.6030 H         1 5AO         0.1414
     19 H7        -28.2866   13.7445    3.5374 H         1 5AO         0.0558
     20 H8        -25.5531   15.6142    7.0103 H         1 5AO         0.0495
@<TRIPOS>BOND
     1   10    1 1  
     2    2    3 ar 
     3    4    2 ar 
     4   10    3 ar 
     5   11    4 ar 
     6    5    8 2  
     7    9    5 1  
     8    6    8 1  
     9   12    6 2  
    10    7   10 ar 
    11   11    7 ar 
    12   12    9 1  
    13   11   12 1  
    14    1   13 1  
    15    1   14 1  
    16    2   15 1  
    17    3   16 1  
    18    4   17 1  
    19    5   18 1  
    20    6   19 1  
    21    7   20 1  
@<TRIPOS>SUBSTRUCTURE
     1 5AO         1

