### 
### Created by X-TOOL on Mon Sep 10 21:13:31 2018
### 

@<TRIPOS>MOLECULE
5o07_ligand
   26    26     1     0     0
SMALL
GAST_HUCK


@<TRIPOS>ATOM
      1 S1         -5.6990    1.0030   16.5260 S.o2      1 1VQ         0.1598
      2 O1         -4.9670    1.3680   17.6980 O.2       1 1VQ        -0.1270
      3 O2         -7.1270    1.1020   16.5310 O.2       1 1VQ        -0.1270
      4 O3         -5.1920    1.9710   15.3980 O.3       1 1VQ        -0.2197
      5 N1         -5.2840   -0.4870   16.1330 N.am      1 1VQ        -0.2415
      6 C1         -3.8970    1.7410   14.7680 C.3       1 1VQ         0.1113
      7 C2         -3.9110    2.4600   13.4620 C.3       1 1VQ         0.1377
      8 N3         -3.4860    6.0360   13.9320 N.2       1 1VQ        -0.0565
      9 N4         -6.4640    4.2320   13.0820 N.2       1 1VQ        -0.0250
     10 C3         -5.1850    4.6920   13.4600 C.2       1 1VQ         0.4392
     11 C4         -4.8130    5.9910   13.6840 C.2       1 1VQ         0.2837
     12 C5         -3.0460    4.7940   13.8650 C.2       1 1VQ         0.3158
     13 C6         -1.6520    4.4080   14.1320 C.3       1 1VQ         0.0986
     14 N2         -4.0490    3.9170   13.5870 N.pl3     1 1VQ        -0.0180
     15 O4         -7.3750    5.0610   13.0420 O.2       1 1VQ        -0.4092
     16 O5         -6.6100    3.0680   12.7180 O.2       1 1VQ        -0.4092
     17 H1         -5.5232   -1.2481   16.7359 H         1 1VQ         0.1654
     18 H2         -4.7848   -0.6595   15.2839 H         1 1VQ         0.1654
     19 H3         -3.7430    0.6642   14.6042 H         1 1VQ         0.0615
     20 H4         -3.0918    2.1337   15.4063 H         1 1VQ         0.0615
     21 H5         -4.7555    2.0818   12.8673 H         1 1VQ         0.0702
     22 H6         -2.9681    2.2450   12.9380 H         1 1VQ         0.0702
     23 H7         -5.4810    6.8509   13.6651 H         1 1VQ         0.2194
     24 H8         -1.0527    5.3097   14.3262 H         1 1VQ         0.0912
     25 H9         -1.2445    3.8780   13.2585 H         1 1VQ         0.0912
     26 H10        -1.6163    3.7477   15.0110 H         1 1VQ         0.0912
@<TRIPOS>BOND
     1    1    2 2  
     2    1    3 2  
     3    4    1 1  
     4    1    5 am 
     5    6    4 1  
     6    7    6 1  
     7   14    7 1  
     8   11    8 1  
     9    8   12 2  
    10   10    9 1  
    11    9   15 2  
    12    9   16 2  
    13   10   11 2  
    14   10   14 1  
    15   12   13 1  
    16   12   14 1  
    17    5   17 1  
    18    5   18 1  
    19    6   19 1  
    20    6   20 1  
    21    7   21 1  
    22    7   22 1  
    23   11   23 1  
    24   13   24 1  
    25   13   25 1  
    26   13   26 1  
@<TRIPOS>SUBSTRUCTURE
     1 1VQ         1

