### 
### Created by X-TOOL on Mon Sep 10 21:13:33 2018
### 

@<TRIPOS>MOLECULE
5o0a_ligand
   24    25     1     0     0
SMALL
GAST_HUCK


@<TRIPOS>ATOM
      1 C10       -10.0770  -36.4120  -20.5900 C.2       1 9FH        -0.0019
      2 C15        -7.6910  -33.5580  -20.2380 C.3       1 9FH         0.0040
      3 C01        -4.6940  -36.9330  -22.0670 C.ar      1 9FH        -0.0659
      4 C02        -3.8570  -36.7600  -20.9700 C.ar      1 9FH        -0.0688
      5 C03        -4.3630  -36.3450  -19.7470 C.ar      1 9FH        -0.0659
      6 C04        -5.7230  -36.1180  -19.6110 C.ar      1 9FH        -0.0257
      7 C05        -6.5560  -36.3090  -20.7020 C.ar      1 9FH         0.1118
      8 C06        -6.0590  -36.7100  -21.9340 C.ar      1 9FH        -0.0257
      9 N07        -7.9450  -36.0670  -20.5990 N.pl3     1 9FH        -0.1565
     10 C08        -8.4520  -34.8590  -20.4110 C.2       1 9FH         0.0984
     11 C09        -9.8580  -35.0250  -20.3840 C.2       1 9FH         0.0252
     12 N11        -8.8850  -36.9670  -20.7320 N.2       1 9FH        -0.2144
     13 C12       -10.8580  -33.9350  -20.2050 C.2       1 9FH         0.0374
     14 O13       -10.4760  -32.7550  -19.9470 O.co2     1 9FH        -0.5731
     15 O14       -12.0750  -34.1900  -20.3340 O.co2     1 9FH        -0.5731
     16 H1        -11.0394  -36.9204  -20.6244 H         1 9FH         0.0658
     17 H2         -8.4040  -32.7316  -20.1011 H         1 9FH         0.0453
     18 H3         -7.0787  -33.3696  -21.1322 H         1 9FH         0.0453
     19 H4         -7.0386  -33.6294  -19.3552 H         1 9FH         0.0453
     20 H5         -4.2832  -37.2405  -23.0219 H         1 9FH         0.0600
     21 H6         -2.7950  -36.9520  -21.0720 H         1 9FH         0.0557
     22 H7         -3.6986  -36.1992  -18.9030 H         1 9FH         0.0600
     23 H8         -6.1315  -35.7942  -18.6606 H         1 9FH         0.0585
     24 H9         -6.7246  -36.8470  -22.7786 H         1 9FH         0.0585
@<TRIPOS>BOND
     1    1   11 1  
     2   12    1 2  
     3   10    2 1  
     4    3    4 ar 
     5    8    3 ar 
     6    5    4 ar 
     7    6    5 ar 
     8    7    6 ar 
     9    7    8 ar 
    10    9    7 1  
    11    9   10 1  
    12    9   12 1  
    13   10   11 2  
    14   11   13 1  
    15   13   14 ar 
    16   13   15 ar 
    17    1   16 1  
    18    2   17 1  
    19    2   18 1  
    20    2   19 1  
    21    3   20 1  
    22    4   21 1  
    23    5   22 1  
    24    6   23 1  
    25    8   24 1  
@<TRIPOS>SUBSTRUCTURE
     1 9FH         1

