### 
### Created by X-TOOL on Mon Sep 10 21:13:33 2018
### 

@<TRIPOS>MOLECULE
5o0b_ligand
   17    18     1     0     0
SMALL
GAST_HUCK


@<TRIPOS>ATOM
      1 C13         9.5320   31.7230  -16.8980 C.ar      1 9FE        -0.0564
      2 O01        12.0000   32.1970  -15.5350 O.co2     1 9FE        -0.5631
      3 C02        11.1850   33.1510  -15.6820 C.2       1 9FE         0.0566
      4 O03        11.5350   34.3470  -15.5020 O.co2     1 9FE        -0.5631
      5 C04         9.7650   32.8410  -16.0820 C.ar      1 9FE        -0.0002
      6 C05         8.7110   33.6510  -15.6470 C.ar      1 9FE        -0.0494
      7 C06         7.4080   33.3260  -16.0460 C.ar      1 9FE         0.0216
      8 C07         6.0940   33.8790  -15.8290 C.2       1 9FE         0.0986
      9 BR          5.6660   35.4340  -14.7990 Br        1 9FE        -0.0393
     10 N09         5.2400   33.1070  -16.4760 N.2       1 9FE        -0.1886
     11 N10         5.8500   32.1290  -17.0800 N.pl3     1 9FE        -0.2068
     12 C11         7.1760   32.2020  -16.8620 C.ar      1 9FE         0.0922
     13 C12         8.2370   31.4010  -17.2850 C.ar      1 9FE        -0.0316
     14 H1         10.3634   31.1100  -17.2267 H         1 9FE         0.0607
     15 H2          8.8983   34.5115  -15.0149 H         1 9FE         0.0630
     16 H3          5.3848   31.4033  -17.6439 H         1 9FE         0.2491
     17 H4          8.0527   30.5349  -17.9102 H         1 9FE         0.0567
@<TRIPOS>BOND
     1    5    1 ar 
     2    1   13 ar 
     3    3    2 ar 
     4    3    4 ar 
     5    3    5 1  
     6    5    6 ar 
     7    6    7 ar 
     8    7    8 1  
     9    7   12 ar 
    10    8    9 1  
    11    8   10 2  
    12   10   11 1  
    13   11   12 1  
    14   12   13 ar 
    15    1   14 1  
    16    6   15 1  
    17   11   16 1  
    18   13   17 1  
@<TRIPOS>SUBSTRUCTURE
     1 9FE         1

