### 
### Created by X-TOOL on Mon Sep 10 21:13:30 2018
### 

@<TRIPOS>MOLECULE
5o0s_ligand
   28    29     1     0     0
SMALL
GAST_HUCK


@<TRIPOS>ATOM
      1 C1         57.6330   66.8080   61.5450 C.3       1 9FQ         0.1467
      2 C2         57.1340   66.3270   60.1810 C.3       1 9FQ         0.1144
      3 C3         58.2900   65.9080   59.2430 C.3       1 9FQ         0.1098
      4 C4         59.3290   66.9940   59.1440 C.3       1 9FQ         0.0910
      5 C5         59.9460   67.2900   60.4990 C.3       1 9FQ         0.0419
      6 C6         61.0210   68.3790   60.4560 C.3       1 9FQ         0.0520
      7 C7         58.8680   67.6740   61.5020 C.3       1 9FQ         0.1279
      8 O8         56.6240   67.6830   62.1420 O.3       1 9FQ        -0.2070
      9 O9         56.1730   65.2880   60.3110 O.3       1 9FQ        -0.3864
     10 O10        57.6990   65.6620   57.9420 O.3       1 9FQ        -0.3866
     11 O11        60.3610   66.5780   58.2360 O.3       1 9FQ        -0.3887
     12 O12        61.7580   68.3980   61.6860 O.3       1 9FQ        -0.3946
     13 O13        58.2920   68.9730   61.1730 O.3       1 9FQ        -0.2091
     14 S14        56.9910   69.1870   61.9820 S.o2      1 9FQ         0.2107
     15 O15        56.0330   69.8370   61.1260 O.2       1 9FQ        -0.1179
     16 O16        57.2140   69.7260   63.2810 O.2       1 9FQ        -0.1179
     17 H1         57.8177   65.9299   62.1812 H         1 9FQ         0.0675
     18 H2         56.6275   67.1801   59.7061 H         1 9FQ         0.0648
     19 H3         58.7633   64.9899   59.6213 H         1 9FQ         0.0646
     20 H4         58.8536   67.9090   58.7608 H         1 9FQ         0.0624
     21 H5         60.4260   66.3647   60.8502 H         1 9FQ         0.0376
     22 H6         60.5411   69.3572   60.3052 H         1 9FQ         0.0561
     23 H7         61.7101   68.1763   59.6229 H         1 9FQ         0.0561
     24 H8         59.3337   67.6962   62.4983 H         1 9FQ         0.0653
     25 H9         56.5909   64.5149   60.6718 H         1 9FQ         0.2100
     26 H10        58.3766   65.3909   57.3338 H         1 9FQ         0.2100
     27 H11        59.9780   66.3919   57.3868 H         1 9FQ         0.2099
     28 H12        62.1748   67.5545   61.8172 H         1 9FQ         0.2094
@<TRIPOS>BOND
     1    1    2 1  
     2    1    7 1  
     3    1    8 1  
     4    2    3 1  
     5    2    9 1  
     6    3    4 1  
     7    3   10 1  
     8    4    5 1  
     9    4   11 1  
    10    5    6 1  
    11    5    7 1  
    12    6   12 1  
    13    7   13 1  
    14    8   14 1  
    15   13   14 1  
    16   14   15 2  
    17   14   16 2  
    18    1   17 1  
    19    2   18 1  
    20    3   19 1  
    21    4   20 1  
    22    5   21 1  
    23    6   22 1  
    24    6   23 1  
    25    7   24 1  
    26    9   25 1  
    27   10   26 1  
    28   11   27 1  
    29   12   28 1  
@<TRIPOS>SUBSTRUCTURE
     1 9FQ         1

