### 
### Created by X-TOOL on Mon Sep 10 21:13:31 2018
### 

@<TRIPOS>MOLECULE
5o11_ligand
   36    39     1     0     0
SMALL
GAST_HUCK


@<TRIPOS>ATOM
      1 C1         28.7670  119.2920    0.2780 C.ar      1 3NG         0.0307
      2 C2         28.1110  120.3210    1.1130 C.ar      1 3NG         0.0060
      3 C3         28.4980  120.4390    2.4390 C.ar      1 3NG        -0.0500
      4 C4         29.4680  119.5630    2.9400 C.ar      1 3NG        -0.0482
      5 C5         30.0650  118.5890    2.1340 C.ar      1 3NG         0.0098
      6 C6         29.7380  118.4830    0.8100 C.ar      1 3NG        -0.0344
      7 C7         26.8510  120.9730   -0.9540 C.ar      1 3NG         0.0590
      8 C8         27.1030  121.1860    0.4800 C.ar      1 3NG         0.0270
      9 N9         28.4700  119.1280   -1.0210 N.ar      1 3NG        -0.2833
     10 C10        27.5910  119.8960   -1.6980 C.ar      1 3NG         0.1523
     11 C11        25.2410  122.8020   -0.7510 C.ar      1 3NG         0.0146
     12 N12        25.5130  122.9720    0.5600 N.ar      1 3NG        -0.2918
     13 C13        26.4170  122.1920    1.1760 C.ar      1 3NG         0.0250
     14 C14        25.8950  121.8080   -1.5200 C.ar      1 3NG        -0.0185
     15 N15        27.3090  119.5900   -2.9890 N.pl3     1 3NG        -0.2502
     16 C16        27.6750  118.4770   -3.6950 C.ar      1 3NG         0.0673
     17 C17        28.3230  117.3260   -3.2250 C.ar      1 3NG        -0.0235
     18 C18        28.6720  116.3110   -4.1270 C.ar      1 3NG         0.0315
     19 C19        28.3990  116.4270   -5.4760 C.ar      1 3NG        -0.0590
     20 C20        27.7610  117.5600   -5.9470 C.ar      1 3NG        -0.0704
     21 C21        27.4030  118.5540   -5.0550 C.ar      1 3NG        -0.0371
     22 CL22       29.5150  114.7980   -3.6540 Cl        1 3NG        -0.0736
     23 C23        31.1210  117.6830    2.6720 C.2       1 3NG         0.0635
     24 O24        31.4370  116.7190    2.0260 O.co2     1 3NG        -0.5602
     25 O25        31.7620  117.9890    3.8090 O.co2     1 3NG        -0.5602
     26 H1         28.0570  121.1965    3.0768 H         1 3NG         0.0636
     27 H2         29.7640  119.6418    3.9798 H         1 3NG         0.0629
     28 H3         30.2460  117.7601    0.1819 H         1 3NG         0.0641
     29 H4         24.5053  123.4406   -1.2264 H         1 3NG         0.0804
     30 H5         26.6199  122.3430    2.2301 H         1 3NG         0.0861
     31 H6         25.6452  121.6967   -2.5689 H         1 3NG         0.0763
     32 H7         26.7479  120.2840   -3.5032 H         1 3NG         0.2200
     33 H8         28.5527  117.2215   -2.1708 H         1 3NG         0.0546
     34 H9         28.6827  115.6358   -6.1605 H         1 3NG         0.0529
     35 H10        27.5440  117.6676   -7.0036 H         1 3NG         0.0589
     36 H11        26.8885  119.4301   -5.4329 H         1 3NG         0.0542
@<TRIPOS>BOND
     1    2    1 ar 
     2    1    6 ar 
     3    9    1 ar 
     4    2    3 ar 
     5    8    2 ar 
     6    3    4 ar 
     7    4    5 ar 
     8    6    5 ar 
     9    5   23 1  
    10    7    8 ar 
    11    7   10 ar 
    12   14    7 ar 
    13    8   13 ar 
    14   10    9 ar 
    15   10   15 1  
    16   11   12 ar 
    17   11   14 ar 
    18   12   13 ar 
    19   15   16 1  
    20   16   17 ar 
    21   16   21 ar 
    22   17   18 ar 
    23   18   19 ar 
    24   18   22 1  
    25   19   20 ar 
    26   20   21 ar 
    27   23   24 ar 
    28   23   25 ar 
    29    3   26 1  
    30    4   27 1  
    31    6   28 1  
    32   11   29 1  
    33   13   30 1  
    34   14   31 1  
    35   15   32 1  
    36   17   33 1  
    37   19   34 1  
    38   20   35 1  
    39   21   36 1  
@<TRIPOS>SUBSTRUCTURE
     1 3NG         1

