### 
### Created by X-TOOL on Wed Jan  1 15:39:35 2020
### 

@<TRIPOS>MOLECULE
5o1a_ligand
   41    43     1     0     0
SMALL
GAST_HUCK


@<TRIPOS>ATOM
      1 N1         92.2430   92.0340  -42.9940 N.pl3     1 9H5        -0.2373
      2 N3         91.9430  100.5410  -45.0300 N.4       1 9H5         0.2359
      3 C4         91.6810   93.1760  -43.6010 C.ar      1 9H5         0.1112
      4 C5         91.5820   94.3210  -42.7740 C.ar      1 9H5         0.0793
      5 C6         91.0580   95.5130  -43.3080 C.ar      1 9H5         0.1191
      6 C7         91.6200   90.9020  -42.5370 C.2       1 9H5         0.0307
      7 C8         92.5790   90.0670  -41.9980 C.2       1 9H5        -0.0831
      8 C10        93.5970   91.9090  -42.7430 C.2       1 9H5         0.0307
      9 C13        90.4440  100.3240  -45.1790 C.3       1 9H5        -0.0113
     10 C15        92.2870   98.0860  -45.1890 C.3       1 9H5         0.0731
     11 C12        90.1950   99.0900  -46.0430 C.3       1 9H5         0.0731
     12 C16        92.2240  101.8120  -44.2850 C.3       1 9H5        -0.0430
     13 C14        92.5990   99.3360  -44.3720 C.3       1 9H5        -0.0113
     14 N2         90.8530   97.9270  -45.4530 N.am      1 9H5        -0.2650
     15 C11        90.0910   96.7780  -45.2410 C.2       1 9H5         0.1984
     16 O2         88.8890   96.7280  -45.5070 O.2       1 9H5        -0.3937
     17 C1         90.6630   95.5490  -44.6500 C.ar      1 9H5         0.0772
     18 I2         92.1590   94.2590  -40.7180 I         1 9H5        -0.0584
     19 O1         90.9230   96.6650  -42.5690 O.3       1 9H5        -0.3256
     20 C2         90.7670   94.4100  -45.4660 C.ar      1 9H5        -0.0402
     21 C3         91.2850   93.2050  -44.9660 C.ar      1 9H5         0.0411
     22 I1         91.3670   91.5650  -46.3400 I         1 9H5        -0.0593
     23 C9         93.8360   90.7010  -42.1250 C.2       1 9H5        -0.0831
     24 H1         92.3354  100.6355  -45.9536 H         1 9H5         0.2032
     25 H2         90.5519   90.6962  -42.5898 H         1 9H5         0.0817
     26 H3         92.3982   89.0899  -41.5525 H         1 9H5         0.0288
     27 H4         94.3553   92.6491  -42.9943 H         1 9H5         0.0817
     28 H5         89.9912  101.2048  -45.6576 H         1 9H5         0.0834
     29 H6         89.9942  100.1741  -44.1864 H         1 9H5         0.0834
     30 H7         92.6427   97.2051  -44.6346 H         1 9H5         0.0574
     31 H8         92.8168   98.1526  -46.1507 H         1 9H5         0.0574
     32 H9         90.5980   99.2640  -47.0516 H         1 9H5         0.0574
     33 H10        89.1130   98.9027  -46.1077 H         1 9H5         0.0574
     34 H11        93.3113  101.9482  -44.1893 H         1 9H5         0.0778
     35 H12        91.7718  101.7578  -43.2837 H         1 9H5         0.0778
     36 H13        91.7951  102.6622  -44.8356 H         1 9H5         0.0778
     37 H14        92.2071   99.2155  -43.3513 H         1 9H5         0.0834
     38 H15        93.6879   99.4865  -44.3313 H         1 9H5         0.0834
     39 H16        90.0092   96.9245  -42.5531 H         1 9H5         0.2527
     40 H17        90.4418   94.4626  -46.4987 H         1 9H5         0.0676
     41 H18        94.7999   90.3126  -41.7996 H         1 9H5         0.0288
@<TRIPOS>BOND
     1    3    1 1  
     2    1    6 1  
     3    1    8 1  
     4    9    2 1  
     5    2   12 1  
     6   13    2 1  
     7    4    3 ar 
     8    3   21 ar 
     9    5    4 ar 
    10    4   18 1  
    11   17    5 ar 
    12    5   19 1  
    13    6    7 2  
    14   23    7 1  
    15    8   23 2  
    16   11    9 1  
    17   10   13 1  
    18   14   10 1  
    19   14   11 1  
    20   15   14 am 
    21   15   16 2  
    22   15   17 1  
    23   17   20 ar 
    24   20   21 ar 
    25   21   22 1  
    26    2   24 1  
    27    6   25 1  
    28    7   26 1  
    29    8   27 1  
    30    9   28 1  
    31    9   29 1  
    32   10   30 1  
    33   10   31 1  
    34   11   32 1  
    35   11   33 1  
    36   12   34 1  
    37   12   35 1  
    38   12   36 1  
    39   13   37 1  
    40   13   38 1  
    41   19   39 1  
    42   20   40 1  
    43   23   41 1  
@<TRIPOS>SUBSTRUCTURE
     1 9H5         1

