### 
### Created by X-TOOL on Wed Jan  1 15:39:35 2020
### 

@<TRIPOS>MOLECULE
5o1b_ligand
   25    26     1     0     0
SMALL
GAST_HUCK


@<TRIPOS>ATOM
      1 C1         90.6670   95.4700  -44.7470 C.ar      1 9H2         0.0110
      2 C2         90.7600   94.2980  -45.5100 C.ar      1 9H2        -0.0565
      3 C3         91.2460   93.1040  -44.9630 C.ar      1 9H2         0.0287
      4 C4         91.6510   93.0700  -43.6140 C.ar      1 9H2         0.1000
      5 C5         91.5710   94.2440  -42.8370 C.ar      1 9H2         0.0676
      6 C6         91.0820   95.4350  -43.4150 C.ar      1 9H2         0.1022
      7 N1         92.1760   91.9100  -42.9940 N.pl3     1 9H2        -0.2436
      8 C7         91.4970   90.8150  -42.5090 C.2       1 9H2         0.0284
      9 C8         92.4110   89.9350  -41.9670 C.2       1 9H2        -0.0843
     10 C9         93.6930   90.5090  -42.1190 C.2       1 9H2        -0.0843
     11 C10        93.5220   91.7180  -42.7530 C.2       1 9H2         0.0284
     12 I1         92.1680   94.2390  -40.7900 I         1 9H2        -0.0613
     13 I2         91.2750   91.4760  -46.3130 I         1 9H2        -0.0627
     14 C11        90.1410   96.7380  -45.3660 C.3       1 9H2         0.0747
     15 O1         89.7450   96.5160  -46.7150 O.3       1 9H2        -0.3853
     16 O2         90.9670   96.6080  -42.7130 O.3       1 9H2        -0.3343
     17 H1         90.4484   94.3162  -46.5481 H         1 9H2         0.0560
     18 H2         90.4186   90.6680  -42.5468 H         1 9H2         0.0809
     19 H3         92.1856   88.9742  -41.5065 H         1 9H2         0.0283
     20 H4         94.6384   90.0761  -41.7953 H         1 9H2         0.0283
     21 H5         94.3184   92.4107  -43.0211 H         1 9H2         0.0809
     22 H6         90.9297   97.5044  -45.3433 H         1 9H2         0.0687
     23 H7         89.2728   97.0880  -44.7884 H         1 9H2         0.0687
     24 H8         90.4930   96.2165  -47.2182 H         1 9H2         0.2121
     25 H9         91.8226   96.8700  -42.3939 H         1 9H2         0.2477
@<TRIPOS>BOND
     1    1    2 ar 
     2    1    6 ar 
     3    1   14 1  
     4    2    3 ar 
     5    3    4 ar 
     6    3   13 1  
     7    4    5 ar 
     8    4    7 1  
     9    5    6 ar 
    10    5   12 1  
    11    6   16 1  
    12    7    8 1  
    13    7   11 1  
    14    8    9 2  
    15    9   10 1  
    16   10   11 2  
    17   14   15 1  
    18    2   17 1  
    19    8   18 1  
    20    9   19 1  
    21   10   20 1  
    22   11   21 1  
    23   14   22 1  
    24   14   23 1  
    25   15   24 1  
    26   16   25 1  
@<TRIPOS>SUBSTRUCTURE
     1 9H2         1

