### 
### Created by X-TOOL on Wed Jan  1 15:39:35 2020
### 

@<TRIPOS>MOLECULE
5o1c_ligand
   33    35     1     0     0
SMALL
GAST_HUCK


@<TRIPOS>ATOM
      1 N1         92.3940   91.8930  -43.0980 N.pl3     1 9GZ        -0.2387
      2 C4         91.7420   94.2030  -42.9040 C.ar      1 9GZ         0.0764
      3 C5         91.2330   95.3970  -43.4450 C.ar      1 9GZ         0.1116
      4 C6         90.8250   95.4490  -44.7790 C.ar      1 9GZ         0.0363
      5 C7         90.2720   96.6980  -45.3950 C.2       1 9GZ         0.0550
      6 C8         91.7330   90.7540  -42.6940 C.2       1 9GZ         0.0302
      7 C10        93.9060   90.5290  -42.1530 C.2       1 9GZ        -0.0835
      8 C13        90.2960   91.4610  -46.6270 C.ar      1 9GZ        -0.0595
      9 C15        91.5110   89.8650  -47.9560 C.ar      1 9GZ         0.1304
     10 C17        92.6760   91.3590  -46.4920 C.ar      1 9GZ        -0.0595
     11 C1         90.9440   94.2930  -45.5660 C.ar      1 9GZ        -0.0483
     12 C11        93.7270   91.7530  -42.7580 C.2       1 9GZ         0.0302
     13 C12        91.4880   91.9530  -46.0710 C.ar      1 9GZ        -0.0274
     14 C14        90.3010   90.4250  -47.5630 C.ar      1 9GZ        -0.0299
     15 C16        92.7050   90.3320  -47.4350 C.ar      1 9GZ        -0.0299
     16 C2         91.4520   93.0700  -45.0840 C.ar      1 9GZ         0.0125
     17 C3         91.8510   93.0460  -43.7150 C.ar      1 9GZ         0.1084
     18 C9         92.6430   89.8970  -42.1110 C.2       1 9GZ        -0.0835
     19 F1         91.5350   88.8640  -48.8440 F         1 9GZ        -0.1848
     20 I1         92.3140   94.2230  -40.8440 I         1 9GZ        -0.0591
     21 O1         89.9050   96.6270  -46.6120 O.co2     1 9GZ        -0.5658
     22 O2         91.1150   96.5240  -42.6690 O.3       1 9GZ        -0.3282
     23 O3         90.2110   97.7220  -44.6470 O.co2     1 9GZ        -0.5658
     24 H1         90.6679   90.5619  -42.8149 H         1 9GZ         0.0814
     25 H2         94.8446   90.1242  -41.7775 H         1 9GZ         0.0287
     26 H3         89.3506   91.8954  -46.3226 H         1 9GZ         0.0591
     27 H4         93.6120   91.7080  -46.0711 H         1 9GZ         0.0591
     28 H5         90.6278   94.3437  -46.6016 H         1 9GZ         0.0634
     29 H6         94.5077   92.4903  -42.9391 H         1 9GZ         0.0814
     30 H7         89.3691   90.0604  -47.9797 H         1 9GZ         0.0599
     31 H8         93.6489   89.9058  -47.7552 H         1 9GZ         0.0599
     32 H9         92.4276   88.9140  -41.6948 H         1 9GZ         0.0287
     33 H10        91.6311   97.2248  -43.0498 H         1 9GZ         0.2514
@<TRIPOS>BOND
     1    1    6 1  
     2    1   12 1  
     3   17    1 1  
     4    3    2 ar 
     5    2   17 ar 
     6    2   20 1  
     7    4    3 ar 
     8    3   22 1  
     9    4    5 1  
    10   11    4 ar 
    11    5   21 ar 
    12    5   23 ar 
    13    6   18 2  
    14   12    7 2  
    15    7   18 1  
    16   13    8 ar 
    17    8   14 ar 
    18   14    9 ar 
    19   15    9 ar 
    20    9   19 1  
    21   13   10 ar 
    22   10   15 ar 
    23   16   11 ar 
    24   13   16 1  
    25   16   17 ar 
    26    6   24 1  
    27    7   25 1  
    28    8   26 1  
    29   10   27 1  
    30   11   28 1  
    31   12   29 1  
    32   14   30 1  
    33   15   31 1  
    34   18   32 1  
    35   22   33 1  
@<TRIPOS>SUBSTRUCTURE
     1 9GZ         1

