### 
### Created by X-TOOL on Wed Jan  1 15:39:34 2020
### 

@<TRIPOS>MOLECULE
5o1d_ligand
   33    34     1     0     0
SMALL
GAST_HUCK


@<TRIPOS>ATOM
      1 C10        92.5950   89.8470  -47.8610 C.3       1 9GW        -0.0629
      2 C17        92.7520   89.8650  -41.7790 C.2       1 9GW        -0.0849
      3 C01        91.2490   94.0680  -45.5910 C.ar      1 9GW        -0.0276
      4 N01        92.5430   91.7420  -42.9720 N.pl3     1 9GW        -0.2436
      5 O01        91.2860   96.3640  -42.7460 O.3       1 9GW        -0.3360
      6 C02        91.7150   92.8740  -45.0240 C.ar      1 9GW         0.1220
      7 O02        91.8630   91.7060  -45.7240 O.3       1 9GW        -0.3238
      8 C03        92.0390   92.8670  -43.6590 C.ar      1 9GW         0.1301
      9 O03        90.3210   96.3890  -46.7660 O.co2     1 9GW        -0.5661
     10 C04        91.8960   94.0390  -42.8930 C.ar      1 9GW         0.0678
     11 O04        90.5000   97.5190  -44.8000 O.co2     1 9GW        -0.5661
     12 C05        91.4270   95.2200  -43.4880 C.ar      1 9GW         0.0993
     13 C06        91.0990   95.2450  -44.8420 C.ar      1 9GW         0.0263
     14 C07        90.5970   96.4850  -45.5240 C.2       1 9GW         0.0520
     15 C08        91.0440   91.5720  -46.8890 C.3       1 9GW         0.0667
     16 C09        91.1780   90.1490  -47.4050 C.3       1 9GW        -0.0285
     17 C16        91.8570   90.6830  -42.4280 C.2       1 9GW         0.0274
     18 C18        94.0340   90.4450  -41.9100 C.2       1 9GW        -0.0849
     19 C19        93.8760   91.6050  -42.6290 C.2       1 9GW         0.0274
     20 I01        92.3460   94.0900  -40.8190 I         1 9GW        -0.0620
     21 H1         92.6497   88.8108  -48.2260 H         1 9GW         0.0231
     22 H2         93.2873   89.9750  -47.0158 H         1 9GW         0.0231
     23 H3         92.8742   90.5364  -48.6714 H         1 9GW         0.0231
     24 H4         92.5156   88.9382  -41.2584 H         1 9GW         0.0280
     25 H5         90.9956   94.0827  -46.6449 H         1 9GW         0.0548
     26 H6         90.9603   97.0623  -43.3016 H         1 9GW         0.2472
     27 H7         91.3772   92.2807  -47.6615 H         1 9GW         0.0607
     28 H8         89.9944   91.7770  -46.6315 H         1 9GW         0.0607
     29 H9         90.9065   89.4509  -46.5995 H         1 9GW         0.0288
     30 H10        90.4933   90.0123  -48.2550 H         1 9GW         0.0288
     31 H11        90.7828   90.5187  -42.4990 H         1 9GW         0.0805
     32 H12        94.9686   90.0483  -41.5163 H         1 9GW         0.0280
     33 H13        94.6710   92.3031  -42.8869 H         1 9GW         0.0805
@<TRIPOS>BOND
     1   16    1 1  
     2   17    2 2  
     3    2   18 1  
     4    6    3 ar 
     5    3   13 ar 
     6    8    4 1  
     7    4   17 1  
     8    4   19 1  
     9   12    5 1  
    10    7    6 1  
    11    6    8 ar 
    12   15    7 1  
    13    8   10 ar 
    14   14    9 ar 
    15   10   12 ar 
    16   10   20 1  
    17   14   11 ar 
    18   13   12 ar 
    19   13   14 1  
    20   15   16 1  
    21   18   19 2  
    22    1   21 1  
    23    1   22 1  
    24    1   23 1  
    25    2   24 1  
    26    3   25 1  
    27    5   26 1  
    28   15   27 1  
    29   15   28 1  
    30   16   29 1  
    31   16   30 1  
    32   17   31 1  
    33   18   32 1  
    34   19   33 1  
@<TRIPOS>SUBSTRUCTURE
     1 9GW         1

