### 
### Created by X-TOOL on Wed Jan  1 15:39:35 2020
### 

@<TRIPOS>MOLECULE
5o1e_ligand
   31    32     1     0     0
SMALL
GAST_HUCK


@<TRIPOS>ATOM
      1 C10        91.8220   89.5730  -48.2710 C.2       1 9GT        -0.1150
      2 C13        93.9320   90.4470  -41.7560 C.2       1 9GT        -0.0849
      3 C01        91.1440   93.9830  -45.5080 C.ar      1 9GT        -0.0274
      4 C02        91.6150   92.8090  -44.9050 C.ar      1 9GT         0.1252
      5 C03        91.9210   92.8330  -43.5420 C.ar      1 9GT         0.1304
      6 C04        91.7630   94.0180  -42.8050 C.ar      1 9GT         0.0678
      7 C05        91.2940   95.1910  -43.4170 C.ar      1 9GT         0.0993
      8 C06        90.9800   95.1740  -44.7780 C.ar      1 9GT         0.0263
      9 C07        90.4720   96.3920  -45.4870 C.2       1 9GT         0.0520
     10 C08        91.2590   91.5740  -46.8910 C.3       1 9GT         0.0953
     11 C09        91.1110   90.1400  -47.2920 C.2       1 9GT        -0.0597
     12 C11        91.7510   90.6680  -42.2910 C.2       1 9GT         0.0274
     13 C12        92.6530   89.8670  -41.6290 C.2       1 9GT        -0.0849
     14 C14        93.7710   91.6010  -42.4890 C.2       1 9GT         0.0274
     15 I01        92.1910   94.1130  -40.7400 I         1 9GT        -0.0620
     16 N01        92.4350   91.7290  -42.8390 N.pl3     1 9GT        -0.2436
     17 O01        91.1360   96.3460  -42.6870 O.3       1 9GT        -0.3360
     18 O02        90.3160   97.4280  -44.7780 O.co2     1 9GT        -0.5661
     19 O03        90.2450   96.2860  -46.7350 O.co2     1 9GT        -0.5661
     20 O04        91.7830   91.6280  -45.5620 O.3       1 9GT        -0.3103
     21 H1         91.6692   88.5232  -48.5172 H         1 9GT         0.0291
     22 H2         92.5543   90.1607  -48.8227 H         1 9GT         0.0291
     23 H3         94.8656   90.0577  -41.3526 H         1 9GT         0.0280
     24 H4         90.8998   93.9730  -46.5641 H         1 9GT         0.0548
     25 H5         90.2777   92.0700  -46.9221 H         1 9GT         0.0789
     26 H6         91.9486   92.0819  -47.5813 H         1 9GT         0.0789
     27 H7         90.3864   89.5268  -46.7584 H         1 9GT         0.0698
     28 H8         90.6790   90.4923  -42.3681 H         1 9GT         0.0805
     29 H9         92.4195   88.9449  -41.0988 H         1 9GT         0.0280
     30 H10        94.5638   92.2999  -42.7515 H         1 9GT         0.0805
     31 H11        90.2254   96.6154  -42.7157 H         1 9GT         0.2472
@<TRIPOS>BOND
     1   11    1 2  
     2   13    2 1  
     3    2   14 2  
     4    4    3 ar 
     5    3    8 ar 
     6    5    4 ar 
     7    4   20 1  
     8    5    6 ar 
     9   16    5 1  
    10    6    7 ar 
    11    6   15 1  
    12    7    8 ar 
    13    7   17 1  
    14    8    9 1  
    15    9   18 ar 
    16    9   19 ar 
    17   10   11 1  
    18   20   10 1  
    19   12   13 2  
    20   12   16 1  
    21   14   16 1  
    22    1   21 1  
    23    1   22 1  
    24    2   23 1  
    25    3   24 1  
    26   10   25 1  
    27   10   26 1  
    28   11   27 1  
    29   12   28 1  
    30   13   29 1  
    31   14   30 1  
    32   17   31 1  
@<TRIPOS>SUBSTRUCTURE
     1 9GT         1

