### 
### Created by X-TOOL on Wed Jan  1 15:39:35 2020
### 

@<TRIPOS>MOLECULE
5o1f_ligand
   36    37     1     0     0
SMALL
GAST_HUCK


@<TRIPOS>ATOM
      1 C10        91.0980   89.1200  -48.3160 C.3       1 9GQ        -0.0535
      2 C13        92.4890   89.6730  -41.6380 C.2       1 9GQ        -0.0849
      3 C15        89.9850   89.6740  -49.1880 C.3       1 9GQ        -0.0652
      4 C01        90.9280   93.7520  -45.4870 C.ar      1 9GQ        -0.0276
      5 C02        91.4240   92.5910  -44.8810 C.ar      1 9GQ         0.1220
      6 C03        91.7520   92.6550  -43.5170 C.ar      1 9GQ         0.1301
      7 C04        91.5880   93.8490  -42.7910 C.ar      1 9GQ         0.0678
      8 C05        91.0900   94.9980  -43.4190 C.ar      1 9GQ         0.0993
      9 C06        90.7540   94.9520  -44.7720 C.ar      1 9GQ         0.0263
     10 C07        90.2230   96.1560  -45.4930 C.2       1 9GQ         0.0520
     11 C08        90.9410   91.0990  -46.7480 C.3       1 9GQ         0.0670
     12 C09        91.8510   90.2590  -47.6420 C.3       1 9GQ        -0.0259
     13 C11        93.6120   91.4230  -42.4650 C.2       1 9GQ         0.0274
     14 C12        93.7680   90.2620  -41.7420 C.2       1 9GQ        -0.0849
     15 C14        91.5900   90.4860  -42.2940 C.2       1 9GQ         0.0274
     16 I01        92.0590   93.9650  -40.7250 I         1 9GQ        -0.0620
     17 N01        92.2790   91.5570  -42.8110 N.pl3     1 9GQ        -0.2436
     18 O01        90.9250   96.1660  -42.7140 O.3       1 9GQ        -0.3360
     19 O02        90.1710   97.2350  -44.8280 O.co2     1 9GQ        -0.5661
     20 O03        89.8900   95.9810  -46.7080 O.co2     1 9GQ        -0.5661
     21 O04        91.6110   91.3900  -45.5130 O.3       1 9GQ        -0.3238
     22 H1         91.7954   88.5418  -48.9399 H         1 9GQ         0.0263
     23 H2         90.6649   88.4645  -47.5461 H         1 9GQ         0.0263
     24 H3         92.2540   88.7396  -41.1286 H         1 9GQ         0.0280
     25 H4         89.4484   88.8432  -49.6694 H         1 9GQ         0.0230
     26 H5         90.4154   90.3287  -49.9600 H         1 9GQ         0.0230
     27 H6         89.2849   90.2513  -48.5663 H         1 9GQ         0.0230
     28 H7         90.6700   93.7258  -46.5395 H         1 9GQ         0.0548
     29 H8         90.0165   90.5405  -46.5396 H         1 9GQ         0.0607
     30 H9         90.6932   92.0404  -47.2601 H         1 9GQ         0.0607
     31 H10        92.2823   90.9077  -48.4186 H         1 9GQ         0.0291
     32 H11        92.6591   89.8355  -47.0275 H         1 9GQ         0.0291
     33 H12        94.4071   92.1213  -42.7224 H         1 9GQ         0.0805
     34 H13        94.6980   89.8731  -41.3300 H         1 9GQ         0.0280
     35 H14        90.5193   90.3103  -42.3866 H         1 9GQ         0.0805
     36 H15        91.4540   96.8497  -43.1079 H         1 9GQ         0.2472
@<TRIPOS>BOND
     1    1    3 1  
     2   12    1 1  
     3   14    2 1  
     4    2   15 2  
     5    5    4 ar 
     6    4    9 ar 
     7    6    5 ar 
     8    5   21 1  
     9    6    7 ar 
    10   17    6 1  
    11    7    8 ar 
    12    7   16 1  
    13    8    9 ar 
    14    8   18 1  
    15    9   10 1  
    16   10   19 ar 
    17   10   20 ar 
    18   11   12 1  
    19   21   11 1  
    20   13   14 2  
    21   13   17 1  
    22   15   17 1  
    23    1   22 1  
    24    1   23 1  
    25    2   24 1  
    26    3   25 1  
    27    3   26 1  
    28    3   27 1  
    29    4   28 1  
    30   11   29 1  
    31   11   30 1  
    32   12   31 1  
    33   12   32 1  
    34   13   33 1  
    35   14   34 1  
    36   15   35 1  
    37   18   36 1  
@<TRIPOS>SUBSTRUCTURE
     1 9GQ         1

