### 
### Created by X-TOOL on Wed Jan  1 15:39:35 2020
### 

@<TRIPOS>MOLECULE
5o1g_ligand
   40    42     1     0     0
SMALL
GAST_HUCK


@<TRIPOS>ATOM
      1 C10        90.7370   90.1520  -48.8730 C.ar      1 9GK        -0.0405
      2 C13        89.0080   89.7970  -51.0360 C.ar      1 9GK        -0.0687
      3 C15        90.7650   91.0450  -49.9470 C.ar      1 9GK        -0.0603
      4 C17        92.8380   89.7710  -41.7170 C.2       1 9GK        -0.0849
      5 C01        91.3140   93.9090  -45.5630 C.ar      1 9GK        -0.0276
      6 C02        91.8160   92.7310  -44.9870 C.ar      1 9GK         0.1222
      7 C03        92.1150   92.7480  -43.6190 C.ar      1 9GK         0.1302
      8 C04        91.9160   93.9180  -42.8590 C.ar      1 9GK         0.0678
      9 C05        91.4140   95.0820  -43.4600 C.ar      1 9GK         0.0993
     10 C06        91.1050   95.0880  -44.8190 C.ar      1 9GK         0.0263
     11 C07        90.5660   96.3140  -45.5050 C.2       1 9GK         0.0520
     12 C08        91.0250   91.2080  -46.6270 C.3       1 9GK         0.0764
     13 C09        91.6650   90.3380  -47.7040 C.3       1 9GK         0.0082
     14 C11        89.8340   89.0810  -48.8920 C.ar      1 9GK        -0.0603
     15 C12        88.9750   88.8990  -49.9740 C.ar      1 9GK        -0.0686
     16 C14        89.9000   90.8660  -51.0250 C.ar      1 9GK        -0.0686
     17 C16        91.9460   90.5830  -42.3810 C.2       1 9GK         0.0274
     18 C18        94.1220   90.3460  -41.8400 C.2       1 9GK        -0.0849
     19 C19        93.9720   91.5060  -42.5650 C.2       1 9GK         0.0274
     20 I01        92.3330   93.9970  -40.7750 I         1 9GK        -0.0620
     21 N01        92.6400   91.6410  -42.9220 N.pl3     1 9GK        -0.2436
     22 O01        91.2180   96.2190  -42.7150 O.3       1 9GK        -0.3360
     23 O02        92.0280   91.5590  -45.6720 O.3       1 9GK        -0.3217
     24 O03        90.2710   96.1890  -46.7380 O.co2     1 9GK        -0.5661
     25 O04        90.4400   97.3560  -44.7930 O.co2     1 9GK        -0.5661
     26 H1         88.3360   89.6638  -51.8761 H         1 9GK         0.0559
     27 H2         91.4596   91.8772  -49.9419 H         1 9GK         0.0557
     28 H3         92.5962   88.8489  -41.1904 H         1 9GK         0.0280
     29 H4         91.0780   93.9120  -46.6210 H         1 9GK         0.0548
     30 H5         90.2185   90.6494  -46.1296 H         1 9GK         0.0630
     31 H6         90.6121   92.1197  -47.0834 H         1 9GK         0.0630
     32 H7         92.5898   90.8207  -48.0529 H         1 9GK         0.0452
     33 H8         91.9043   89.3537  -47.2752 H         1 9GK         0.0452
     34 H9         89.8033   88.3886  -48.0585 H         1 9GK         0.0557
     35 H10        88.2853   88.0628  -49.9881 H         1 9GK         0.0599
     36 H11        89.9217   91.5607  -51.8569 H         1 9GK         0.0599
     37 H12        90.8730   90.4162  -42.4640 H         1 9GK         0.0805
     38 H13        95.0525   89.9477  -41.4381 H         1 9GK         0.0280
     39 H14        94.7695   92.2035  -42.8169 H         1 9GK         0.0805
     40 H15        91.7449   96.9245  -43.0714 H         1 9GK         0.2472
@<TRIPOS>BOND
     1    1    3 ar 
     2   13    1 1  
     3    1   14 ar 
     4   15    2 ar 
     5   16    2 ar 
     6    3   16 ar 
     7   17    4 2  
     8    4   18 1  
     9    6    5 ar 
    10    5   10 ar 
    11    7    6 ar 
    12    6   23 1  
    13    7    8 ar 
    14   21    7 1  
    15    8    9 ar 
    16    8   20 1  
    17    9   10 ar 
    18    9   22 1  
    19   10   11 1  
    20   11   24 ar 
    21   11   25 ar 
    22   12   13 1  
    23   23   12 1  
    24   14   15 ar 
    25   17   21 1  
    26   18   19 2  
    27   19   21 1  
    28    2   26 1  
    29    3   27 1  
    30    4   28 1  
    31    5   29 1  
    32   12   30 1  
    33   12   31 1  
    34   13   32 1  
    35   13   33 1  
    36   14   34 1  
    37   15   35 1  
    38   16   36 1  
    39   17   37 1  
    40   18   38 1  
    41   19   39 1  
    42   22   40 1  
@<TRIPOS>SUBSTRUCTURE
     1 9GK         1

