### 
### Created by X-TOOL on Wed Jan  1 15:39:34 2020
### 

@<TRIPOS>MOLECULE
5o1h_ligand
   33    34     1     0     0
SMALL
GAST_HUCK


@<TRIPOS>ATOM
      1 C10        91.7330   91.0640  -42.3150 C.2       1 9GN         0.0283
      2 C13        93.7420   92.0190  -42.5500 C.2       1 9GN         0.0283
      3 C01        90.9700   95.6320  -44.7540 C.ar      1 9GN         0.0290
      4 C02        91.1080   94.4220  -45.4740 C.ar      1 9GN        -0.0446
      5 C03        91.5660   93.2430  -44.8530 C.ar      1 9GN         0.0464
      6 C04        91.8840   93.2780  -43.5010 C.ar      1 9GN         0.1124
      7 C05        91.7600   94.4680  -42.7800 C.ar      1 9GN         0.0698
      8 C06        91.3050   95.6400  -43.3910 C.ar      1 9GN         0.1034
      9 I01        92.2160   94.5330  -40.7230 I         1 9GN        -0.0611
     10 S01        91.7320   91.6910  -45.7100 S.3       1 9GN        -0.1096
     11 C07        90.8380   91.9440  -47.2740 C.3       1 9GN         0.0042
     12 C08        90.6470   90.5990  -47.9720 C.3       1 9GN        -0.0451
     13 N01        92.3910   92.1500  -42.8320 N.pl3     1 9GN        -0.2427
     14 O01        91.1890   96.7890  -42.6510 O.3       1 9GN        -0.3333
     15 C09        90.4790   96.8620  -45.4660 C.2       1 9GN         0.0529
     16 O02        90.2350   96.7750  -46.7140 O.co2     1 9GN        -0.5661
     17 O03        90.3630   97.9030  -44.7550 O.co2     1 9GN        -0.5661
     18 C11        92.6630   90.2480  -41.7080 C.2       1 9GN        -0.0844
     19 C12        93.9330   90.8440  -41.8580 C.2       1 9GN        -0.0844
     20 C14        91.9750   89.9530  -48.3290 C.3       1 9GN        -0.0644
     21 H1         90.6615   90.8784  -42.3738 H         1 9GN         0.0809
     22 H2         94.5214   92.7266  -42.8289 H         1 9GN         0.0809
     23 H3         90.8555   94.4014  -46.5280 H         1 9GN         0.0573
     24 H4         91.4181   92.6157  -47.9239 H         1 9GN         0.0398
     25 H5         89.8553   92.3927  -47.0667 H         1 9GN         0.0398
     26 H6         90.0684   90.7558  -48.8943 H         1 9GN         0.0272
     27 H7         90.0928   89.9257  -47.3015 H         1 9GN         0.0272
     28 H8         90.8699   97.4909  -43.2060 H         1 9GN         0.2486
     29 H9         92.4541   89.3072  -41.2009 H         1 9GN         0.0283
     30 H10        94.8817   90.4505  -41.4961 H         1 9GN         0.0283
     31 H11        91.7918   88.9900  -48.8281 H         1 9GN         0.0230
     32 H12        92.5595   89.7856  -47.4123 H         1 9GN         0.0230
     33 H13        92.5351   90.6156  -49.0051 H         1 9GN         0.0230
@<TRIPOS>BOND
     1   13    1 1  
     2    1   18 2  
     3   13    2 1  
     4    2   19 2  
     5    4    3 ar 
     6    3    8 ar 
     7    3   15 1  
     8    5    4 ar 
     9    6    5 ar 
    10    5   10 1  
    11    6    7 ar 
    12    6   13 1  
    13    7    8 ar 
    14    7    9 1  
    15    8   14 1  
    16   10   11 1  
    17   11   12 1  
    18   12   20 1  
    19   15   16 ar 
    20   15   17 ar 
    21   18   19 1  
    22    1   21 1  
    23    2   22 1  
    24    4   23 1  
    25   11   24 1  
    26   11   25 1  
    27   12   26 1  
    28   12   27 1  
    29   14   28 1  
    30   18   29 1  
    31   19   30 1  
    32   20   31 1  
    33   20   32 1  
    34   20   33 1  
@<TRIPOS>SUBSTRUCTURE
     1 9GN         1

