### 
### Created by X-TOOL on Wed Jan  1 15:39:35 2020
### 

@<TRIPOS>MOLECULE
5o1i_ligand
   39    41     1     0     0
SMALL
GAST_HUCK


@<TRIPOS>ATOM
      1 N1         90.2750   93.3590  -46.7560 N.2       1 9GH        -0.3075
      2 N3         90.1430   91.4940  -48.2510 N.pl3     1 9GH        -0.2657
      3 C4         91.5110   92.6050  -43.3940 C.ar      1 9GH         0.1104
      4 C5         91.4840   93.8640  -42.7770 C.ar      1 9GH         0.0633
      5 C6         91.0490   95.0020  -43.4650 C.ar      1 9GH         0.0960
      6 C7         90.4380   92.0830  -47.0500 C.2       1 9GH         0.1868
      7 C8         90.1490   96.1700  -45.5030 C.2       1 9GH         0.0466
      8 C10        93.5670   90.2010  -41.7010 C.2       1 9GH        -0.0842
      9 C13        89.5300   92.2730  -49.3270 C.3       1 9GH         0.0355
     10 C15        91.8290   89.7690  -48.7760 C.3       1 9GH        -0.0435
     11 C1         90.6140   94.9330  -44.8010 C.ar      1 9GH         0.0307
     12 C2         90.6480   93.6670  -45.4510 C.ar      1 9GH         0.0148
     13 C3         91.0990   92.5540  -44.7340 C.ar      1 9GH         0.0810
     14 S          91.0390   91.1570  -45.7290 S.3       1 9GH         0.0234
     15 I          92.0640   94.0910  -40.7350 I         1 9GH        -0.0668
     16 O1         91.0100   96.2140  -42.8190 O.3       1 9GH        -0.3350
     17 O2         90.0260   97.2110  -44.7780 O.co2     1 9GH        -0.5693
     18 O3         89.9520   96.1080  -46.7570 O.co2     1 9GH        -0.5693
     19 N2         92.0190   91.4750  -42.7100 N.pl3     1 9GH        -0.2428
     20 C9         93.3490   91.3910  -42.3460 C.2       1 9GH         0.0286
     21 C11        92.3360   89.5140  -41.6850 C.2       1 9GH        -0.0842
     22 C12        91.4110   90.3090  -42.3200 C.2       1 9GH         0.0286
     23 C14        90.3690   90.0720  -48.4890 C.3       1 9GH         0.0355
     24 C16        88.0220   92.0900  -49.3810 C.3       1 9GH        -0.0435
     25 H1         94.5099   89.8532  -41.2816 H         1 9GH         0.0284
     26 H2         89.9604   91.9513  -50.2868 H         1 9GH         0.0533
     27 H3         89.7520   93.3380  -49.1641 H         1 9GH         0.0533
     28 H4         91.9524   88.6897  -48.9486 H         1 9GH         0.0250
     29 H5         92.4430   90.0754  -47.9163 H         1 9GH         0.0250
     30 H6         92.1493   90.3224  -49.6711 H         1 9GH         0.0250
     31 H7         91.5572   96.8367  -43.2831 H         1 9GH         0.2485
     32 H8         94.1050   92.1503  -42.5407 H         1 9GH         0.0810
     33 H9         92.1514   88.5331  -41.2494 H         1 9GH         0.0284
     34 H10        90.3654   90.0542  -42.4863 H         1 9GH         0.0810
     35 H11        89.7643   89.7557  -49.3517 H         1 9GH         0.0533
     36 H12        90.0580   89.5086  -47.5969 H         1 9GH         0.0533
     37 H13        87.6087   92.6932  -50.2028 H         1 9GH         0.0250
     38 H14        87.5788   92.4156  -48.4284 H         1 9GH         0.0250
     39 H15        87.7872   91.0289  -49.5510 H         1 9GH         0.0250
@<TRIPOS>BOND
     1    6    1 2  
     2   12    1 1  
     3    6    2 1  
     4    2    9 1  
     5    2   23 1  
     6    3    4 ar 
     7    3   13 ar 
     8   19    3 1  
     9    4    5 ar 
    10    4   15 1  
    11    5   11 ar 
    12    5   16 1  
    13   14    6 1  
    14   11    7 1  
    15    7   17 ar 
    16    7   18 ar 
    17   20    8 2  
    18    8   21 1  
    19    9   24 1  
    20   23   10 1  
    21   12   11 ar 
    22   13   12 ar 
    23   13   14 1  
    24   19   20 1  
    25   19   22 1  
    26   21   22 2  
    27    8   25 1  
    28    9   26 1  
    29    9   27 1  
    30   10   28 1  
    31   10   29 1  
    32   10   30 1  
    33   16   31 1  
    34   20   32 1  
    35   21   33 1  
    36   22   34 1  
    37   23   35 1  
    38   23   36 1  
    39   24   37 1  
    40   24   38 1  
    41   24   39 1  
@<TRIPOS>SUBSTRUCTURE
     1 9GH         1

