### 
### Created by X-TOOL on Wed Jan  1 15:39:37 2020
### 

@<TRIPOS>MOLECULE
5o1s_ligand
   20    19     1     0     0
SMALL
GAST_HUCK


@<TRIPOS>ATOM
      1 C10        -4.1340   19.4230  -21.6610 C.3       1 9HB         0.0658
      2 C01        -6.7800   14.5940  -17.5070 C.3       1 9HB         0.0658
      3 O02        -7.4570   15.4180  -18.3800 O.3       1 9HB        -0.2801
      4 C03        -7.2620   16.7770  -18.4210 C.2       1 9HB         0.2358
      5 O04        -6.4340   17.3250  -17.6990 O.2       1 9HB        -0.3702
      6 C05        -7.9900   17.5630  -19.4670 C.3       1 9HB         0.0668
      7 C06        -7.3680   18.8560  -19.8600 C.3       1 9HB         0.0668
      8 C07        -6.0720   18.6700  -20.5540 C.2       1 9HB         0.2358
      9 O08        -5.8520   17.6050  -21.0870 O.2       1 9HB        -0.3702
     10 O09        -5.2380   19.7130  -20.8580 O.3       1 9HB        -0.2801
     11 H1         -3.5511   20.3407  -21.8282 H         1 9HB         0.0577
     12 H2         -4.4777   19.0258  -22.6275 H         1 9HB         0.0577
     13 H3         -3.5030   18.6740  -21.1602 H         1 9HB         0.0577
     14 H4         -7.1024   13.5535  -17.6602 H         1 9HB         0.0577
     15 H5         -6.9988   14.8970  -16.4724 H         1 9HB         0.0577
     16 H6         -5.6985   14.6737  -17.6916 H         1 9HB         0.0577
     17 H7         -8.9994   17.7770  -19.0858 H         1 9HB         0.0544
     18 H8         -8.0635   16.9369  -20.3684 H         1 9HB         0.0544
     19 H9         -7.2009   19.4576  -18.9544 H         1 9HB         0.0544
     20 H10        -8.0559   19.3892  -20.5327 H         1 9HB         0.0544
@<TRIPOS>BOND
     1   10    1 1  
     2    3    2 1  
     3    4    3 1  
     4    4    5 2  
     5    6    4 1  
     6    7    6 1  
     7    8    7 1  
     8    8    9 2  
     9    8   10 1  
    10    1   11 1  
    11    1   12 1  
    12    1   13 1  
    13    2   14 1  
    14    2   15 1  
    15    2   16 1  
    16    6   17 1  
    17    6   18 1  
    18    7   19 1  
    19    7   20 1  
@<TRIPOS>SUBSTRUCTURE
     1 9HB         1

