### 
### Created by X-TOOL on Wed Jan  1 15:39:35 2020
### 

@<TRIPOS>MOLECULE
5o22_ligand
   72    72     1     0     0
SMALL
GAST_HUCK


@<TRIPOS>ATOM
      1 C10       -57.5230    8.7960   -1.0060 C.3       1 C3R        -0.0508
      2 C13       -57.0290    6.5500   -3.3810 C.3       1 C3R        -0.0580
      3 C15       -57.3080    4.3300   -1.4040 C.2       1 C3R        -0.0476
      4 C17       -58.4550    3.7150   -1.7110 C.2       1 C3R        -0.0858
      5 C20       -58.9130    2.2040   -3.6620 C.2       1 C3R         0.1167
      6 C21       -57.8690    2.6470   -4.6560 C.3       1 C3R         0.0587
      7 C22       -58.4750    3.6590   -5.6310 C.3       1 C3R        -0.0438
      8 C26       -56.2640    1.7550   -6.4890 C.3       1 C3R         0.0289
      9 C01       -56.2440   11.7720    1.3550 C.3       1 C3R        -0.0557
     10 C02       -56.3430   10.3580    0.7590 C.3       1 C3R        -0.0273
     11 C03       -56.7890    9.4000    1.8120 C.2       1 C3R        -0.0932
     12 C04       -56.1770    8.2730    2.1660 C.2       1 C3R        -0.0654
     13 C05       -56.5850    7.2780    3.2000 C.3       1 C3R         0.1170
     14 O06       -57.9180    7.4770    3.5940 O.3       1 C3R        -0.3778
     15 C07       -56.4480    5.7920    2.6930 C.3       1 C3R         0.1874
     16 O08       -57.1960    5.0330    3.5990 O.3       1 C3R        -0.3659
     17 C09       -57.2580   10.2420   -0.5040 C.3       1 C3R        -0.0438
     18 C11       -56.2420    8.1540   -1.5900 C.3       1 C3R        -0.0459
     19 C12       -56.3600    6.6510   -2.0050 C.3       1 C3R        -0.0043
     20 C14       -57.2050    5.7920   -1.0060 C.3       1 C3R         0.1158
     21 C16       -56.0090    3.5650   -1.4490 C.3       1 C3R        -0.0369
     22 C18       -58.7120    2.2920   -2.1270 C.3       1 C3R         0.0359
     23 C19       -59.8880    1.7100   -1.3260 C.3       1 C3R        -0.0434
     24 C23       -57.2990    1.4170   -5.4240 C.3       1 C3R         0.0878
     25 O24       -56.6970    0.6370   -4.4070 O.3       1 C3R        -0.3754
     26 C25       -57.3530   -0.5680   -4.0890 C.3       1 C3R         0.0372
     27 C27       -55.6440    0.4960   -7.1180 C.2       1 C3R         0.0374
     28 O28       -56.3600   -0.5240   -7.2260 O.co2     1 C3R        -0.5689
     29 O29       -54.4450    0.5800   -7.4710 O.co2     1 C3R        -0.5689
     30 O30       -59.9720    1.7480   -4.0740 O.2       1 C3R        -0.3896
     31 O31       -56.5130    5.8320    0.2520 O.3       1 C3R        -0.2592
     32 C32       -57.2370    5.6180    1.3910 C.2       1 C3R         0.2695
     33 O33       -58.4110    5.3110    1.3630 O.2       1 C3R        -0.3670
     34 H1        -58.2963    8.8252   -1.7878 H         1 C3R         0.0267
     35 H2        -57.8768    8.1843   -0.1630 H         1 C3R         0.0267
     36 H3        -56.4590    7.1443   -4.1103 H         1 C3R         0.0235
     37 H4        -58.0574    6.9352   -3.3179 H         1 C3R         0.0235
     38 H5        -57.0505    5.4981   -3.7020 H         1 C3R         0.0235
     39 H6        -59.3428    4.3428   -1.6504 H         1 C3R         0.0266
     40 H7        -57.0458    3.1324   -4.1113 H         1 C3R         0.0554
     41 H8        -58.8708    4.5178   -5.0691 H         1 C3R         0.0258
     42 H9        -59.2906    3.1823   -6.1945 H         1 C3R         0.0258
     43 H10       -57.6993    4.0044   -6.3302 H         1 C3R         0.0258
     44 H11       -55.4631    2.3514   -6.0278 H         1 C3R         0.0457
     45 H12       -56.7500    2.3438   -7.2809 H         1 C3R         0.0457
     46 H13       -55.5830   11.7539    2.2340 H         1 C3R         0.0252
     47 H14       -57.2452   12.1139    1.6561 H         1 C3R         0.0252
     48 H15       -55.8330   12.4597    0.6013 H         1 C3R         0.0252
     49 H16       -55.3288   10.0687    0.4463 H         1 C3R         0.0421
     50 H17       -57.7065    9.6478    2.3437 H         1 C3R         0.0453
     51 H18       -55.2564    8.0469    1.6300 H         1 C3R         0.0478
     52 H19       -55.9319    7.4113    4.0750 H         1 C3R         0.0771
     53 H20       -58.1524    6.8323    4.2512 H         1 C3R         0.2130
     54 H21       -55.3987    5.4741    2.6040 H         1 C3R         0.0902
     55 H22       -56.8382    5.1413    4.4724 H         1 C3R         0.2138
     56 H23       -58.2284   10.7005   -0.2629 H         1 C3R         0.0287
     57 H24       -56.7805   10.8025   -1.3212 H         1 C3R         0.0287
     58 H25       -55.4494    8.2330   -0.8314 H         1 C3R         0.0270
     59 H26       -55.9538    8.7285   -2.4827 H         1 C3R         0.0270
     60 H27       -55.3457    6.2288   -2.0598 H         1 C3R         0.0348
     61 H28       -58.2141    6.2200   -0.9135 H         1 C3R         0.0803
     62 H29       -56.2063    2.5247   -1.7472 H         1 C3R         0.0379
     63 H30       -55.5408    3.5786   -0.4537 H         1 C3R         0.0379
     64 H31       -55.3326    4.0336   -2.1790 H         1 C3R         0.0379
     65 H32       -57.8193    1.6993   -1.8785 H         1 C3R         0.0597
     66 H33       -59.6808    1.8042   -0.2498 H         1 C3R         0.0271
     67 H34       -60.0170    0.6483   -1.5830 H         1 C3R         0.0271
     68 H35       -60.8076    2.2611   -1.5719 H         1 C3R         0.0271
     69 H36       -58.1225    0.8651   -5.9008 H         1 C3R         0.0643
     70 H37       -56.8003   -1.0871   -3.2921 H         1 C3R         0.0524
     71 H38       -57.3965   -1.2086   -4.9821 H         1 C3R         0.0524
     72 H39       -58.3745   -0.3495   -3.7443 H         1 C3R         0.0524
@<TRIPOS>BOND
     1    1   17 1  
     2   18    1 1  
     3   19    2 1  
     4    3    4 2  
     5   20    3 1  
     6    3   21 1  
     7    4   22 1  
     8    5    6 1  
     9   22    5 1  
    10    5   30 2  
    11    6    7 1  
    12    6   24 1  
    13   24    8 1  
    14    8   27 1  
    15   10    9 1  
    16   10   11 1  
    17   17   10 1  
    18   11   12 2  
    19   12   13 1  
    20   13   14 1  
    21   13   15 1  
    22   15   16 1  
    23   15   32 1  
    24   19   18 1  
    25   19   20 1  
    26   20   31 1  
    27   22   23 1  
    28   24   25 1  
    29   25   26 1  
    30   27   28 ar 
    31   27   29 ar 
    32   31   32 1  
    33   32   33 2  
    34    1   34 1  
    35    1   35 1  
    36    2   36 1  
    37    2   37 1  
    38    2   38 1  
    39    4   39 1  
    40    6   40 1  
    41    7   41 1  
    42    7   42 1  
    43    7   43 1  
    44    8   44 1  
    45    8   45 1  
    46    9   46 1  
    47    9   47 1  
    48    9   48 1  
    49   10   49 1  
    50   11   50 1  
    51   12   51 1  
    52   13   52 1  
    53   14   53 1  
    54   15   54 1  
    55   16   55 1  
    56   17   56 1  
    57   17   57 1  
    58   18   58 1  
    59   18   59 1  
    60   19   60 1  
    61   20   61 1  
    62   21   62 1  
    63   21   63 1  
    64   21   64 1  
    65   22   65 1  
    66   23   66 1  
    67   23   67 1  
    68   23   68 1  
    69   24   69 1  
    70   26   70 1  
    71   26   71 1  
    72   26   72 1  
@<TRIPOS>SUBSTRUCTURE
     1 C3R         1

