### 
### Created by X-TOOL on Mon Sep 10 21:13:30 2018
### 

@<TRIPOS>MOLECULE
5o2d_ligand
   40    43     1     0     0
SMALL
GAST_HUCK


@<TRIPOS>ATOM
      1 OAX        24.2510  -19.9860  -21.7470 O.2       1 9HH        -0.1498
      2 SAB        23.8640  -18.6670  -21.3580 S.o2      1 9HH         0.0583
      3 OAW        24.5820  -18.0240  -20.3070 O.2       1 9HH        -0.1498
      4 CAA        23.9440  -17.6550  -22.7740 C.3       1 9HH         0.0791
      5 NAC        22.3030  -18.7000  -20.9340 N.am      1 9HH        -0.1891
      6 CAD        21.7010  -19.8850  -20.4340 C.ar      1 9HH         0.0715
      7 CAI        21.1180  -20.8070  -21.3170 C.ar      1 9HH        -0.0029
      8 CAH        20.6500  -22.0250  -20.8040 C.ar      1 9HH        -0.0710
      9 CAG        20.7590  -22.2980  -19.4510 C.ar      1 9HH        -0.0795
     10 CAF        21.3190  -21.3740  -18.5940 C.ar      1 9HH        -0.0785
     11 CAE        21.8010  -20.1760  -19.0740 C.ar      1 9HH        -0.0447
     12 CAJ        21.0360  -20.5720  -22.7870 C.ar      1 9HH        -0.0023
     13 CAK        20.3600  -19.4550  -23.2840 C.ar      1 9HH        -0.0685
     14 CAL        20.2310  -19.2700  -24.6530 C.ar      1 9HH        -0.0767
     15 CAM        20.7660  -20.1870  -25.5510 C.ar      1 9HH        -0.0698
     16 CAN        21.4570  -21.3050  -25.0850 C.ar      1 9HH        -0.0043
     17 CAV        21.5890  -21.4850  -23.7000 C.ar      1 9HH         0.0720
     18 CAO        22.1300  -22.4270  -25.7050 C.ar      1 9HH        -0.0036
     19 CAT        22.6460  -23.2110  -24.6560 C.ar      1 9HH         0.0662
     20 NAU        22.2980  -22.6420  -23.4520 N.pl3     1 9HH        -0.2737
     21 CAP        22.3940  -22.8050  -27.0210 C.ar      1 9HH        -0.0677
     22 CAQ        23.1780  -23.9200  -27.2640 C.ar      1 9HH        -0.0746
     23 CAR        23.6980  -24.6750  -26.2160 C.ar      1 9HH        -0.0728
     24 CAS        23.4250  -24.3410  -24.9030 C.ar      1 9HH        -0.0399
     25 H1         23.3951  -18.1338  -23.5983 H         1 9HH         0.0488
     26 H2         24.9953  -17.5153  -23.0660 H         1 9HH         0.0488
     27 H3         23.4920  -16.6771  -22.5518 H         1 9HH         0.0488
     28 H4         21.7519  -17.8706  -21.0257 H         1 9HH         0.2183
     29 H5         20.2017  -22.7549  -21.4684 H         1 9HH         0.0563
     30 H6         20.4016  -23.2448  -19.0626 H         1 9HH         0.0473
     31 H7         21.3804  -21.5921  -17.5339 H         1 9HH         0.0565
     32 H8         22.2563  -19.4623  -18.3970 H         1 9HH         0.0478
     33 H9         19.9351  -18.7309  -22.5983 H         1 9HH         0.0549
     34 H10        19.7060  -18.3987  -25.0276 H         1 9HH         0.0515
     35 H11        20.6455  -20.0322  -26.6171 H         1 9HH         0.0558
     36 H12        22.5286  -23.0175  -22.5210 H         1 9HH         0.2169
     37 H13        21.9890  -22.2309  -27.8465 H         1 9HH         0.0577
     38 H14        23.3904  -24.2099  -28.2867 H         1 9HH         0.0518
     39 H15        24.3234  -25.5336  -26.4322 H         1 9HH         0.0570
     40 H16        23.8068  -24.9422  -24.0858 H         1 9HH         0.0541
@<TRIPOS>BOND
     1    1    2 2  
     2    2    3 2  
     3    2    4 1  
     4    2    5 am 
     5    5    6 1  
     6    6    7 ar 
     7    6   11 ar 
     8    7    8 ar 
     9    7   12 1  
    10    8    9 ar 
    11    9   10 ar 
    12   10   11 ar 
    13   12   13 ar 
    14   12   17 ar 
    15   13   14 ar 
    16   14   15 ar 
    17   15   16 ar 
    18   16   17 ar 
    19   16   18 1  
    20   17   20 1  
    21   18   19 ar 
    22   18   21 ar 
    23   19   20 1  
    24   19   24 ar 
    25   21   22 ar 
    26   22   23 ar 
    27   23   24 ar 
    28    4   25 1  
    29    4   26 1  
    30    4   27 1  
    31    5   28 1  
    32    8   29 1  
    33    9   30 1  
    34   10   31 1  
    35   11   32 1  
    36   13   33 1  
    37   14   34 1  
    38   15   35 1  
    39   20   36 1  
    40   21   37 1  
    41   22   38 1  
    42   23   39 1  
    43   24   40 1  
@<TRIPOS>SUBSTRUCTURE
     1 9HH         1

