### 
### Created by X-TOOL on Wed Jan  1 15:39:35 2020
### 

@<TRIPOS>MOLECULE
5o48_ligand
   40    42     1     0     0
SMALL
GAST_HUCK


@<TRIPOS>ATOM
      1 N1         29.5420   43.2930   65.9360 N.2       1 9K2        -0.2133
      2 C2         27.9090   42.5690   67.7850 C.3       1 9K2         0.0102
      3 C3         28.3050   42.9830   66.3510 C.2       1 9K2         0.0787
      4 C6         26.5610   43.3020   62.5830 C.ar      1 9K2        -0.0644
      5 C8         26.1560   42.7120   64.9200 C.ar      1 9K2        -0.0576
      6 C9         27.5280   43.0370   65.1470 C.ar      1 9K2         0.0195
      7 C10        24.2500   42.5770   63.3080 C.ar      1 9K2        -0.0256
      8 C11        23.9210   41.2820   63.7830 C.ar      1 9K2        -0.0639
      9 C12        22.6170   40.7240   63.6270 C.ar      1 9K2        -0.0354
     10 C13        21.6300   41.4780   62.9720 C.ar      1 9K2         0.1253
     11 C16        23.4900   44.7040   62.1620 C.3       1 9K2        -0.0313
     12 F          20.3690   41.0010   62.7580 F         1 9K2        -0.1856
     13 C14        21.9700   42.7500   62.5090 C.ar      1 9K2        -0.0271
     14 C15        23.2430   43.3050   62.7010 C.ar      1 9K2        -0.0407
     15 C7         25.6230   42.9610   63.5860 C.ar      1 9K2        -0.0336
     16 C5         27.8440   43.5970   62.8090 C.ar      1 9K2        -0.0362
     17 C4         28.3430   43.4220   64.1380 C.ar      1 9K2         0.0837
     18 N2         29.5980   43.5730   64.6270 N.pl3     1 9K2        -0.2239
     19 N          28.2040   41.1330   67.8490 N.4       1 9K2         0.2426
     20 C1         29.5570   40.6290   68.1660 C.3       1 9K2        -0.0420
     21 C          27.3730   40.1400   67.1620 C.3       1 9K2        -0.0420
     22 H1         26.8391   42.7541   67.9614 H         1 9K2         0.0976
     23 H2         28.5040   43.1213   68.5272 H         1 9K2         0.0976
     24 H3         26.2131   43.3255   61.5566 H         1 9K2         0.0578
     25 H4         25.5365   42.2973   65.7070 H         1 9K2         0.0590
     26 H5         24.6854   40.6966   64.2811 H         1 9K2         0.0584
     27 H6         22.3920   39.7344   64.0079 H         1 9K2         0.0547
     28 H7         22.5610   45.0972   61.7234 H         1 9K2         0.0393
     29 H8         24.2728   44.6667   61.3901 H         1 9K2         0.0393
     30 H9         23.8149   45.3609   62.9823 H         1 9K2         0.0393
     31 H10        21.2219   43.3304   61.9813 H         1 9K2         0.0540
     32 H11        28.4851   43.9568   62.0124 H         1 9K2         0.0557
     33 H12        30.4348   43.8500   64.0942 H         1 9K2         0.2393
     34 H13        27.8100   41.0023   68.7676 H         1 9K2         0.2041
     35 H14        29.5492   39.5290   68.1599 H         1 9K2         0.0778
     36 H15        29.8582   40.9880   69.1612 H         1 9K2         0.0778
     37 H16        30.2704   40.9948   67.4128 H         1 9K2         0.0778
     38 H17        26.3828   40.5715   66.9537 H         1 9K2         0.0778
     39 H18        27.2589   39.2520   67.8011 H         1 9K2         0.0778
     40 H19        27.8536   39.8513   66.2156 H         1 9K2         0.0778
@<TRIPOS>BOND
     1    3    1 2  
     2    1   18 1  
     3    3    2 1  
     4    2   19 1  
     5    6    3 1  
     6   15    4 ar 
     7    4   16 ar 
     8    5    6 ar 
     9   15    5 ar 
    10    6   17 ar 
    11    7    8 ar 
    12    7   14 ar 
    13    7   15 1  
    14    8    9 ar 
    15    9   10 ar 
    16   10   12 1  
    17   10   13 ar 
    18   14   11 1  
    19   13   14 ar 
    20   16   17 ar 
    21   17   18 1  
    22   19   20 1  
    23   19   21 1  
    24    2   22 1  
    25    2   23 1  
    26    4   24 1  
    27    5   25 1  
    28    8   26 1  
    29    9   27 1  
    30   11   28 1  
    31   11   29 1  
    32   11   30 1  
    33   13   31 1  
    34   16   32 1  
    35   18   33 1  
    36   19   34 1  
    37   20   35 1  
    38   20   36 1  
    39   20   37 1  
    40   21   38 1  
    41   21   39 1  
    42   21   40 1  
@<TRIPOS>SUBSTRUCTURE
     1 9K2         1

