### 
### Created by X-TOOL on Mon Sep 10 21:13:32 2018
### 

@<TRIPOS>MOLECULE
5o4f_ligand
   25    26     1     0     0
SMALL
GAST_HUCK


@<TRIPOS>ATOM
      1 N1         15.6270   69.6050   23.5460 N.pl3     1 8VE        -0.2529
      2 N3         17.6690   68.4090   21.3060 N.4       1 8VE         0.2445
      3 C4         16.4720   67.4820   23.1920 C.3       1 8VE         0.0936
      4 C5         17.5760   67.1280   22.1560 C.3       1 8VE         0.0461
      5 C6         15.2150   70.9820   23.3080 C.3       1 8VE         0.0273
      6 C7         17.7010   67.3430   25.5590 C.2       1 8VE         0.0777
      7 C8         17.3630   65.9130   21.2040 C.2       1 8VE         0.0871
      8 C1         16.8460   68.0990   24.5540 C.2       1 8VE         0.0871
      9 N2         16.3600   69.2820   24.6850 N.2       1 8VE        -0.2155
     10 C2         16.2410   68.9480   21.2000 C.3       1 8VE        -0.0054
     11 C3         15.6010   68.5570   22.5540 C.3       1 8VE         0.1084
     12 O1         18.0920   67.9560   26.5830 O.co2     1 8VE        -0.5590
     13 O2         17.5180   66.0460   19.9630 O.co2     1 8VE        -0.5641
     14 O3         17.9690   66.1400   25.3270 O.co2     1 8VE        -0.5590
     15 O4         17.0390   64.8190   21.7170 O.co2     1 8VE        -0.5641
     16 H1         18.0321   68.1962   20.3901 H         1 8VE         0.2033
     17 H2         18.2663   69.0852   21.7555 H         1 8VE         0.2033
     18 H3         15.8920   66.5665   23.3801 H         1 8VE         0.0576
     19 H4         18.5172   66.9557   22.6987 H         1 8VE         0.1054
     20 H5         14.6503   71.0381   22.3657 H         1 8VE         0.0489
     21 H6         16.1052   71.6247   23.2408 H         1 8VE         0.0489
     22 H7         14.5784   71.3229   24.1377 H         1 8VE         0.0489
     23 H8         15.7052   68.4777   20.3623 H         1 8VE         0.0839
     24 H9         16.2425   70.0400   21.0675 H         1 8VE         0.0839
     25 H10        14.5717   68.2068   22.3871 H         1 8VE         0.0644
@<TRIPOS>BOND
     1    1    5 1  
     2    1    9 1  
     3   11    1 1  
     4    4    2 1  
     5    2   10 1  
     6    3    4 1  
     7    3    8 1  
     8    3   11 1  
     9    4    7 1  
    10    8    6 1  
    11    6   12 ar 
    12    6   14 ar 
    13    7   13 ar 
    14    7   15 ar 
    15    8    9 2  
    16   10   11 1  
    17    2   16 1  
    18    2   17 1  
    19    3   18 1  
    20    4   19 1  
    21    5   20 1  
    22    5   21 1  
    23    5   22 1  
    24   10   23 1  
    25   10   24 1  
    26   11   25 1  
@<TRIPOS>SUBSTRUCTURE
     1 8VE         1

