### 
### Created by X-TOOL on Wed Jan  1 15:39:36 2020
### 

@<TRIPOS>MOLECULE
5o4s_ligand
   62    66     1     0     0
SMALL
GAST_HUCK


@<TRIPOS>ATOM
      1 C4         20.5800   -0.4870    9.0970 C.ar      1 9KW         0.0684
      2 C14        26.5020    2.2310    9.5030 C.ar      1 9KW        -0.0650
      3 C5         21.3510   -0.0810    8.0160 C.ar      1 9KW        -0.0470
      4 C6         22.6770   -0.4790    7.8850 C.ar      1 9KW         0.0332
      5 C11        23.2390   -1.3210    8.8500 C.ar      1 9KW         0.0556
      6 C7         23.8120    1.3930    6.8980 C.3       1 9KW         0.0446
      7 C8         24.7410    1.7630    5.7730 C.3       1 9KW         0.0664
      8 C9         23.8970    0.0770    4.4200 C.3       1 9KW         0.0664
      9 C10        22.9410   -0.3720    5.4960 C.3       1 9KW         0.0446
     10 C12        25.9250    0.0440   10.2530 C.ar      1 9KW         0.0994
     11 C13        26.3400    0.8850    9.2380 C.ar      1 9KW        -0.0485
     12 N1         19.2390   -0.0760    9.2270 N.am      1 9KW        -0.2268
     13 N2         23.4740   -0.0290    6.8160 N.pl3     1 9KW        -0.3206
     14 C3         18.6560    0.8240    8.2350 C.3       1 9KW         0.0403
     15 N3         24.5800   -1.7690    8.7190 N.am      1 9KW        -0.2036
     16 N          20.3670   -1.7330   11.1770 N.am      1 9KW        -0.2255
     17 C          20.9740   -2.5140   12.2510 C.3       1 9KW         0.0409
     18 O          18.3470   -1.7850   12.2460 O.2       1 9KW        -0.3540
     19 C1         19.0430   -1.3820   11.3230 C.2       1 9KW         0.3095
     20 C15        26.2610    2.7560   10.7710 C.ar      1 9KW        -0.0409
     21 C16        26.3540    4.2440   10.9990 C.3       1 9KW        -0.0215
     22 C17        26.4360    4.6140   12.4640 C.3       1 9KW        -0.0426
     23 C18        25.3530    3.8840   13.2370 C.3       1 9KW        -0.0426
     24 C19        25.6510    2.4000   13.2080 C.3       1 9KW        -0.0214
     25 C2         18.4340   -0.4770   10.2670 C.2       1 9KW         0.3089
     26 C20        25.8690    1.8890   11.8060 C.ar      1 9KW        -0.0392
     27 C21        25.6970    0.5350   11.5270 C.ar      1 9KW        -0.0399
     28 C22        22.4710   -1.7310    9.9360 C.ar      1 9KW        -0.0447
     29 C23        21.1490   -1.3230   10.0790 C.ar      1 9KW         0.0682
     30 O1         17.2580   -0.1430   10.3600 O.2       1 9KW        -0.3545
     31 O2         24.1660    1.4690    4.5080 O.3       1 9KW        -0.3760
     32 O3         26.8830   -2.1960    9.3780 O.2       1 9KW        -0.1466
     33 O4         25.1130   -2.2620   11.1040 O.2       1 9KW        -0.1466
     34 S          25.6740   -1.6670    9.9300 S.o2      1 9KW         0.0801
     35 H1         26.8236    2.8932    8.7073 H         1 9KW         0.0538
     36 H2         20.9108    0.5586    7.2595 H         1 9KW         0.0323
     37 H3         22.8922    1.9916    6.8237 H         1 9KW         0.0525
     38 H4         24.3049    1.5961    7.8602 H         1 9KW         0.0525
     39 H5         25.6774    1.1960    5.8809 H         1 9KW         0.0579
     40 H6         24.9565    2.8404    5.8264 H         1 9KW         0.0579
     41 H7         23.4549   -0.1397    3.4364 H         1 9KW         0.0579
     42 H8         24.8414   -0.4767    4.5276 H         1 9KW         0.0579
     43 H9         22.8046   -1.4615    5.4304 H         1 9KW         0.0525
     44 H10        21.9717    0.1281    5.3536 H         1 9KW         0.0525
     45 H11        26.5359    0.4934    8.2464 H         1 9KW         0.0561
     46 H12        19.4076    1.0597    7.4672 H         1 9KW         0.0543
     47 H13        18.3317    1.7524    8.7279 H         1 9KW         0.0543
     48 H14        17.7897    0.3376    7.7628 H         1 9KW         0.0543
     49 H15        24.8683   -2.1646    7.8470 H         1 9KW         0.2063
     50 H16        20.2149   -2.7395   13.0145 H         1 9KW         0.0544
     51 H17        21.7922   -1.9370   12.7067 H         1 9KW         0.0544
     52 H18        21.3721   -3.4539   11.8410 H         1 9KW         0.0544
     53 H19        25.4623    4.7213   10.5664 H         1 9KW         0.0411
     54 H20        27.2543    4.6208   10.4915 H         1 9KW         0.0411
     55 H21        26.2964    5.6994   12.5755 H         1 9KW         0.0287
     56 H22        27.4223    4.3287   12.8586 H         1 9KW         0.0287
     57 H23        24.3745    4.0740   12.7719 H         1 9KW         0.0287
     58 H24        25.3390    4.2382   14.2783 H         1 9KW         0.0287
     59 H25        24.8028    1.8598   13.6538 H         1 9KW         0.0411
     60 H26        26.5587    2.2095   13.7994 H         1 9KW         0.0411
     61 H27        25.3819   -0.1400   12.3145 H         1 9KW         0.0557
     62 H28        22.9113   -2.3802   10.6841 H         1 9KW         0.0296
@<TRIPOS>BOND
     1    1    3 ar 
     2    1   12 1  
     3   29    1 ar 
     4   11    2 ar 
     5    2   20 ar 
     6    3    4 ar 
     7    4    5 ar 
     8    4   13 1  
     9    5   15 1  
    10    5   28 ar 
    11    6    7 1  
    12   13    6 1  
    13    7   31 1  
    14    9    8 1  
    15    8   31 1  
    16   13    9 1  
    17   10   11 ar 
    18   10   27 ar 
    19   34   10 1  
    20   12   14 1  
    21   12   25 am 
    22   15   34 am 
    23   16   17 1  
    24   16   19 am 
    25   16   29 1  
    26   19   18 2  
    27   19   25 1  
    28   20   21 1  
    29   20   26 ar 
    30   21   22 1  
    31   22   23 1  
    32   23   24 1  
    33   24   26 1  
    34   25   30 2  
    35   26   27 ar 
    36   28   29 ar 
    37   34   32 2  
    38   34   33 2  
    39    2   35 1  
    40    3   36 1  
    41    6   37 1  
    42    6   38 1  
    43    7   39 1  
    44    7   40 1  
    45    8   41 1  
    46    8   42 1  
    47    9   43 1  
    48    9   44 1  
    49   11   45 1  
    50   14   46 1  
    51   14   47 1  
    52   14   48 1  
    53   15   49 1  
    54   17   50 1  
    55   17   51 1  
    56   17   52 1  
    57   21   53 1  
    58   21   54 1  
    59   22   55 1  
    60   22   56 1  
    61   23   57 1  
    62   23   58 1  
    63   24   59 1  
    64   24   60 1  
    65   27   61 1  
    66   28   62 1  
@<TRIPOS>SUBSTRUCTURE
     1 9KW         1

