### 
### Created by X-TOOL on Wed Jan  1 15:39:36 2020
### 

@<TRIPOS>MOLECULE
5o4t_ligand
   24    25     1     0     0
SMALL
GAST_HUCK


@<TRIPOS>ATOM
      1 C2          7.0380  -11.1340    4.8120 C.ar      1 9KT         0.0955
      2 C3          6.5130  -10.3980    5.8710 C.ar      1 9KT        -0.0523
      3 C4          7.3190  -10.0700    6.9600 C.ar      1 9KT        -0.0902
      4 C5          8.6480  -10.4820    6.9850 C.ar      1 9KT        -0.0902
      5 C6          9.1720  -11.2170    5.9270 C.ar      1 9KT        -0.0523
      6 C7          8.3650  -11.5460    4.8410 C.ar      1 9KT         0.0955
      7 C10        10.2730  -12.6930    3.8220 C.3       1 9KT         0.0436
      8 C1          4.8440  -11.0110    3.7440 C.3       1 9KT         0.0436
      9 C8          8.0770  -12.5600    2.7700 C.2       1 9KT         0.3142
     10 C9          6.7550  -12.1570    2.7410 C.2       1 9KT         0.3142
     11 N1          6.2580  -11.4500    3.7640 N.am      1 9KT        -0.2149
     12 N2          8.8590  -12.2500    3.8160 N.am      1 9KT        -0.2149
     13 O1          8.5370  -13.2080    1.8370 O.2       1 9KT        -0.3517
     14 O2          6.0450  -12.4530    1.7800 O.2       1 9KT        -0.3517
     15 H1          5.4770  -10.0799    5.8486 H         1 9KT         0.0456
     16 H2          6.9120   -9.4960    7.7845 H         1 9KT         0.0454
     17 H3          9.2764  -10.2294    7.8313 H         1 9KT         0.0454
     18 H4         10.2085  -11.5337    5.9478 H         1 9KT         0.0456
     19 H5         10.7596  -12.3535    4.7483 H         1 9KT         0.0549
     20 H6         10.7956  -12.2634    2.9546 H         1 9KT         0.0549
     21 H7         10.3135  -13.7909    3.7677 H         1 9KT         0.0549
     22 H8          4.6220  -10.4476    4.6623 H         1 9KT         0.0549
     23 H9          4.1874  -11.8916    3.6864 H         1 9KT         0.0549
     24 H10         4.6722  -10.3675    2.8686 H         1 9KT         0.0549
@<TRIPOS>BOND
     1    1    2 ar 
     2    6    1 ar 
     3    1   11 1  
     4    2    3 ar 
     5    4    3 ar 
     6    5    4 ar 
     7    6    5 ar 
     8   12    6 1  
     9   12    7 1  
    10   11    8 1  
    11    9   10 1  
    12    9   12 am 
    13    9   13 2  
    14   10   11 am 
    15   10   14 2  
    16    2   15 1  
    17    3   16 1  
    18    4   17 1  
    19    5   18 1  
    20    7   19 1  
    21    7   20 1  
    22    7   21 1  
    23    8   22 1  
    24    8   23 1  
    25    8   24 1  
@<TRIPOS>SUBSTRUCTURE
     1 9KT         1

