### 
### Created by X-TOOL on Wed Jan  1 15:39:36 2020
### 

@<TRIPOS>MOLECULE
5o55_ligand
   49    51     1     0     0
SMALL
GAST_HUCK


@<TRIPOS>ATOM
      1 CAA        10.9860  -12.2640    2.3630 C.3       1 9L5        -0.0393
      2 CAB         5.6890  -10.8410    2.8950 C.2       1 9L5        -0.0836
      3 CAC        10.7890  -11.5160   11.7170 C.3       1 9L5        -0.0075
      4 CAD        10.9780   -7.1950   10.0590 C.3       1 9L5        -0.0390
      5 CAE         8.7060  -11.1860   13.9860 C.3       1 9L5         0.0561
      6 CAH        10.5040  -11.1400    6.9190 C.ar      1 9L5        -0.0667
      7 CAI        10.3250  -11.7770    5.6860 C.ar      1 9L5        -0.0422
      8 CAJ         9.3970   -8.2050   12.1630 C.2       1 9L5        -0.0140
      9 CAK         8.3580  -10.0890    6.6710 C.ar      1 9L5        -0.0311
     10 CAL         9.9790  -13.0620    3.1900 C.3       1 9L5         0.0529
     11 CAP         9.6030   -9.6110    8.6230 C.2       1 9L5         0.1921
     12 CAQ         9.5100  -10.2970    7.4130 C.ar      1 9L5         0.0242
     13 CAR         6.8630  -11.0860    3.5840 C.2       1 9L5         0.1255
     14 CAS        10.0600  -10.2290   12.1070 C.2       1 9L5         0.0639
     15 CAT        10.2010   -9.0500   11.5300 C.2       1 9L5        -0.0101
     16 CAU         7.8260  -11.9410    3.0540 C.2       1 9L5         0.2600
     17 CAV         8.1840  -10.7160    5.4470 C.ar      1 9L5         0.0923
     18 CAW         9.1600  -11.5690    4.9420 C.ar      1 9L5         0.1024
     19 CAX        11.1270   -8.6910   10.3570 C.3       1 9L5         0.0536
     20 NAM         8.7790   -8.9120   13.1150 N.2       1 9L5        -0.2373
     21 NAN         7.0570  -10.4940    4.7650 N.pl3     1 9L5        -0.2700
     22 NAO        10.8370   -9.4560    9.1240 N.am      1 9L5        -0.2820
     23 NAY         9.1670  -10.1060   13.0850 N.pl3     1 9L5        -0.2168
     24 NAZ         8.9590  -12.1620    3.7490 N.am      1 9L5        -0.2145
     25 OAF         8.5910   -9.1260    9.1220 O.2       1 9L5        -0.3918
     26 OAG         7.6520  -12.4920    1.9650 O.2       1 9L5        -0.3697
     27 H1         11.7437  -12.9461    1.9500 H         1 9L5         0.0254
     28 H2         11.4762  -11.5163    3.0038 H         1 9L5         0.0254
     29 H3         10.4631  -11.7551    1.5398 H         1 9L5         0.0254
     30 H4          4.9404  -10.1712    3.3156 H         1 9L5         0.0239
     31 H5          5.5132  -11.3179    1.9319 H         1 9L5         0.0239
     32 H6         11.4657  -11.3130   10.8739 H         1 9L5         0.0413
     33 H7         10.0536  -12.2788   11.4214 H         1 9L5         0.0413
     34 H8         11.3719  -11.8817   12.5752 H         1 9L5         0.0413
     35 H9         11.6352   -6.9210    9.2205 H         1 9L5         0.0263
     36 H10        11.2586   -6.6139   10.9498 H         1 9L5         0.0263
     37 H11         9.9334   -6.9764    9.7927 H         1 9L5         0.0263
     38 H12         7.9656  -10.7829   14.6926 H         1 9L5         0.0592
     39 H13         9.5639  -11.5891   14.5442 H         1 9L5         0.0592
     40 H14         8.2459  -11.9886   13.3909 H         1 9L5         0.0592
     41 H15        11.4125  -11.3016    7.4879 H         1 9L5         0.0536
     42 H16        11.0958  -12.4370    5.3048 H         1 9L5         0.0482
     43 H17         9.2663   -7.1452   11.9493 H         1 9L5         0.0595
     44 H18         7.5860   -9.4299    7.0513 H         1 9L5         0.0532
     45 H19        10.5046  -13.5710    4.0113 H         1 9L5         0.0586
     46 H20         9.4916  -13.8099    2.5473 H         1 9L5         0.0586
     47 H21        12.1643   -8.9001   10.6574 H         1 9L5         0.0616
     48 H22         6.3374   -9.8659    5.1504 H         1 9L5         0.2092
     49 H23        11.6018   -9.8798    8.6387 H         1 9L5         0.1857
@<TRIPOS>BOND
     1   10    1 1  
     2   13    2 2  
     3   14    3 1  
     4   19    4 1  
     5   23    5 1  
     6    6    7 ar 
     7   12    6 ar 
     8    7   18 ar 
     9   15    8 1  
    10    8   20 2  
    11   12    9 ar 
    12    9   17 ar 
    13   24   10 1  
    14   11   12 1  
    15   22   11 am 
    16   11   25 2  
    17   13   16 1  
    18   21   13 1  
    19   15   14 2  
    20   14   23 1  
    21   19   15 1  
    22   24   16 am 
    23   16   26 2  
    24   17   18 ar 
    25   17   21 1  
    26   18   24 1  
    27   19   22 1  
    28   20   23 1  
    29    1   27 1  
    30    1   28 1  
    31    1   29 1  
    32    2   30 1  
    33    2   31 1  
    34    3   32 1  
    35    3   33 1  
    36    3   34 1  
    37    4   35 1  
    38    4   36 1  
    39    4   37 1  
    40    5   38 1  
    41    5   39 1  
    42    5   40 1  
    43    6   41 1  
    44    7   42 1  
    45    8   43 1  
    46    9   44 1  
    47   10   45 1  
    48   10   46 1  
    49   19   47 1  
    50   21   48 1  
    51   22   49 1  
@<TRIPOS>SUBSTRUCTURE
     1 9L5         1

