### 
### Created by X-TOOL on Wed Jan  1 15:39:36 2020
### 

@<TRIPOS>MOLECULE
5o5a_ligand
   51    54     1     0     0
SMALL
GAST_HUCK


@<TRIPOS>ATOM
      1 CAA         6.1420   -9.5590    3.0750 C.3       1 9LN        -0.0393
      2 CAB        10.7720  -13.4260    8.7360 C.3       1 9LN         0.0231
      3 CAF         7.5980   -8.7100   15.5950 C.ar      1 9LN        -0.0686
      4 CAG         8.3310   -8.1560   14.5520 C.ar      1 9LN        -0.0657
      5 CAH         7.5970  -10.0860   15.7960 C.ar      1 9LN        -0.0657
      6 CAI         9.0640   -8.9800   13.7090 C.ar      1 9LN        -0.0255
      7 CAJ         8.3300  -10.9110   14.9530 C.ar      1 9LN        -0.0255
      8 CAK         8.5850  -10.4900    7.0910 C.ar      1 9LN        -0.0698
      9 CAL         7.7690  -10.6490    5.9570 C.ar      1 9LN        -0.0455
     10 CAM        10.6690  -12.8340   12.2240 C.2       1 9LN         0.0012
     11 CAN        10.2520  -11.8680    6.0950 C.ar      1 9LN        -0.0330
     12 CAO        10.4590  -10.6980   12.0550 C.2       1 9LN         0.0632
     13 CAP         6.1040  -10.9790    3.6350 C.3       1 9LN         0.0532
     14 CAQ        11.9110  -11.7700   10.2790 C.3       1 9LN         0.0530
     15 CAT        10.6400  -10.9400    8.3430 C.2       1 9LN         0.1936
     16 CAU        11.0160  -11.7700   11.5180 C.2       1 9LN        -0.0077
     17 CAV         9.8340  -11.1210    7.1890 C.ar      1 9LN         0.0211
     18 CAW         9.0620  -10.3550   13.9110 C.ar      1 9LN         0.1091
     19 CAX         9.1500  -12.9960    2.8020 C.2       1 9LN         0.3125
     20 CAY         7.9070  -12.3750    2.7360 C.2       1 9LN         0.3162
     21 CAZ         9.4460  -12.0450    4.9740 C.ar      1 9LN         0.0989
     22 CBA         8.2000  -11.4330    4.8800 C.ar      1 9LN         0.1015
     23 NAR         9.8870  -12.3780   13.2040 N.2       1 9LN        -0.2095
     24 NAS         9.9230  -12.8210    3.9300 N.am      1 9LN        -0.2249
     25 NBB        11.0850  -12.0120    9.0840 N.am      1 9LN        -0.2721
     26 NBC         9.7660  -11.1410   13.1040 N.pl3     1 9LN        -0.1714
     27 NBD         7.4540  -11.6040    3.7580 N.am      1 9LN        -0.2087
     28 OAC        10.9070   -9.7940    8.6980 O.2       1 9LN        -0.3916
     29 OAD         9.5770  -13.7110    1.8860 O.2       1 9LN        -0.3518
     30 OAE         7.1990  -12.5250    1.7390 O.2       1 9LN        -0.3505
     31 H1          5.1180   -9.1622    3.0120 H         1 9LN         0.0254
     32 H2          6.5923   -9.5725    2.0715 H         1 9LN         0.0254
     33 H3          6.7429   -8.9193    3.7381 H         1 9LN         0.0254
     34 H4         11.2366  -14.0966    9.4738 H         1 9LN         0.0486
     35 H5         11.1664  -13.6531    7.7346 H         1 9LN         0.0486
     36 H6          9.6818  -13.5726    8.7427 H         1 9LN         0.0486
     37 H7          7.0253   -8.0674   16.2538 H         1 9LN         0.0558
     38 H8          8.3302   -7.0831   14.3973 H         1 9LN         0.0600
     39 H9          7.0242  -10.5145   16.6105 H         1 9LN         0.0600
     40 H10         9.6370   -8.5517   12.8945 H         1 9LN         0.0587
     41 H11         8.3311  -11.9840   15.1072 H         1 9LN         0.0587
     42 H12         8.2412   -9.8658    7.9078 H         1 9LN         0.0510
     43 H13         6.8013  -10.1621    5.9164 H         1 9LN         0.0473
     44 H14        10.9611  -13.8673   12.0427 H         1 9LN         0.0638
     45 H15        11.2342  -12.3263    6.1148 H         1 9LN         0.0502
     46 H16        10.5478   -9.6682   11.7120 H         1 9LN         0.0884
     47 H17         5.4913  -11.6013    2.9662 H         1 9LN         0.0587
     48 H18         5.6419  -10.9481    4.6327 H         1 9LN         0.0587
     49 H19        12.6663  -12.5643   10.3709 H         1 9LN         0.0612
     50 H20        12.4129  -10.7955   10.1879 H         1 9LN         0.0612
     51 H21        10.8231  -13.2518    3.9944 H         1 9LN         0.2247
@<TRIPOS>BOND
     1   13    1 1  
     2   25    2 1  
     3    4    3 ar 
     4    5    3 ar 
     5    6    4 ar 
     6    7    5 ar 
     7   18    6 ar 
     8   18    7 ar 
     9    9    8 ar 
    10   17    8 ar 
    11   22    9 ar 
    12   16   10 1  
    13   10   23 2  
    14   11   17 ar 
    15   21   11 ar 
    16   16   12 2  
    17   12   26 1  
    18   27   13 1  
    19   14   16 1  
    20   25   14 1  
    21   17   15 1  
    22   15   25 am 
    23   15   28 2  
    24   26   18 1  
    25   19   20 1  
    26   24   19 am 
    27   19   29 2  
    28   20   27 am 
    29   20   30 2  
    30   21   22 ar 
    31   21   24 1  
    32   22   27 1  
    33   23   26 1  
    34    1   31 1  
    35    1   32 1  
    36    1   33 1  
    37    2   34 1  
    38    2   35 1  
    39    2   36 1  
    40    3   37 1  
    41    4   38 1  
    42    5   39 1  
    43    6   40 1  
    44    7   41 1  
    45    8   42 1  
    46    9   43 1  
    47   10   44 1  
    48   11   45 1  
    49   12   46 1  
    50   13   47 1  
    51   13   48 1  
    52   14   49 1  
    53   14   50 1  
    54   24   51 1  
@<TRIPOS>SUBSTRUCTURE
     1 9LN         1

