### 
### Created by X-TOOL on Wed Jan  1 15:39:35 2020
### 

@<TRIPOS>MOLECULE
5o5f_ligand
   51    54     1     0     0
SMALL
GAST_HUCK


@<TRIPOS>ATOM
      1 CAA        16.2320    3.4000   -7.8850 C.3       1 9LT        -0.0393
      2 CAB        10.0230    4.1150    2.0360 C.3       1 9LT         0.0464
      3 CAG        11.6600    8.1620    0.1000 C.ar      1 9LT        -0.0698
      4 CAH        13.1770    2.4430    2.5000 C.2       1 9LT        -0.0357
      5 CAI        12.9280    8.5050    0.5510 C.ar      1 9LT        -0.0349
      6 CAJ        11.3550    6.8320   -0.1690 C.ar      1 9LT        -0.0596
      7 CAK        14.4460    3.0040   -3.5080 C.ar      1 9LT        -0.0698
      8 CAL        15.0670    2.6690   -4.7190 C.ar      1 9LT        -0.0455
      9 CAM        11.9490    2.7570    2.9200 C.2       1 9LT         0.0282
     10 CAN        13.5870    6.1880    0.4630 C.ar      1 9LT        -0.0223
     11 CAO        12.5010    1.7790   -4.1730 C.ar      1 9LT        -0.0330
     12 CAP        16.3340    2.0500   -7.1480 C.3       1 9LT         0.0532
     13 CAT        12.4560    2.8510   -2.0350 C.2       1 9LT         0.1944
     14 CAU        13.8870    7.5170    0.7370 C.ar      1 9LT         0.1264
     15 CAV        13.1570    2.5460   -3.2200 C.ar      1 9LT         0.0211
     16 CAW        12.3210    5.8450    0.0090 C.ar      1 9LT        -0.0025
     17 CAX        12.2710    3.6760    1.0160 C.2       1 9LT         0.1513
     18 CAY        13.0230    0.3540   -7.4950 C.2       1 9LT         0.3125
     19 CAZ        14.3140    0.7990   -7.7620 C.2       1 9LT         0.3162
     20 CBA        13.1070    1.4500   -5.3770 C.ar      1 9LT         0.0989
     21 CBB        14.3940    1.8890   -5.6690 C.ar      1 9LT         0.1015
     22 CBC        12.0200    4.5080   -0.2540 C.3       1 9LT         0.1486
     23 FAF        15.1190    7.8400    1.1760 F         1 9LT        -0.1852
     24 NAQ        13.3830    3.0170    1.3150 N.2       1 9LT        -0.3347
     25 NAR        12.7610    4.0240   -1.4460 N.am      1 9LT        -0.2577
     26 NAS        12.4070    0.6690   -6.2950 N.am      1 9LT        -0.2249
     27 NBD        11.3810    3.5270    1.9930 N.pl3     1 9LT        -0.2500
     28 NBE        14.9730    1.5570   -6.8480 N.am      1 9LT        -0.2087
     29 OAC        11.5270    2.1400   -1.6240 O.2       1 9LT        -0.3915
     30 OAD        12.4130   -0.3270   -8.3210 O.2       1 9LT        -0.3518
     31 OAE        14.8390    0.4980   -8.8420 O.2       1 9LT        -0.3505
     32 H1         17.2424    3.7717   -8.1108 H         1 9LT         0.0254
     33 H2         15.7079    4.1272   -7.2474 H         1 9LT         0.0254
     34 H3         15.6731    3.2646   -8.8227 H         1 9LT         0.0254
     35 H4          9.5230    3.8151    2.9688 H         1 9LT         0.0581
     36 H5          9.4401    3.7550    1.1754 H         1 9LT         0.0581
     37 H6         10.0969    5.2118    1.9959 H         1 9LT         0.0581
     38 H7         10.9086    8.9303   -0.0422 H         1 9LT         0.0590
     39 H8         13.8917    1.8210    3.0368 H         1 9LT         0.0410
     40 H9         13.1690    9.5415    0.7575 H         1 9LT         0.0548
     41 H10        10.3643    6.5635   -0.5176 H         1 9LT         0.0528
     42 H11        14.9696    3.6234   -2.7888 H         1 9LT         0.0510
     43 H12        16.0739    3.0153   -4.9220 H         1 9LT         0.0473
     44 H13        11.4920    2.4394    3.8560 H         1 9LT         0.0799
     45 H14        14.3400    5.4210    0.6035 H         1 9LT         0.0547
     46 H15        11.4945    1.4299   -3.9724 H         1 9LT         0.0502
     47 H16        16.8920    2.1842   -6.2096 H         1 9LT         0.0587
     48 H17        16.8572    1.3216   -7.7848 H         1 9LT         0.0587
     49 H18        10.9475    4.4386   -0.4883 H         1 9LT         0.0951
     50 H19        13.5028    4.5807   -1.8200 H         1 9LT         0.1901
     51 H20        11.4832    0.3442   -6.0924 H         1 9LT         0.2247
@<TRIPOS>BOND
     1   12    1 1  
     2   27    2 1  
     3    3    5 ar 
     4    6    3 ar 
     5    9    4 2  
     6   24    4 1  
     7   14    5 ar 
     8   16    6 ar 
     9    7    8 ar 
    10   15    7 ar 
    11    8   21 ar 
    12   27    9 1  
    13   10   14 ar 
    14   16   10 ar 
    15   15   11 ar 
    16   11   20 ar 
    17   28   12 1  
    18   13   15 1  
    19   25   13 am 
    20   13   29 2  
    21   14   23 1  
    22   22   16 1  
    23   22   17 1  
    24   17   24 2  
    25   17   27 1  
    26   18   19 1  
    27   26   18 am 
    28   18   30 2  
    29   28   19 am 
    30   19   31 2  
    31   20   21 ar 
    32   20   26 1  
    33   21   28 1  
    34   22   25 1  
    35    1   32 1  
    36    1   33 1  
    37    1   34 1  
    38    2   35 1  
    39    2   36 1  
    40    2   37 1  
    41    3   38 1  
    42    4   39 1  
    43    5   40 1  
    44    6   41 1  
    45    7   42 1  
    46    8   43 1  
    47    9   44 1  
    48   10   45 1  
    49   11   46 1  
    50   12   47 1  
    51   12   48 1  
    52   22   49 1  
    53   25   50 1  
    54   26   51 1  
@<TRIPOS>SUBSTRUCTURE
     1 9LT         1

