### 
### Created by X-TOOL on Wed Jan  1 15:39:36 2020
### 

@<TRIPOS>MOLECULE
5o5h_ligand
   38    40     1     0     0
SMALL
GAST_HUCK


@<TRIPOS>ATOM
      1 CAA        10.4620  -13.6120    2.0910 C.3       1 9LK         0.0272
      2 CAB         6.1890  -11.1050    2.8800 C.3       1 9LK        -0.0290
      3 CAE         8.9410   -5.3320   12.7390 C.ar      1 9LK        -0.0557
      4 CAF         9.6650   -4.7130   10.5320 C.ar      1 9LK        -0.0557
      5 CAG         8.3760   -9.4330    7.9280 C.ar      1 9LK        -0.0281
      6 CAH         9.2500   -6.6570   12.4630 C.ar      1 9LK        -0.0278
      7 CAI         9.9740   -6.0420   10.2530 C.ar      1 9LK        -0.0278
      8 CAJ         8.5780   -8.8270    9.1660 C.ar      1 9LK        -0.0122
      9 CAK        10.6330  -10.1850    7.9510 C.ar      1 9LK         0.0206
     10 CAQ         8.2490  -10.6870    5.2670 C.2       1 9LK         0.2430
     11 CAR         9.1490   -4.3570   11.7740 C.ar      1 9LK         0.0292
     12 CAS         9.4130  -12.7190    2.7480 C.2       1 9LK         0.1775
     13 CAT         9.4110  -10.1210    7.2940 C.ar      1 9LK         0.0822
     14 CAU         7.6060  -11.6420    3.1160 C.2       1 9LK         0.0244
     15 CAV         9.7570   -7.0200   11.2200 C.ar      1 9LK         0.1168
     16 CAW         9.8230   -8.8990    9.7870 C.ar      1 9LK         0.1746
     17 CAX         8.4260  -11.4240    4.1580 C.2       1 9LK         0.1988
     18 NAL        10.8190   -9.5720    9.1960 N.ar      1 9LK        -0.2858
     19 NAM         8.2130  -12.4460    2.2410 N.2       1 9LK        -0.2995
     20 NAN         9.3190  -10.7510    6.1020 N.am      1 9LK        -0.2352
     21 OAC         7.2300  -10.0200    5.4480 O.2       1 9LK        -0.3883
     22 OAO        10.0550   -8.3350   11.0100 O.3       1 9LK        -0.2480
     23 OAP         9.5840  -12.1210    3.9230 O.3       1 9LK        -0.2249
     24 CL          8.7650   -2.7050   12.1280 Cl        1 9LK        -0.0805
     25 H1         10.0778  -13.9823    1.1291 H         1 9LK         0.0499
     26 H2         10.6828  -14.4644    2.7503 H         1 9LK         0.0499
     27 H3         11.3814  -13.0329    1.9200 H         1 9LK         0.0499
     28 H4          5.8083  -11.4842    1.9202 H         1 9LK         0.0377
     29 H5          6.2127  -10.0055    2.8563 H         1 9LK         0.0377
     30 H6          5.5295  -11.4401    3.6941 H         1 9LK         0.0377
     31 H7          8.5376   -5.0594   13.7075 H         1 9LK         0.0597
     32 H8          9.8274   -3.9519    9.7774 H         1 9LK         0.0597
     33 H9          7.4041   -9.3693    7.4521 H         1 9LK         0.0601
     34 H10         9.0948   -7.4147   13.2225 H         1 9LK         0.0553
     35 H11        10.3821   -6.3141    9.2863 H         1 9LK         0.0553
     36 H12         7.7638   -8.2977    9.6477 H         1 9LK         0.0612
     37 H13        11.4572  -10.7189    7.4919 H         1 9LK         0.0671
     38 H14        10.0981  -11.3069    5.8123 H         1 9LK         0.2231
@<TRIPOS>BOND
     1   12    1 1  
     2   14    2 1  
     3    6    3 ar 
     4    3   11 ar 
     5    7    4 ar 
     6    4   11 ar 
     7    8    5 ar 
     8    5   13 ar 
     9   15    6 ar 
    10   15    7 ar 
    11   16    8 ar 
    12    9   13 ar 
    13   18    9 ar 
    14   10   17 1  
    15   20   10 am 
    16   10   21 2  
    17   11   24 1  
    18   19   12 2  
    19   12   23 1  
    20   13   20 1  
    21   17   14 2  
    22   14   19 1  
    23   22   15 1  
    24   16   18 ar 
    25   16   22 1  
    26   17   23 1  
    27    1   25 1  
    28    1   26 1  
    29    1   27 1  
    30    2   28 1  
    31    2   29 1  
    32    2   30 1  
    33    3   31 1  
    34    4   32 1  
    35    5   33 1  
    36    6   34 1  
    37    7   35 1  
    38    8   36 1  
    39    9   37 1  
    40   20   38 1  
@<TRIPOS>SUBSTRUCTURE
     1 9LK         1

