### 
### Created by X-TOOL on Mon Aug  2 16:12:09 2021
### 

@<TRIPOS>MOLECULE
5o7i_ligand
   35    37     1     0     0
SMALL
GAST_HUCK


@<TRIPOS>ATOM
      1 C1         40.3960   -1.2660    7.2750 C.ar      1 MOL        -0.0507
      2 C2         40.8140    0.0180    6.9770 C.ar      1 MOL        -0.0565
      3 C3         40.9720    0.9570    7.9810 C.ar      1 MOL        -0.0194
      4 C4         40.7150    0.5840    9.2740 C.ar      1 MOL         0.1539
      5 C5         40.2650   -0.6830    9.6400 C.ar      1 MOL         0.0714
      6 C6         39.9740   -1.0470   11.0610 C.2       1 MOL         0.1384
      7 C7         41.0680   -1.0560   12.0400 C.2       1 MOL         0.0243
      8 C8         40.9640   -1.2780   13.4060 C.2       1 MOL         0.0466
      9 C11        46.8500   -1.2630   12.2010 C.ar      1 MOL         0.0936
     10 C12        47.5300   -1.9340   11.1950 C.ar      1 MOL        -0.0217
     11 C15        47.5750   -0.8450   13.3170 C.ar      1 MOL         0.0312
     12 C16        42.4600   -0.9840   11.7500 C.2       1 MOL        -0.0425
     13 O1         38.8410   -1.3910   11.3760 O.2       1 MOL        -0.3832
     14 F          40.9760    1.4800   10.2570 F         1 MOL        -0.1766
     15 C          40.1140   -1.6060    8.5840 C.ar      1 MOL         0.0290
     16 BR         39.4860   -3.3650    8.8880 Br        1 MOL        -0.0455
     17 C9         43.1400   -1.1900   12.9300 C.2       1 MOL         0.1356
     18 N          42.2060   -1.3580   13.9240 N.pl3     1 MOL        -0.2700
     19 C10        44.5850   -1.2690   13.2650 C.2       1 MOL         0.2470
     20 O          44.9510   -1.3630   14.4330 O.2       1 MOL        -0.3791
     21 N1         45.4370   -1.1310   12.2170 N.am      1 MOL        -0.2271
     22 N2         48.8740   -1.1170   13.4920 N.ar      1 MOL        -0.3128
     23 C14        49.4990   -1.7920   12.5180 C.ar      1 MOL        -0.0050
     24 C13        48.8760   -2.2080   11.3570 C.ar      1 MOL        -0.0480
     25 H1         40.2902   -2.0017    6.4859 H         1 MOL         0.0622
     26 H2         41.0196    0.2912    5.9483 H         1 MOL         0.0650
     27 H3         41.2923    1.9664    7.7494 H         1 MOL         0.0640
     28 H4         40.0346   -1.3719   13.9658 H         1 MOL         0.0993
     29 H5         47.0127   -2.2399   10.2929 H         1 MOL         0.0621
     30 H6         47.0612   -0.2717   14.0801 H         1 MOL         0.0711
     31 H7         42.9057   -0.7997   10.7736 H         1 MOL         0.0411
     32 H8         42.4228   -1.5209   14.9177 H         1 MOL         0.2396
     33 H9         45.0126   -0.9065   11.3398 H         1 MOL         0.2272
     34 H10        50.5499   -2.0242   12.6477 H         1 MOL         0.0690
     35 H11        49.4298   -2.7374   10.5901 H         1 MOL         0.0667
@<TRIPOS>BOND
     1    1    2 ar 
     2   15    1 ar 
     3    3    2 ar 
     4    4    3 ar 
     5    5    4 ar 
     6    4   14 1  
     7    6    5 1  
     8    5   15 ar 
     9    7    6 1  
    10    6   13 2  
    11    8    7 2  
    12   12    7 1  
    13   18    8 1  
    14    9   10 ar 
    15    9   11 ar 
    16   21    9 1  
    17   10   24 ar 
    18   11   22 ar 
    19   17   12 2  
    20   15   16 1  
    21   17   18 1  
    22   19   17 1  
    23   19   20 2  
    24   19   21 am 
    25   22   23 ar 
    26   23   24 ar 
    27    1   25 1  
    28    2   26 1  
    29    3   27 1  
    30    8   28 1  
    31   10   29 1  
    32   11   30 1  
    33   12   31 1  
    34   18   32 1  
    35   21   33 1  
    36   23   34 1  
    37   24   35 1  
@<TRIPOS>SUBSTRUCTURE
     1 MOL         1

