### 
### Created by X-TOOL on Mon Aug  2 16:12:09 2021
### 

@<TRIPOS>MOLECULE
5o7n_ligand
   41    42     1     0     0
SMALL
GAST_HUCK


@<TRIPOS>ATOM
      1 C10        72.7340   10.3730   58.1420 C.ar      1 MOL        -0.0602
      2 C11        75.0860    3.3460   59.1220 C.3       1 MOL        -0.0476
      3 C12        75.7460    4.5190   59.7870 C.3       1 MOL        -0.0322
      4 C13        75.4940    5.8830   59.1900 C.3       1 MOL         0.0360
      5 C14        73.5720    5.0110   57.9060 C.3       1 MOL         0.0971
      6 C15        73.6600    3.7100   58.7100 C.3       1 MOL        -0.0177
      7 C16        74.2150    4.8210   56.5320 C.2       1 MOL         0.0603
      8 C01        72.6020   10.3250   59.5200 C.ar      1 MOL        -0.0405
      9 C02        73.4900    9.3960   60.3430 C.3       1 MOL         0.0014
     10 C03        74.4450    8.6120   59.4340 C.3       1 MOL         0.0672
     11 C04        75.3960    9.4480   58.5460 C.3       1 MOL         0.0122
     12 C05        73.7290    7.5020   58.7460 C.2       1 MOL         0.1860
     13 C06        71.6590   11.1190   60.1520 C.ar      1 MOL        -0.0602
     14 C07        70.8510   11.9630   59.4070 C.ar      1 MOL        -0.0686
     15 C08        70.9850   12.0100   58.0300 C.ar      1 MOL        -0.0687
     16 C09        71.9260   11.2160   57.3970 C.ar      1 MOL        -0.0686
     17 N01        74.2400    6.1470   58.6100 N.am      1 MOL        -0.2571
     18 O01        72.7280    7.8190   58.2840 O.2       1 MOL        -0.3963
     19 O02        74.6890    3.7000   56.2080 O.co2     1 MOL        -0.5666
     20 O03        74.2710    5.7850   55.7240 O.co2     1 MOL        -0.5666
     21 S01        75.0650    9.2190   56.7720 S.3       1 MOL        -0.1754
     22 H1         73.4701    9.7505   57.6463 H         1 MOL         0.0557
     23 H2         75.0571    2.4990   59.8232 H         1 MOL         0.0268
     24 H3         75.6618    3.0629   58.2285 H         1 MOL         0.0268
     25 H4         76.8317    4.3439   59.7653 H         1 MOL         0.0285
     26 H5         75.3997    4.5456   60.8307 H         1 MOL         0.0285
     27 H6         76.2514    6.0386   58.4076 H         1 MOL         0.0524
     28 H7         75.6402    6.6198   59.9936 H         1 MOL         0.0524
     29 H8         72.5098    5.2620   57.7695 H         1 MOL         0.0728
     30 H9         73.0517    3.8207   59.6198 H         1 MOL         0.0306
     31 H10        73.2552    2.8924   58.0955 H         1 MOL         0.0306
     32 H11        72.8562    8.6879   60.8970 H         1 MOL         0.0454
     33 H12        74.0784    9.9950   61.0537 H         1 MOL         0.0454
     34 H13        75.1288    8.1062   60.1316 H         1 MOL         0.0569
     35 H14        76.4325    9.1444   58.7543 H         1 MOL         0.0403
     36 H15        75.2684   10.5118   58.7950 H         1 MOL         0.0403
     37 H16        71.5531   11.0800   61.2301 H         1 MOL         0.0557
     38 H17        70.1147   12.5858   59.9020 H         1 MOL         0.0599
     39 H18        70.3524   12.6693   57.4467 H         1 MOL         0.0559
     40 H19        72.0304   11.2540   56.3187 H         1 MOL         0.0599
     41 H20        75.7072    9.7816   56.2362 H         1 MOL         0.1018
@<TRIPOS>BOND
     1    8    1 ar 
     2    1   16 ar 
     3    3    2 1  
     4    6    2 1  
     5    4    3 1  
     6   17    4 1  
     7    5    6 1  
     8    5    7 1  
     9   17    5 1  
    10    7   19 ar 
    11    7   20 ar 
    12    9    8 1  
    13    8   13 ar 
    14   10    9 1  
    15   10   11 1  
    16   12   10 1  
    17   11   21 1  
    18   12   17 am 
    19   12   18 2  
    20   13   14 ar 
    21   14   15 ar 
    22   15   16 ar 
    23    1   22 1  
    24    2   23 1  
    25    2   24 1  
    26    3   25 1  
    27    3   26 1  
    28    4   27 1  
    29    4   28 1  
    30    5   29 1  
    31    6   30 1  
    32    6   31 1  
    33    9   32 1  
    34    9   33 1  
    35   10   34 1  
    36   11   35 1  
    37   11   36 1  
    38   13   37 1  
    39   14   38 1  
    40   15   39 1  
    41   16   40 1  
    42   21   41 1  
@<TRIPOS>SUBSTRUCTURE
     1 MOL         1

