### 
### Created by X-TOOL on Mon Sep 10 21:13:34 2018
### 

@<TRIPOS>MOLECULE
5o83_ligand
   57    60     1     0     0
SMALL
GAST_HUCK


@<TRIPOS>ATOM
      1 C1          2.0210  -33.9700  -20.4930 C.3       1 9NQ         0.0346
      2 C2          3.3770  -34.6230  -20.6640 C.2       1 9NQ         0.1782
      3 C3          5.2260  -35.2840  -22.1600 C.3       1 9NQ         0.0361
      4 O1         13.2350  -29.5540  -22.0220 O.3       1 9NQ        -0.2833
      5 C11         8.2750  -29.1110  -25.8770 C.3       1 9NQ         0.0403
      6 C12         7.6400  -31.1210  -24.4340 C.3       1 9NQ         0.0647
      7 C13         6.2360  -30.8910  -24.9430 C.ar      1 9NQ         0.0484
      8 C14         9.7260  -29.8360  -24.0270 C.ar      1 9NQ         0.0871
      9 C15        10.8820  -29.3760  -24.6540 C.ar      1 9NQ         0.0486
     10 C16        12.0940  -29.6130  -22.7410 C.ar      1 9NQ         0.1926
     11 C17        14.3950  -29.0200  -22.6580 C.3       1 9NQ         0.0707
     12 C18        11.0000  -30.0680  -21.9890 C.ar      1 9NQ         0.0921
     13 C19         9.7980  -30.1850  -22.6780 C.ar      1 9NQ        -0.0052
     14 C20        10.9830  -30.3550  -20.5120 C.3       1 9NQ         0.3719
     15 F2         11.7080  -29.4880  -19.8240 F         1 9NQ        -0.2284
     16 F           9.7650  -30.2790  -19.9840 F         1 9NQ        -0.2284
     17 F1         11.4550  -31.5640  -20.2220 F         1 9NQ        -0.2284
     18 N5         12.0570  -29.2700  -24.0190 N.ar      1 9NQ        -0.2461
     19 N4          8.5540  -30.0050  -24.7460 N.pl3     1 9NQ        -0.2911
     20 C10         6.8510  -28.5980  -25.8250 C.3       1 9NQ         0.0156
     21 C9          5.8720  -29.7230  -25.6330 C.ar      1 9NQ         0.0360
     22 N3          4.6520  -29.5320  -26.1600 N.ar      1 9NQ        -0.2915
     23 C8          3.7720  -30.5200  -25.9770 C.ar      1 9NQ         0.0562
     24 N2          3.9530  -31.6860  -25.3510 N.ar      1 9NQ        -0.2683
     25 C7          5.1940  -31.8740  -24.8450 C.ar      1 9NQ         0.1254
     26 N1          5.4600  -33.0790  -24.2770 N.pl3     1 9NQ        -0.3007
     27 C5          4.5220  -34.1950  -24.1400 C.3       1 9NQ         0.0609
     28 C4          5.2260  -35.4480  -23.6690 C.3       1 9NQ        -0.0076
     29 C6          3.4090  -34.0110  -23.1130 C.3       1 9NQ         0.0568
     30 N           3.9370  -34.6360  -21.8960 N.am      1 9NQ        -0.2709
     31 O           3.9460  -35.1100  -19.6980 O.2       1 9NQ        -0.3969
     32 C           1.8490  -33.3190  -19.1570 C.3       1 9NQ        -0.0482
     33 H1          1.2441  -34.7398  -20.6102 H         1 9NQ         0.0500
     34 H2          1.8997  -33.2047  -21.2738 H         1 9NQ         0.0500
     35 H3          6.0619  -34.6487  -21.8318 H         1 9NQ         0.0523
     36 H4          5.2877  -36.2601  -21.6567 H         1 9NQ         0.0523
     37 H5          8.4245  -29.6626  -26.8169 H         1 9NQ         0.0540
     38 H6          8.9667  -28.2565  -25.8393 H         1 9NQ         0.0540
     39 H7          8.0351  -32.0378  -24.8959 H         1 9NQ         0.0656
     40 H8          7.6011  -31.2480  -23.3421 H         1 9NQ         0.0656
     41 H9         10.8286  -29.0921  -25.6988 H         1 9NQ         0.0943
     42 H10        15.2396  -29.0361  -21.9534 H         1 9NQ         0.0600
     43 H11        14.1978  -27.9839  -22.9703 H         1 9NQ         0.0600
     44 H12        14.6421  -29.6283  -23.5405 H         1 9NQ         0.0600
     45 H13         8.9145  -30.5483  -22.1657 H         1 9NQ         0.0789
     46 H14         6.6218  -28.0806  -26.7682 H         1 9NQ         0.0476
     47 H15         6.7547  -27.8922  -24.9868 H         1 9NQ         0.0476
     48 H16         2.7834  -30.3542  -26.3897 H         1 9NQ         0.1000
     49 H17         6.4111  -33.2210  -23.9079 H         1 9NQ         0.1821
     50 H18         4.0703  -34.3681  -25.1279 H         1 9NQ         0.0576
     51 H19         4.6734  -36.3502  -23.9699 H         1 9NQ         0.0308
     52 H20         6.2520  -35.4981  -24.0625 H         1 9NQ         0.0308
     53 H21         2.4875  -34.5138  -23.4417 H         1 9NQ         0.0545
     54 H22         3.2045  -32.9431  -22.9461 H         1 9NQ         0.0545
     55 H23         0.8487  -32.8655  -19.0962 H         1 9NQ         0.0254
     56 H24         2.6137  -32.5388  -19.0281 H         1 9NQ         0.0254
     57 H25         1.9581  -34.0739  -18.3645 H         1 9NQ         0.0254
@<TRIPOS>BOND
     1    2    1 1  
     2    1   32 1  
     3   30    2 am 
     4    2   31 2  
     5   28    3 1  
     6    3   30 1  
     7   10    4 1  
     8    4   11 1  
     9   19    5 1  
    10   20    5 1  
    11    7    6 1  
    12    6   19 1  
    13    7   21 ar 
    14   25    7 ar 
    15    8    9 ar 
    16    8   13 ar 
    17   19    8 1  
    18    9   18 ar 
    19   12   10 ar 
    20   18   10 ar 
    21   13   12 ar 
    22   12   14 1  
    23   14   15 1  
    24   14   16 1  
    25   14   17 1  
    26   21   20 1  
    27   21   22 ar 
    28   23   22 ar 
    29   24   23 ar 
    30   25   24 ar 
    31   26   25 1  
    32   27   26 1  
    33   27   28 1  
    34   27   29 1  
    35   29   30 1  
    36    1   33 1  
    37    1   34 1  
    38    3   35 1  
    39    3   36 1  
    40    5   37 1  
    41    5   38 1  
    42    6   39 1  
    43    6   40 1  
    44    9   41 1  
    45   11   42 1  
    46   11   43 1  
    47   11   44 1  
    48   13   45 1  
    49   20   46 1  
    50   20   47 1  
    51   23   48 1  
    52   26   49 1  
    53   27   50 1  
    54   28   51 1  
    55   28   52 1  
    56   29   53 1  
    57   29   54 1  
    58   32   55 1  
    59   32   56 1  
    60   32   57 1  
@<TRIPOS>SUBSTRUCTURE
     1 9NQ         1

