### 
### Created by X-TOOL on Mon Aug  2 16:12:10 2021
### 

@<TRIPOS>MOLECULE
5o87_ligand
   27    28     1     0     0
SMALL
GAST_HUCK


@<TRIPOS>ATOM
      1 N1         11.6760   12.5070   10.0530 N.ar      1 NCT        -0.3042
      2 C1         10.8350   11.6180    9.4720 C.ar      1 NCT         0.0179
      3 C2         10.8490   11.3290    8.0870 C.ar      1 NCT         0.0324
      4 C3         11.7970   12.0010    7.3270 C.ar      1 NCT        -0.0351
      5 C4         12.6700   12.9200    7.9410 C.ar      1 NCT        -0.0403
      6 C5         12.5930   13.1650    9.3120 C.ar      1 NCT         0.0042
      7 N2         10.2240    8.9400    7.4720 N.4       1 NCT         0.2482
      8 C6          9.8960   10.3890    7.4000 C.3       1 NCT         0.0189
      9 C7          8.4490   10.5340    7.8880 C.3       1 NCT         0.0064
     10 C8          7.8350    9.1490    7.8250 C.3       1 NCT        -0.0054
     11 C9          8.9750    8.1740    7.6480 C.3       1 NCT        -0.0300
     12 C10        10.9440    8.4660    6.2640 C.3       1 NCT        -0.0413
     13 H1         10.1162   11.1028   10.0988 H         1 NCT         0.0767
     14 H2         11.8652   11.8183    6.2607 H         1 NCT         0.0680
     15 H3         13.4083   13.4416    7.3428 H         1 NCT         0.0693
     16 H4         13.2636   13.8775    9.7785 H         1 NCT         0.0767
     17 H5         10.8166    8.7866    8.2728 H         1 NCT         0.2049
     18 H6          9.9178   10.6694    6.3366 H         1 NCT         0.1033
     19 H7          7.8952   11.2256    7.2361 H         1 NCT         0.0346
     20 H8          8.4319   10.9110    8.9212 H         1 NCT         0.0346
     21 H9          7.1422    9.0802    6.9733 H         1 NCT         0.0320
     22 H10         7.2927    8.9324    8.7572 H         1 NCT         0.0320
     23 H11         9.0557    7.5322    8.5377 H         1 NCT         0.0815
     24 H12         8.7946    7.5496    6.7606 H         1 NCT         0.0815
     25 H13        11.8729    9.0423    6.1411 H         1 NCT         0.0778
     26 H14        10.3062    8.6054    5.3787 H         1 NCT         0.0778
     27 H15        11.1867    7.3991    6.3768 H         1 NCT         0.0778
@<TRIPOS>BOND
     1    1    2 ar 
     2    1    6 ar 
     3    2    3 ar 
     4    3    4 ar 
     5    3    8 1  
     6    4    5 ar 
     7    5    6 ar 
     8    8    7 1  
     9    7   11 1  
    10    7   12 1  
    11    8    9 1  
    12    9   10 1  
    13   10   11 1  
    14    2   13 1  
    15    4   14 1  
    16    5   15 1  
    17    6   16 1  
    18    7   17 1  
    19    8   18 1  
    20    9   19 1  
    21    9   20 1  
    22   10   21 1  
    23   10   22 1  
    24   11   23 1  
    25   11   24 1  
    26   12   25 1  
    27   12   26 1  
    28   12   27 1  
@<TRIPOS>SUBSTRUCTURE
     1 NCT         1

