### 
### Created by X-TOOL on Mon Aug  2 16:12:10 2021
### 

@<TRIPOS>MOLECULE
5o8t_ligand
   48    54     1     0     0
SMALL
GAST_HUCK


@<TRIPOS>ATOM
      1 CAV        12.1220    4.0250  -29.1670 C.3       1 SY9        -0.0427
      2 CAU        10.8920    3.6510  -29.9770 C.3       1 SY9        -0.0085
      3 CAT         9.7480    4.6020  -29.5970 C.3       1 SY9        -0.0004
      4 CAN        10.1370    5.9850  -30.1480 C.3       1 SY9         0.0204
      5 CAK        11.4540    6.5110  -29.5770 C.3       1 SY9         0.0638
      6 NAH        11.9840    7.4680  -30.5820 N.am      1 SY9        -0.1999
      7 CAA        13.1350    6.9080  -31.2040 C.ar      1 SY9         0.1052
      8 CAF        13.8870    7.3950  -32.2680 C.ar      1 SY9        -0.0063
      9 CAE        15.0070    6.6820  -32.6700 C.ar      1 SY9        -0.0464
     10 CAD        15.3540    5.4970  -32.0440 C.ar      1 SY9        -0.0477
     11 CAC        14.5980    5.0130  -30.9910 C.ar      1 SY9        -0.0530
     12 CAB        13.4910    5.7300  -30.5590 C.ar      1 SY9        -0.0230
     13 CAG        12.6040    5.4840  -29.3710 C.3       1 SY9         0.0242
     14 CAW        13.3300    5.7450  -28.0440 C.3       1 SY9        -0.0348
     15 CAX        12.3950    5.1000  -27.0360 C.3       1 SY9        -0.0411
     16 NAY        11.8770    3.8880  -27.7030 N.4       1 SY9         0.2398
     17 CAS        10.4700    3.6220  -27.3750 C.3       1 SY9        -0.0076
     18 CAR         9.5320    4.5550  -28.0960 C.2       1 SY9        -0.0310
     19 CAQ         8.6360    5.3040  -27.4770 C.2       1 SY9        -0.0782
     20 CAP         7.7970    6.3050  -28.2080 C.3       1 SY9         0.0554
     21 OAO         8.6050    7.3650  -28.7530 O.3       1 SY9        -0.3689
     22 CAM         9.1170    7.1220  -30.0660 C.3       1 SY9         0.0844
     23 CAL         9.7630    8.4450  -30.4840 C.3       1 SY9         0.0744
     24 CAI        11.1170    8.3660  -31.1440 C.2       1 SY9         0.2264
     25 OAJ        11.4030    9.0400  -32.1190 O.2       1 SY9        -0.3740
     26 H1         12.9322    3.3427  -29.4636 H         1 SY9         0.0714
     27 H2         10.6018    2.6139  -29.7528 H         1 SY9         0.0332
     28 H3         11.1121    3.7463  -31.0505 H         1 SY9         0.0332
     29 H4          8.8173    4.2777  -30.0855 H         1 SY9         0.0453
     30 H5         10.3040    5.8157  -31.2220 H         1 SY9         0.0371
     31 H6         11.2472    7.0116  -28.6196 H         1 SY9         0.0535
     32 H7         13.6040    8.3119  -32.7722 H         1 SY9         0.0599
     33 H8         15.6174    7.0570  -33.4835 H         1 SY9         0.0798
     34 H9         16.2237    4.9446  -32.3810 H         1 SY9         0.0600
     35 H10        14.8682    4.0813  -30.5074 H         1 SY9         0.0770
     36 H11        13.4391    6.8230  -27.8541 H         1 SY9         0.0190
     37 H12        14.3212    5.2681  -28.0309 H         1 SY9         0.0190
     38 H13        11.5704    5.7829  -26.7837 H         1 SY9         0.0804
     39 H14        12.9420    4.8315  -26.1202 H         1 SY9         0.0804
     40 H15        12.4105    3.0991  -27.3728 H         1 SY9         0.2038
     41 H16        10.3292    3.7459  -26.2911 H         1 SY9         0.0963
     42 H17        10.2291    2.5873  -27.6602 H         1 SY9         0.0963
     43 H18         8.5042    5.1893  -26.4021 H         1 SY9         0.0266
     44 H19         7.0636    6.7357  -27.5105 H         1 SY9         0.0635
     45 H20         7.2686    5.7986  -29.0292 H         1 SY9         0.0635
     46 H21         8.2819    6.8811  -30.7402 H         1 SY9         0.0628
     47 H22         9.8697    9.0627  -29.5801 H         1 SY9         0.0538
     48 H23         9.0788    8.9408  -31.1882 H         1 SY9         0.0538
@<TRIPOS>BOND
     1    1    2 1  
     2    1   13 1  
     3    1   16 1  
     4    2    3 1  
     5    3    4 1  
     6    3   18 1  
     7    4    5 1  
     8    4   22 1  
     9    5    6 1  
    10    5   13 1  
    11    6    7 1  
    12    6   24 am 
    13    7    8 ar 
    14    7   12 ar 
    15    8    9 ar 
    16    9   10 ar 
    17   10   11 ar 
    18   11   12 ar 
    19   12   13 1  
    20   13   14 1  
    21   14   15 1  
    22   15   16 1  
    23   16   17 1  
    24   17   18 1  
    25   18   19 2  
    26   19   20 1  
    27   20   21 1  
    28   21   22 1  
    29   22   23 1  
    30   23   24 1  
    31   24   25 2  
    32    1   26 1  
    33    2   27 1  
    34    2   28 1  
    35    3   29 1  
    36    4   30 1  
    37    5   31 1  
    38    8   32 1  
    39    9   33 1  
    40   10   34 1  
    41   11   35 1  
    42   14   36 1  
    43   14   37 1  
    44   15   38 1  
    45   15   39 1  
    46   16   40 1  
    47   17   41 1  
    48   17   42 1  
    49   19   43 1  
    50   20   44 1  
    51   20   45 1  
    52   22   46 1  
    53   23   47 1  
    54   23   48 1  
@<TRIPOS>SUBSTRUCTURE
     1 SY9         1

