### 
### Created by X-TOOL on Mon Sep 10 21:13:33 2018
### 

@<TRIPOS>MOLECULE
5o91_ligand
   82    87     1     0     0
SMALL
GAST_HUCK


@<TRIPOS>ATOM
      1 O1         -0.5750   -7.1710  -16.3610 O.3       1 C5N        -0.3279
      2 O2          3.6630  -16.8900  -18.9880 O.2       1 C5N        -0.3761
      3 C1         -1.1470   -5.8950  -16.0880 C.3       1 C5N         0.0568
      4 C2         -0.9610   -8.2340  -15.5970 C.ar      1 C5N         0.1049
      5 C3         -1.0420   -8.1960  -14.2090 C.ar      1 C5N        -0.0241
      6 C4         -1.4400   -9.3220  -13.4850 C.ar      1 C5N         0.0206
      7 N1         -1.5140   -9.2710  -12.0770 N.pl3     1 C5N        -0.3064
      8 C5         -0.3820   -8.8050  -11.2750 C.3       1 C5N         0.0648
      9 C6         -0.1110   -9.7400  -10.1180 C.3       1 C5N        -0.0123
     10 N2         -1.3140   -9.9330   -9.3070 N.4       1 C5N         0.2358
     11 C7         -1.0310  -10.7920   -8.1560 C.3       1 C5N        -0.0430
     12 C8         -2.3650  -10.5200  -10.1380 C.3       1 C5N        -0.0123
     13 C9         -2.7110   -9.6390  -11.3190 C.3       1 C5N         0.0648
     14 C10        -1.7420  -10.4980  -14.1700 C.ar      1 C5N        -0.0642
     15 C11        -1.6660  -10.5520  -15.5440 C.ar      1 C5N        -0.0568
     16 C12        -1.2750   -9.4240  -16.2690 C.ar      1 C5N         0.0832
     17 N3         -1.1550   -9.4540  -17.6820 N.pl3     1 C5N        -0.2525
     18 C13        -0.5790  -10.4080  -18.4740 C.ar      1 C5N         0.2015
     19 N4         -0.6850  -10.2930  -19.8170 N.ar      1 C5N        -0.2458
     20 C14        -0.1270  -11.2480  -20.5470 C.ar      1 C5N         0.0262
     21 C15         0.5750  -12.3670  -19.9420 C.ar      1 C5N         0.0146
     22 C16         1.1860  -13.4820  -20.7590 C.ar      1 C5N        -0.0574
     23 C17         2.1800  -14.4050  -20.0740 C.ar      1 C5N        -0.0609
     24 C18         2.0000  -14.4770  -18.5850 C.ar      1 C5N         0.0318
     25 C19         1.3000  -13.5120  -17.8940 C.ar      1 C5N         0.1219
     26 N5          1.3380  -13.8450  -16.5790 N.pl3     1 C5N        -0.1885
     27 C20         0.7370  -13.1720  -15.4390 C.3       1 C5N         0.0611
     28 N6          2.0650  -14.9910  -16.4160 N.2       1 C5N        -0.1709
     29 C21         2.4740  -15.3690  -17.6400 C.2       1 C5N         0.1413
     30 C22         3.2890  -16.5880  -17.8540 C.2       1 C5N         0.2383
     31 N7          3.5340  -17.3480  -16.7530 N.am      1 C5N        -0.2393
     32 C23         4.1700  -18.6330  -16.7350 C.ar      1 C5N         0.0707
     33 C24         5.5610  -18.6920  -16.5980 C.ar      1 C5N        -0.0275
     34 C25         6.4150  -17.4550  -16.4470 C.3       1 C5N        -0.0276
     35 C26         6.6070  -16.9990  -15.0240 C.3       1 C5N        -0.0576
     36 C27         6.1610  -19.9530  -16.5960 C.ar      1 C5N        -0.0801
     37 C28         5.4170  -21.1050  -16.7280 C.ar      1 C5N        -0.0903
     38 C29         4.0490  -21.0220  -16.8660 C.ar      1 C5N        -0.0801
     39 C30         3.3910  -19.7900  -16.8750 C.ar      1 C5N        -0.0275
     40 C31         1.8870  -19.7550  -17.0200 C.3       1 C5N        -0.0276
     41 C32         1.1220  -19.9280  -15.7260 C.3       1 C5N        -0.0576
     42 C33         0.6350  -12.3990  -18.5510 C.ar      1 C5N         0.0769
     43 N8          0.0550  -11.4200  -17.8240 N.ar      1 C5N        -0.2614
     44 H1         -0.7347   -5.1515  -16.7860 H         1 C5N         0.0573
     45 H2         -0.9092   -5.5999  -15.0554 H         1 C5N         0.0573
     46 H3         -2.2387   -5.9484  -16.2120 H         1 C5N         0.0573
     47 H4         -0.7932   -7.2815  -13.6829 H         1 C5N         0.0409
     48 H5         -0.6092   -7.8033  -10.8813 H         1 C5N         0.0563
     49 H6          0.5129   -8.7542  -11.9126 H         1 C5N         0.0563
     50 H7          0.6827   -9.3122   -9.4880 H         1 C5N         0.0834
     51 H8          0.2176  -10.7133  -10.5113 H         1 C5N         0.0834
     52 H9         -1.6270   -9.0362   -8.9697 H         1 C5N         0.2032
     53 H10        -1.9476  -10.9229   -7.5621 H         1 C5N         0.0778
     54 H11        -0.2537  -10.3257   -7.5328 H         1 C5N         0.0778
     55 H12        -0.6791  -11.7729   -8.5082 H         1 C5N         0.0778
     56 H13        -3.2665  -10.6609   -9.5237 H         1 C5N         0.0834
     57 H14        -2.0196  -11.4953  -10.5115 H         1 C5N         0.0834
     58 H15        -3.4014  -10.1822  -11.9810 H         1 C5N         0.0563
     59 H16        -3.1985   -8.7236  -10.9524 H         1 C5N         0.0563
     60 H17        -2.0401  -11.3800  -13.6148 H         1 C5N         0.0397
     61 H18        -1.9100  -11.4715  -16.0637 H         1 C5N         0.0475
     62 H19        -1.5568   -8.6466  -18.1795 H         1 C5N         0.2119
     63 H20        -0.1964  -11.1927  -21.6274 H         1 C5N         0.0961
     64 H21         0.9232  -13.6191  -21.8017 H         1 C5N         0.0556
     65 H22         2.9445  -14.9576  -20.6082 H         1 C5N         0.0588
     66 H23         0.9751  -13.7259  -14.5189 H         1 C5N         0.0596
     67 H24        -0.3543  -13.1316  -15.5706 H         1 C5N         0.0596
     68 H25         1.1356  -12.1494  -15.3649 H         1 C5N         0.0596
     69 H26         3.2428  -16.9751  -15.8720 H         1 C5N         0.2207
     70 H27         5.9386  -16.6378  -17.0084 H         1 C5N         0.0392
     71 H28         7.4053  -17.6665  -16.8767 H         1 C5N         0.0392
     72 H29         7.2377  -16.0979  -15.0097 H         1 C5N         0.0248
     73 H30         7.0951  -17.7974  -14.4458 H         1 C5N         0.0248
     74 H31         5.6284  -16.7687  -14.5775 H         1 C5N         0.0248
     75 H32         7.2371  -20.0271  -16.4881 H         1 C5N         0.0460
     76 H33         5.9060  -22.0724  -16.7233 H         1 C5N         0.0455
     77 H34         3.4704  -21.9328  -16.9699 H         1 C5N         0.0460
     78 H35         1.5900  -20.5635  -17.7041 H         1 C5N         0.0392
     79 H36         1.6074  -18.7845  -17.4559 H         1 C5N         0.0392
     80 H37         0.0419  -19.8889  -15.9306 H         1 C5N         0.0248
     81 H38         1.3927  -19.1210  -15.0293 H         1 C5N         0.0248
     82 H39         1.3752  -20.8999  -15.2775 H         1 C5N         0.0248
@<TRIPOS>BOND
     1    1    3 1  
     2    4    1 1  
     3   30    2 2  
     4    4    5 ar 
     5   16    4 ar 
     6    5    6 ar 
     7    6    7 1  
     8   14    6 ar 
     9    7    8 1  
    10    7   13 1  
    11    8    9 1  
    12    9   10 1  
    13   10   11 1  
    14   12   10 1  
    15   13   12 1  
    16   15   14 ar 
    17   16   15 ar 
    18   17   16 1  
    19   18   17 1  
    20   19   18 ar 
    21   18   43 ar 
    22   20   19 ar 
    23   21   20 ar 
    24   22   21 ar 
    25   42   21 ar 
    26   23   22 ar 
    27   24   23 ar 
    28   24   25 ar 
    29   29   24 1  
    30   26   25 1  
    31   25   42 ar 
    32   26   27 1  
    33   28   26 1  
    34   29   28 2  
    35   29   30 1  
    36   30   31 am 
    37   31   32 1  
    38   32   33 ar 
    39   32   39 ar 
    40   33   34 1  
    41   33   36 ar 
    42   34   35 1  
    43   36   37 ar 
    44   37   38 ar 
    45   38   39 ar 
    46   39   40 1  
    47   40   41 1  
    48   42   43 ar 
    49    3   44 1  
    50    3   45 1  
    51    3   46 1  
    52    5   47 1  
    53    8   48 1  
    54    8   49 1  
    55    9   50 1  
    56    9   51 1  
    57   10   52 1  
    58   11   53 1  
    59   11   54 1  
    60   11   55 1  
    61   12   56 1  
    62   12   57 1  
    63   13   58 1  
    64   13   59 1  
    65   14   60 1  
    66   15   61 1  
    67   17   62 1  
    68   20   63 1  
    69   22   64 1  
    70   23   65 1  
    71   27   66 1  
    72   27   67 1  
    73   27   68 1  
    74   31   69 1  
    75   34   70 1  
    76   34   71 1  
    77   35   72 1  
    78   35   73 1  
    79   35   74 1  
    80   36   75 1  
    81   37   76 1  
    82   38   77 1  
    83   40   78 1  
    84   40   79 1  
    85   41   80 1  
    86   41   81 1  
    87   41   82 1  
@<TRIPOS>SUBSTRUCTURE
     1 C5N         1

