### 
### Created by X-TOOL on Wed Jan  1 15:39:37 2020
### 

@<TRIPOS>MOLECULE
5o9h_ligand
   79    85     1     0     0
SMALL
GAST_HUCK


@<TRIPOS>ATOM
      1 C15       102.1110  -11.3540   29.6470 C.ar      1 9P2        -0.0476
      2 C16       102.3080  -12.6030   29.0520 C.ar      1 9P2         0.1160
      3 C17       103.4770  -13.2540   29.2060 C.ar      1 9P2         0.1171
      4 C18       104.5700  -12.6480   30.0180 C.ar      1 9P2        -0.0347
      5 C20       102.0030  -14.6520   28.0810 C.3       1 9P2         0.1854
      6 C01       102.4490  -14.0990   32.9420 C.2       1 9P2         0.1355
      7 N02       103.6060  -14.8920   32.7790 N.2       1 9P2        -0.3232
      8 C03       104.6970  -14.1420   33.0260 C.2       1 9P2         0.0353
      9 C04       104.2380  -12.8340   33.3760 C.2       1 9P2         0.1235
     10 N05       102.8440  -12.8570   33.2900 N.pl3     1 9P2        -0.2297
     11 C06       102.0170  -11.7570   33.5840 C.3       1 9P2         0.0599
     12 C07       101.8840  -11.7310   35.1120 C.3       1 9P2        -0.0252
     13 C08       100.7980  -10.7640   35.6610 C.3       1 9P2        -0.0534
     14 C09       100.7090  -10.8760   37.2200 C.3       1 9P2        -0.0652
     15 C10       105.1260  -11.5730   33.7430 C.3       1 9P2         0.0348
     16 N11       104.8360  -10.5010   32.8100 N.4       1 9P2         0.2712
     17 C12       105.4540  -10.7420   31.4670 C.3       1 9P2        -0.0022
     18 C13       104.3740  -11.3970   30.6080 C.ar      1 9P2        -0.0182
     19 C14       103.1890  -10.7500   30.4530 C.ar      1 9P2        -0.0751
     20 O19       103.4000  -14.5030   28.4870 O.3       1 9P2        -0.2927
     21 O21       101.4130  -13.3760   28.2330 O.3       1 9P2        -0.2956
     22 C22       105.1520   -9.2030   33.3630 C.3       1 9P2        -0.0022
     23 C23       103.8020   -8.5240   33.7930 C.ar      1 9P2        -0.0182
     24 C24       103.6110   -8.0840   35.0740 C.ar      1 9P2        -0.0347
     25 C25       102.3040   -7.4480   35.4510 C.ar      1 9P2         0.1171
     26 O26       101.8490   -6.9300   36.6230 O.3       1 9P2        -0.2927
     27 C27       100.6680   -6.2250   36.3110 C.3       1 9P2         0.1854
     28 O28       100.2230   -6.7080   35.1060 O.3       1 9P2        -0.2956
     29 C29       101.2980   -7.3100   34.5130 C.ar      1 9P2         0.1160
     30 C30       101.4980   -7.7760   33.1710 C.ar      1 9P2        -0.0476
     31 C31       102.7460   -8.3820   32.8150 C.ar      1 9P2        -0.0751
     32 C32       105.9850  -14.5930   32.9770 C.ar      1 9P2        -0.0335
     33 C33       106.4640  -15.2480   31.8450 C.ar      1 9P2        -0.0646
     34 C34       107.8010  -15.7260   31.8220 C.ar      1 9P2        -0.0691
     35 C35       108.6370  -15.5540   32.9320 C.ar      1 9P2        -0.0688
     36 C36       108.1470  -14.8960   34.0920 C.ar      1 9P2        -0.0691
     37 C37       106.8340  -14.4290   34.1150 C.ar      1 9P2        -0.0646
     38 C38       101.0760  -14.5910   32.7440 C.ar      1 9P2         0.0224
     39 C39       100.1600  -13.8940   31.9360 C.ar      1 9P2        -0.0502
     40 C40        98.8690  -14.3660   31.7510 C.ar      1 9P2        -0.0612
     41 C41        98.4790  -15.5330   32.3470 C.ar      1 9P2        -0.0619
     42 C42        99.3980  -16.2420   33.1490 C.ar      1 9P2        -0.0612
     43 C43       100.6910  -15.7580   33.3310 C.ar      1 9P2        -0.0502
     44 H1        101.1703  -10.8313   29.5169 H         1 9P2         0.0493
     45 H2        105.5090  -13.1734   30.1496 H         1 9P2         0.0452
     46 H3        101.4949  -15.3865   28.7231 H         1 9P2         0.0970
     47 H4        101.9428  -14.9780   27.0322 H         1 9P2         0.0970
     48 H5        101.0298  -11.8839   33.1157 H         1 9P2         0.0619
     49 H6        102.4767  -10.8249   33.2236 H         1 9P2         0.0619
     50 H7        102.8541  -11.4293   35.5338 H         1 9P2         0.0292
     51 H8        101.6375  -12.7482   35.4503 H         1 9P2         0.0292
     52 H9         99.8238  -11.0256   35.2222 H         1 9P2         0.0264
     53 H10       101.0588   -9.7314   35.3857 H         1 9P2         0.0264
     54 H11        99.9374  -10.1868   37.5936 H         1 9P2         0.0230
     55 H12       101.6810  -10.6128   37.6626 H         1 9P2         0.0230
     56 H13       100.4460  -11.9070   37.4992 H         1 9P2         0.0230
     57 H14       106.1909  -11.8406   33.6772 H         1 9P2         0.1037
     58 H15       104.8932  -11.2437   34.7664 H         1 9P2         0.1037
     59 H16       103.8384  -10.5098   32.6658 H         1 9P2         0.2079
     60 H17       106.3223  -11.4106   31.5620 H         1 9P2         0.0958
     61 H18       105.7720   -9.7896   31.0178 H         1 9P2         0.0958
     62 H19       103.0352   -9.7857   30.9237 H         1 9P2         0.0438
     63 H20       105.6567   -8.5859   32.6051 H         1 9P2         0.0958
     64 H21       105.8083   -9.3185   34.2381 H         1 9P2         0.0958
     65 H22       104.3976   -8.1937   35.8118 H         1 9P2         0.0452
     66 H23       100.8795   -5.1484   36.2323 H         1 9P2         0.0970
     67 H24        99.9096   -6.3938   37.0897 H         1 9P2         0.0970
     68 H25       100.7113   -7.6704   32.4327 H         1 9P2         0.0493
     69 H26       102.9005   -8.7377   31.8027 H         1 9P2         0.0438
     70 H27       105.8193  -15.3922   30.9856 H         1 9P2         0.0556
     71 H28       108.1774  -16.2280   30.9381 H         1 9P2         0.0598
     72 H29       109.6562  -15.9222   32.9064 H         1 9P2         0.0558
     73 H30       108.7902  -14.7581   34.9536 H         1 9P2         0.0598
     74 H31       106.4537  -13.9375   35.0031 H         1 9P2         0.0556
     75 H32       100.4673  -12.9747   31.4508 H         1 9P2         0.0626
     76 H33        98.1707  -13.8108   31.1352 H         1 9P2         0.0617
     77 H34        97.4727  -15.9101   32.2046 H         1 9P2         0.0616
     78 H35        99.0963  -17.1676   33.6257 H         1 9P2         0.0617
     79 H36       101.3939  -16.3124   33.9423 H         1 9P2         0.0626
@<TRIPOS>BOND
     1    2    1 ar 
     2    1   19 ar 
     3    3    2 ar 
     4    2   21 1  
     5    4    3 ar 
     6    3   20 1  
     7   18    4 ar 
     8   20    5 1  
     9    5   21 1  
    10    6    7 2  
    11   10    6 1  
    12    6   38 1  
    13    8    7 1  
    14    9    8 2  
    15    8   32 1  
    16    9   10 1  
    17   15    9 1  
    18   10   11 1  
    19   11   12 1  
    20   12   13 1  
    21   13   14 1  
    22   16   15 1  
    23   17   16 1  
    24   16   22 1  
    25   17   18 1  
    26   18   19 ar 
    27   22   23 1  
    28   23   24 ar 
    29   23   31 ar 
    30   24   25 ar 
    31   25   26 1  
    32   25   29 ar 
    33   26   27 1  
    34   27   28 1  
    35   28   29 1  
    36   29   30 ar 
    37   30   31 ar 
    38   32   33 ar 
    39   32   37 ar 
    40   33   34 ar 
    41   34   35 ar 
    42   35   36 ar 
    43   36   37 ar 
    44   38   39 ar 
    45   38   43 ar 
    46   39   40 ar 
    47   40   41 ar 
    48   41   42 ar 
    49   42   43 ar 
    50    1   44 1  
    51    4   45 1  
    52    5   46 1  
    53    5   47 1  
    54   11   48 1  
    55   11   49 1  
    56   12   50 1  
    57   12   51 1  
    58   13   52 1  
    59   13   53 1  
    60   14   54 1  
    61   14   55 1  
    62   14   56 1  
    63   15   57 1  
    64   15   58 1  
    65   16   59 1  
    66   17   60 1  
    67   17   61 1  
    68   19   62 1  
    69   22   63 1  
    70   22   64 1  
    71   24   65 1  
    72   27   66 1  
    73   27   67 1  
    74   30   68 1  
    75   31   69 1  
    76   33   70 1  
    77   34   71 1  
    78   35   72 1  
    79   36   73 1  
    80   37   74 1  
    81   39   75 1  
    82   40   76 1  
    83   41   77 1  
    84   42   78 1  
    85   43   79 1  
@<TRIPOS>SUBSTRUCTURE
     1 9P2         1

