### 
### Created by X-TOOL on Wed Jan  1 15:39:37 2020
### 

@<TRIPOS>MOLECULE
5o9o_ligand
   94    99     1     0     0
SMALL
GAST_HUCK


@<TRIPOS>ATOM
      1 C4         16.1760   13.5730   21.9470 C.3       1 9PB         0.1123
      2 C5         15.7400   12.1400   22.1520 C.3       1 9PB         0.1130
      3 C6         16.7770   11.4110   23.0280 C.3       1 9PB         0.0730
      4 C3         15.1570   14.2730   21.1060 C.3       1 9PB         0.1206
      5 CBS         3.6370    7.4830   16.9230 C.ar      1 9PB        -0.0527
      6 CBT         3.2150    7.9890   15.6940 C.ar      1 9PB        -0.0258
      7 CBY         3.4520    7.2740   14.5270 C.ar      1 9PB        -0.0578
      8 CBX         3.0310    7.7820   13.3010 C.ar      1 9PB        -0.0637
      9 CBW         2.3680    9.0020   13.2350 C.ar      1 9PB        -0.0634
     10 CBV         2.1260    9.7200   14.3990 C.ar      1 9PB        -0.0568
     11 CBU         2.5510    9.2130   15.6210 C.ar      1 9PB        -0.0222
     12 CBP         2.3050    9.9350   16.7780 C.ar      1 9PB        -0.0567
     13 CBQ         2.7280    9.4340   18.0040 C.ar      1 9PB        -0.0544
     14 CBR         3.3860    8.2120   18.0840 C.ar      1 9PB        -0.0165
     15 CBN         3.7940    7.7580   19.3370 C.3       1 9PB         0.0837
     16 OBO         5.0330    8.4060   19.6790 O.3       1 9PB        -0.3584
     17 CBM         5.3120    8.2130   21.0500 C.3       1 9PB         0.0851
     18 CBL         6.5280    9.0320   21.4760 C.2       1 9PB         0.0628
     19 CBH         7.6990    8.5680   21.8780 C.2       1 9PB         0.0744
     20 NBK         6.5690   10.3510   21.5760 N.2       1 9PB        -0.2241
     21 NBJ         7.6880   10.6690   21.9620 N.2       1 9PB        -0.0996
     22 NBI         8.4270    9.6790   22.0820 N.pl3     1 9PB        -0.1506
     23 CAG         9.7480    9.9020   22.6740 C.3       1 9PB         0.2151
     24 CAK        10.3140   11.2310   22.3000 C.3       1 9PB         0.1416
     25 OBA        10.5980   11.0960   20.9040 O.3       1 9PB        -0.3833
     26 OAY         9.5580    9.8690   24.0720 O.3       1 9PB        -0.3346
     27 CAI        10.7780   10.0680   24.8210 C.3       1 9PB         0.1137
     28 CAJ        10.2460   10.3420   26.2320 C.3       1 9PB         0.0730
     29 OBB         9.4350    9.2720   26.6490 O.3       1 9PB        -0.3924
     30 CAH        11.3590   11.3750   24.4480 C.3       1 9PB         0.1123
     31 OAZ        12.5900   11.5100   25.1770 O.3       1 9PB        -0.3865
     32 CAL        11.6400   11.3790   22.9530 C.3       1 9PB         0.1213
     33 O1         12.1950   12.6620   22.6080 O.3       1 9PB        -0.3400
     34 C1         13.4620   12.7250   21.9800 C.3       1 9PB         0.1884
     35 C2         13.7910   14.2030   21.7780 C.3       1 9PB         0.1345
     36 O2         12.7640   14.7670   20.9200 O.3       1 9PB        -0.3841
     37 O5         14.4650   12.0790   22.8000 O.3       1 9PB        -0.3405
     38 O6         16.8580   12.0720   24.2780 O.3       1 9PB        -0.3924
     39 O4         17.3780   13.5130   21.1660 O.3       1 9PB        -0.3865
     40 O3         15.5350   15.6180   20.8950 O.3       1 9PB        -0.3401
     41 CAM        15.2340   16.2290   19.6750 C.3       1 9PB         0.1884
     42 OBD        15.9940   15.4890   18.7470 O.3       1 9PB        -0.3405
     43 CAO        15.8030   16.0010   17.4060 C.3       1 9PB         0.1130
     44 CAP        16.5540   15.0350   16.4500 C.3       1 9PB         0.0730
     45 OBG        17.9510   14.9420   16.7970 O.3       1 9PB        -0.3924
     46 CAN        16.2640   17.4690   17.3710 C.3       1 9PB         0.1119
     47 OBE        15.9720   17.9900   16.0720 O.3       1 9PB        -0.3865
     48 CAR        15.4630   18.2980   18.3620 C.3       1 9PB         0.1141
     49 OBC        16.0400   19.5930   18.4430 O.3       1 9PB        -0.3864
     50 CAQ        15.7030   17.6870   19.7180 C.3       1 9PB         0.1341
     51 OBF        15.0070   18.3620   20.7810 O.3       1 9PB        -0.3841
     52 H1         16.3313   14.0899   22.9055 H         1 9PB         0.0647
     53 H2         15.6716   11.6423   21.1734 H         1 9PB         0.0647
     54 H3         17.7595   11.4316   22.5337 H         1 9PB         0.0584
     55 H4         16.4650   10.3673   23.1804 H         1 9PB         0.0584
     56 H5         15.0966   13.7679   20.1307 H         1 9PB         0.0651
     57 H6          4.1551    6.5322   16.9748 H         1 9PB         0.0532
     58 H7          3.9650    6.3201   14.5708 H         1 9PB         0.0603
     59 H8          3.2214    7.2226   12.3922 H         1 9PB         0.0611
     60 H9          2.0408    9.3918   12.2779 H         1 9PB         0.0598
     61 H10         1.6081   10.6712   14.3544 H         1 9PB         0.0619
     62 H11         1.7856   10.8851   16.7274 H         1 9PB         0.0620
     63 H12         2.5426   10.0028   18.9080 H         1 9PB         0.0587
     64 H13         3.9418    6.6684   19.3063 H         1 9PB         0.0728
     65 H14         3.0281    8.0032   20.0875 H         1 9PB         0.0728
     66 H15         5.5141    7.1469   21.2304 H         1 9PB         0.0679
     67 H16         4.4403    8.5265   21.6431 H         1 9PB         0.0679
     68 H17         8.0020    7.5306   22.0121 H         1 9PB         0.0900
     69 H18        10.4400    9.1076   22.3577 H         1 9PB         0.1031
     70 H19         9.6348   12.0647   22.5315 H         1 9PB         0.0679
     71 H20        11.2200   10.3896   20.7754 H         1 9PB         0.2101
     72 H21        11.4869    9.2305   24.7431 H         1 9PB         0.0647
     73 H22         9.6536   11.2688   26.2258 H         1 9PB         0.0584
     74 H23        11.0918   10.4520   26.9267 H         1 9PB         0.0584
     75 H24         8.7043    9.1775   26.0493 H         1 9PB         0.2095
     76 H25        10.6696   12.1930   24.7042 H         1 9PB         0.0647
     77 H26        12.4101   11.4755   26.1092 H         1 9PB         0.2100
     78 H27        12.3226   10.5656   22.6659 H         1 9PB         0.0652
     79 H28        13.4183   12.2195   21.0040 H         1 9PB         0.0938
     80 H29        13.8137   14.7345   22.7408 H         1 9PB         0.0671
     81 H30        11.9159   14.6696   21.3370 H         1 9PB         0.2101
     82 H31        17.4952   11.6309   24.8275 H         1 9PB         0.2095
     83 H32        17.6605   14.3947   20.9534 H         1 9PB         0.2100
     84 H33        14.1591   16.1794   19.4465 H         1 9PB         0.0938
     85 H34        14.7337   15.9771   17.1490 H         1 9PB         0.0647
     86 H35        16.4641   15.4080   15.4191 H         1 9PB         0.0584
     87 H36        16.0995   14.0357   16.5193 H         1 9PB         0.0584
     88 H37        18.3495   15.8022   16.7350 H         1 9PB         0.2095
     89 H38        17.3396   17.5367   17.5914 H         1 9PB         0.0647
     90 H39        16.2486   18.8978   16.0266 H         1 9PB         0.2100
     91 H40        14.3961   18.3347   18.0967 H         1 9PB         0.0648
     92 H41        15.5467   20.1202   19.0604 H         1 9PB         0.2100
     93 H42        16.7816   17.7204   19.9312 H         1 9PB         0.0671
     94 H43        15.1978   17.9318   21.6062 H         1 9PB         0.2101
@<TRIPOS>BOND
     1    1    2 1  
     2    4    1 1  
     3    1   39 1  
     4    2    3 1  
     5    2   37 1  
     6    3   38 1  
     7   35    4 1  
     8    4   40 1  
     9    5    6 ar 
    10   14    5 ar 
    11    6    7 ar 
    12    6   11 ar 
    13    7    8 ar 
    14    8    9 ar 
    15   10    9 ar 
    16   11   10 ar 
    17   12   11 ar 
    18   13   12 ar 
    19   14   13 ar 
    20   15   14 1  
    21   16   15 1  
    22   17   16 1  
    23   18   17 1  
    24   19   18 2  
    25   20   18 1  
    26   22   19 1  
    27   21   20 2  
    28   22   21 1  
    29   23   22 1  
    30   24   23 1  
    31   23   26 1  
    32   24   25 1  
    33   32   24 1  
    34   27   26 1  
    35   27   28 1  
    36   30   27 1  
    37   28   29 1  
    38   30   31 1  
    39   32   30 1  
    40   33   32 1  
    41   34   33 1  
    42   34   35 1  
    43   34   37 1  
    44   35   36 1  
    45   40   41 1  
    46   41   42 1  
    47   41   50 1  
    48   42   43 1  
    49   43   44 1  
    50   43   46 1  
    51   44   45 1  
    52   46   47 1  
    53   46   48 1  
    54   48   49 1  
    55   48   50 1  
    56   50   51 1  
    57    1   52 1  
    58    2   53 1  
    59    3   54 1  
    60    3   55 1  
    61    4   56 1  
    62    5   57 1  
    63    7   58 1  
    64    8   59 1  
    65    9   60 1  
    66   10   61 1  
    67   12   62 1  
    68   13   63 1  
    69   15   64 1  
    70   15   65 1  
    71   17   66 1  
    72   17   67 1  
    73   19   68 1  
    74   23   69 1  
    75   24   70 1  
    76   25   71 1  
    77   27   72 1  
    78   28   73 1  
    79   28   74 1  
    80   29   75 1  
    81   30   76 1  
    82   31   77 1  
    83   32   78 1  
    84   34   79 1  
    85   35   80 1  
    86   36   81 1  
    87   38   82 1  
    88   39   83 1  
    89   41   84 1  
    90   43   85 1  
    91   44   86 1  
    92   44   87 1  
    93   45   88 1  
    94   46   89 1  
    95   47   90 1  
    96   48   91 1  
    97   49   92 1  
    98   50   93 1  
    99   51   94 1  
@<TRIPOS>SUBSTRUCTURE
     1 9PB         1

