### 
### Created by X-TOOL on Wed Jan  1 15:39:37 2020
### 

@<TRIPOS>MOLECULE
5o9p_ligand
   87    91     1     0     0
SMALL
GAST_HUCK


@<TRIPOS>ATOM
      1 C4          9.0930   17.0800  -17.2120 C.3       1 9P8         0.1119
      2 C5          9.5810   15.6290  -17.2240 C.3       1 9P8         0.1130
      3 C6          8.8110   14.8170  -16.1900 C.3       1 9P8         0.0730
      4 N1         20.3450    7.5220  -16.6670 N.ar      1 9P8        -0.2957
      5 C3          9.8500   17.8530  -18.2880 C.3       1 9P8         0.1141
      6 CBQ        22.4930    6.6400  -16.7940 C.ar      1 9P8        -0.0301
      7 CBS        22.5230    6.6150  -15.4170 C.ar      1 9P8        -0.0488
      8 CBV        21.4650    7.0620  -14.6290 C.ar      1 9P8        -0.0410
      9 CBT        20.3400    7.5530  -15.2570 C.ar      1 9P8         0.0029
     10 CBP        21.3660    7.1130  -17.4400 C.ar      1 9P8         0.0539
     11 CBN        21.3540    7.1390  -18.8510 C.3       1 9P8         0.0987
     12 OBO        20.1210    7.6980  -19.3760 O.3       1 9P8        -0.3560
     13 CBM        19.9520    7.5400  -20.8120 C.3       1 9P8         0.0854
     14 CBI        18.7630    8.3650  -21.3370 C.2       1 9P8         0.0628
     15 CBH        17.5400    7.9360  -21.6110 C.2       1 9P8         0.0744
     16 NBL        18.8150    9.6490  -21.5790 N.2       1 9P8        -0.2241
     17 NBK        17.7160   10.0060  -21.9540 N.2       1 9P8        -0.0996
     18 NBJ        16.8750    9.0140  -21.9910 N.pl3     1 9P8        -0.1506
     19 CAM        15.5020    9.2270  -22.4940 C.3       1 9P8         0.2151
     20 CAL        14.9060   10.5800  -22.1320 C.3       1 9P8         0.1416
     21 OBB        14.5300   10.5740  -20.7450 O.3       1 9P8        -0.3833
     22 OBE        15.7950    9.2180  -23.8760 O.3       1 9P8        -0.3346
     23 CAN        14.6610    9.3490  -24.7140 C.3       1 9P8         0.1137
     24 CAR        15.1630    9.1550  -26.1720 C.3       1 9P8         0.0730
     25 OAU        15.8960   10.3350  -26.5690 O.3       1 9P8        -0.3924
     26 CAO        13.9530   10.6840  -24.4870 C.3       1 9P8         0.1123
     27 OBA        12.7160   10.6910  -25.2590 O.3       1 9P8        -0.3865
     28 CAK        13.6470   10.8660  -22.9860 C.3       1 9P8         0.1213
     29 OBG        13.1860   12.1990  -22.6630 O.3       1 9P8        -0.3400
     30 CAH        11.9210   12.2140  -21.9640 C.3       1 9P8         0.1884
     31 CAG        11.5680   13.6650  -21.6050 C.3       1 9P8         0.1345
     32 OAZ        12.5520   14.2270  -20.6800 O.3       1 9P8        -0.3841
     33 OBD        10.8930   11.6390  -22.7830 O.3       1 9P8        -0.3405
     34 CAI         9.6860   11.5640  -21.9770 C.3       1 9P8         0.1130
     35 CAQ         8.6280   10.7810  -22.7370 C.3       1 9P8         0.0730
     36 OAT         8.3820   11.4940  -23.9510 O.3       1 9P8        -0.3924
     37 CAJ         9.1780   12.9640  -21.7480 C.3       1 9P8         0.1123
     38 OAY         7.9340   12.9070  -21.0280 O.3       1 9P8        -0.3865
     39 CAF        10.1930   13.7380  -20.9350 C.3       1 9P8         0.1206
     40 O1          9.8250   15.1100  -20.8350 O.3       1 9P8        -0.3401
     41 C1         10.1080   15.7200  -19.5590 C.3       1 9P8         0.1884
     42 O5          9.3660   15.0290  -18.5250 O.3       1 9P8        -0.3405
     43 O6          7.4430   14.7330  -16.5660 O.3       1 9P8        -0.3924
     44 O4          9.3630   17.6870  -15.9350 O.3       1 9P8        -0.3865
     45 O3          9.3260   19.1790  -18.3920 O.3       1 9P8        -0.3864
     46 C2          9.6870   17.1820  -19.6230 C.3       1 9P8         0.1341
     47 O2         10.4720   17.9150  -20.5860 O.3       1 9P8        -0.3841
     48 H1          8.0124   17.1099  -17.4155 H         1 9P8         0.0647
     49 H2         10.6544   15.6079  -16.9845 H         1 9P8         0.0647
     50 H3          8.8905   15.3065  -15.2081 H         1 9P8         0.0584
     51 H4          9.2362   13.8043  -16.1304 H         1 9P8         0.0584
     52 H5         10.9167   17.8948  -18.0229 H         1 9P8         0.0648
     53 H6         23.3455    6.2919  -17.3659 H         1 9P8         0.0652
     54 H7         23.4091    6.2305  -14.9250 H         1 9P8         0.0719
     55 H8         21.5247    7.0247  -13.5473 H         1 9P8         0.0652
     56 H9         19.4971    7.9419  -14.6972 H         1 9P8         0.0803
     57 H10        21.4652    6.1108  -19.2258 H         1 9P8         0.0756
     58 H11        22.1984    7.7505  -19.2018 H         1 9P8         0.0756
     59 H12        19.7758    6.4776  -21.0359 H         1 9P8         0.0679
     60 H13        20.8696    7.8742  -21.3183 H         1 9P8         0.0679
     61 H14        17.1638    6.9166  -21.5389 H         1 9P8         0.0900
     62 H15        14.8196    8.4203  -22.1883 H         1 9P8         0.1031
     63 H16        15.6543   11.3664  -22.3097 H         1 9P8         0.0679
     64 H17        13.8868    9.8911  -20.5954 H         1 9P8         0.2101
     65 H18        13.9459    8.5470  -24.4789 H         1 9P8         0.0647
     66 H19        14.3038    9.0094  -26.8433 H         1 9P8         0.0584
     67 H20        15.8215    8.2753  -26.2231 H         1 9P8         0.0584
     68 H21        16.2082   10.2277  -27.4598 H         1 9P8         0.2095
     69 H22        14.6007   11.5059  -24.8260 H         1 9P8         0.0647
     70 H23        12.2658   11.5169  -25.1262 H         1 9P8         0.2100
     71 H24        12.8594   10.1487  -22.7118 H         1 9P8         0.0652
     72 H25        12.0116   11.6247  -21.0396 H         1 9P8         0.0938
     73 H26        11.5545   14.2636  -22.5278 H         1 9P8         0.0671
     74 H27        12.5678   13.7096  -19.8834 H         1 9P8         0.2101
     75 H28         9.9014   11.0748  -21.0156 H         1 9P8         0.0647
     76 H29         7.7049   10.7153  -22.1424 H         1 9P8         0.0584
     77 H30         8.9935    9.7678  -22.9600 H         1 9P8         0.0584
     78 H31         7.7227   11.0352  -24.4584 H         1 9P8         0.2095
     79 H32         9.0220   13.4632  -22.7157 H         1 9P8         0.0647
     80 H33         7.2980   12.4165  -21.5353 H         1 9P8         0.2100
     81 H34        10.2512   13.3016  -19.9270 H         1 9P8         0.0651
     82 H35        11.1847   15.6542  -19.3439 H         1 9P8         0.0938
     83 H36         7.0754   15.6076  -16.6168 H         1 9P8         0.2095
     84 H37         9.0736   18.5917  -15.9482 H         1 9P8         0.2100
     85 H38         9.8014   19.6545  -19.0632 H         1 9P8         0.2100
     86 H39         8.6283   17.2242  -19.9185 H         1 9P8         0.0671
     87 H40        11.3891   17.8755  -20.3412 H         1 9P8         0.2101
@<TRIPOS>BOND
     1    2    1 1  
     2    1    5 1  
     3    1   44 1  
     4    2    3 1  
     5   42    2 1  
     6    3   43 1  
     7    4    9 ar 
     8   10    4 ar 
     9    5   45 1  
    10    5   46 1  
    11    6    7 ar 
    12   10    6 ar 
    13    7    8 ar 
    14    9    8 ar 
    15   11   10 1  
    16   12   11 1  
    17   13   12 1  
    18   14   13 1  
    19   15   14 2  
    20   16   14 1  
    21   18   15 1  
    22   17   16 2  
    23   18   17 1  
    24   19   18 1  
    25   20   19 1  
    26   19   22 1  
    27   20   21 1  
    28   28   20 1  
    29   23   22 1  
    30   23   24 1  
    31   26   23 1  
    32   24   25 1  
    33   26   27 1  
    34   28   26 1  
    35   29   28 1  
    36   30   29 1  
    37   31   30 1  
    38   30   33 1  
    39   31   32 1  
    40   39   31 1  
    41   34   33 1  
    42   34   35 1  
    43   37   34 1  
    44   35   36 1  
    45   37   38 1  
    46   39   37 1  
    47   40   39 1  
    48   41   40 1  
    49   41   42 1  
    50   41   46 1  
    51   46   47 1  
    52    1   48 1  
    53    2   49 1  
    54    3   50 1  
    55    3   51 1  
    56    5   52 1  
    57    6   53 1  
    58    7   54 1  
    59    8   55 1  
    60    9   56 1  
    61   11   57 1  
    62   11   58 1  
    63   13   59 1  
    64   13   60 1  
    65   15   61 1  
    66   19   62 1  
    67   20   63 1  
    68   21   64 1  
    69   23   65 1  
    70   24   66 1  
    71   24   67 1  
    72   25   68 1  
    73   26   69 1  
    74   27   70 1  
    75   28   71 1  
    76   30   72 1  
    77   31   73 1  
    78   32   74 1  
    79   34   75 1  
    80   35   76 1  
    81   35   77 1  
    82   36   78 1  
    83   37   79 1  
    84   38   80 1  
    85   39   81 1  
    86   41   82 1  
    87   43   83 1  
    88   44   84 1  
    89   45   85 1  
    90   46   86 1  
    91   47   87 1  
@<TRIPOS>SUBSTRUCTURE
     1 9P8         1

