### 
### Created by X-TOOL on Wed Jan  1 15:39:37 2020
### 

@<TRIPOS>MOLECULE
5o9q_ligand
   88    92     1     0     0
SMALL
GAST_HUCK


@<TRIPOS>ATOM
      1 C4         -9.0410   17.3320   17.3070 C.3       1 9PH         0.1119
      2 C5         -9.5290   15.8860   17.3760 C.3       1 9PH         0.1130
      3 C6         -8.8020   14.9630   16.3810 C.3       1 9PH         0.0730
      4 C3         -9.7480   18.1690   18.3760 C.3       1 9PH         0.1141
      5 CBQ       -22.6510    9.1970   17.4400 C.ar      1 9PH        -0.0581
      6 CBS       -22.8630    9.5320   16.0990 C.ar      1 9PH        -0.0685
      7 CBV       -22.2120    8.8270   15.0880 C.ar      1 9PH        -0.0687
      8 CBT       -21.3460    7.7860   15.4190 C.ar      1 9PH        -0.0685
      9 CBR       -21.1390    7.4540   16.7600 C.ar      1 9PH        -0.0581
     10 CBP       -21.7840    8.1530   17.7780 C.ar      1 9PH        -0.0173
     11 CBN       -21.5530    7.7990   19.1120 C.3       1 9PH         0.0835
     12 OBO       -20.2500    8.2550   19.4990 O.3       1 9PH        -0.3586
     13 CBM       -19.9190    7.9030   20.8430 C.3       1 9PH         0.0850
     14 CBI       -18.7780    8.7910   21.3410 C.2       1 9PH         0.0628
     15 CBH       -17.5540    8.4040   21.6500 C.2       1 9PH         0.0744
     16 NBL       -18.8630   10.0970   21.5400 N.2       1 9PH        -0.2241
     17 NBK       -17.7670   10.4850   21.9480 N.2       1 9PH        -0.0996
     18 NBJ       -16.9400    9.5230   22.0240 N.pl3     1 9PH        -0.1506
     19 CAM       -15.5620    9.6370   22.5080 C.3       1 9PH         0.2151
     20 CAL       -14.8770   10.9430   22.1190 C.3       1 9PH         0.1416
     21 OBB       -14.5530   10.8960   20.7270 O.3       1 9PH        -0.3833
     22 OBE       -15.7910    9.6120   23.9190 O.3       1 9PH        -0.3346
     23 CAN       -14.5810    9.6700   24.6850 C.3       1 9PH         0.1137
     24 CAR       -14.9060    9.4560   26.1720 C.3       1 9PH         0.0730
     25 OAU       -16.2000    9.9670   26.4540 O.3       1 9PH        -0.3924
     26 CAO       -13.9090   11.0100   24.4290 C.3       1 9PH         0.1123
     27 OBA       -12.6830   11.0970   25.1720 O.3       1 9PH        -0.3865
     28 CAK       -13.6040   11.1290   22.9430 C.3       1 9PH         0.1213
     29 OBG       -13.0890   12.4500   22.7160 O.3       1 9PH        -0.3400
     30 CAH       -11.8730   12.5020   21.9840 C.3       1 9PH         0.1884
     31 CAG       -11.5380   13.9680   21.7590 C.3       1 9PH         0.1345
     32 OAZ       -12.5780   14.5810   20.9780 O.3       1 9PH        -0.3841
     33 OBD       -10.8430   11.8960   22.7660 O.3       1 9PH        -0.3405
     34 CAI        -9.5720   11.8870   22.0990 C.3       1 9PH         0.1130
     35 CAQ        -8.5980   11.1630   23.0330 C.3       1 9PH         0.0730
     36 OAT        -8.4930   11.8610   24.2780 O.3       1 9PH        -0.3924
     37 CAJ        -9.1180   13.3290   21.8210 C.3       1 9PH         0.1123
     38 OAY        -7.9070   13.2980   21.0500 O.3       1 9PH        -0.3865
     39 CAF       -10.1940   14.0810   21.0460 C.3       1 9PH         0.1206
     40 O1         -9.8140   15.4630   20.9690 O.3       1 9PH        -0.3401
     41 C1        -10.0430   16.0670   19.6860 C.3       1 9PH         0.1884
     42 O5         -9.2600   15.3940   18.6930 O.3       1 9PH        -0.3405
     43 O6         -7.4250   14.8240   16.7500 O.3       1 9PH        -0.3924
     44 O4         -9.3340   17.8850   16.0180 O.3       1 9PH        -0.3865
     45 O3         -9.1590   19.4750   18.4140 O.3       1 9PH        -0.3864
     46 C2         -9.6140   17.5250   19.7530 C.3       1 9PH         0.1341
     47 O2        -10.4310   18.2370   20.6840 O.3       1 9PH        -0.3841
     48 H1         -7.9549   17.3577   17.4790 H         1 9PH         0.0647
     49 H2        -10.6097   15.8592   17.1728 H         1 9PH         0.0647
     50 H3         -8.8657   15.3951   15.3715 H         1 9PH         0.0584
     51 H4         -9.2814   13.9730   16.3870 H         1 9PH         0.0584
     52 H5        -10.8144   18.2539   18.1199 H         1 9PH         0.0648
     53 H6        -23.1610    9.7491   18.2211 H         1 9PH         0.0557
     54 H7        -23.5360   10.3429   15.8448 H         1 9PH         0.0599
     55 H8        -22.3784    9.0871   14.0489 H         1 9PH         0.0559
     56 H9        -20.8345    7.2355   14.6377 H         1 9PH         0.0599
     57 H10       -20.4673    6.6414   17.0120 H         1 9PH         0.0557
     58 H11       -21.6070    6.7054   19.2177 H         1 9PH         0.0726
     59 H12       -22.3131    8.2675   19.7545 H         1 9PH         0.0726
     60 H13       -19.6048    6.8494   20.8785 H         1 9PH         0.0679
     61 H14       -20.8002    8.0447   21.4859 H         1 9PH         0.0679
     62 H15       -17.1410    7.3972   21.6081 H         1 9PH         0.0900
     63 H16       -14.9487    8.7880   22.1717 H         1 9PH         0.1031
     64 H17       -15.5584   11.7854   22.3090 H         1 9PH         0.0679
     65 H18       -13.9694   10.1644   20.5634 H         1 9PH         0.2101
     66 H19       -13.9043    8.8676   24.3560 H         1 9PH         0.0647
     67 H20       -14.1622    9.9817   26.7888 H         1 9PH         0.0584
     68 H21       -14.8789    8.3806   26.4018 H         1 9PH         0.0584
     69 H22       -16.8418    9.5124   25.9211 H         1 9PH         0.2095
     70 H23       -14.5821   11.8240   24.7361 H         1 9PH         0.0647
     71 H24       -12.2718   11.9370   25.0051 H         1 9PH         0.2100
     72 H25       -12.8598   10.3738   22.6501 H         1 9PH         0.0652
     73 H26       -11.9775   11.9792   21.0218 H         1 9PH         0.0938
     74 H27       -11.4716   14.4781   22.7313 H         1 9PH         0.0671
     75 H28       -13.4040   14.5113   21.4422 H         1 9PH         0.2101
     76 H29        -9.6484   11.3431   21.1459 H         1 9PH         0.0647
     77 H30        -7.6068   11.1163   22.5584 H         1 9PH         0.0584
     78 H31        -8.9640   10.1425   23.2188 H         1 9PH         0.0584
     79 H32        -9.3478   11.9008   24.6906 H         1 9PH         0.2095
     80 H33        -8.9325   13.8430   22.7757 H         1 9PH         0.0647
     81 H34        -7.6215   14.1870   20.8750 H         1 9PH         0.2100
     82 H35       -10.2807   13.6610   20.0330 H         1 9PH         0.0651
     83 H36       -11.1099   16.0009   19.4266 H         1 9PH         0.0938
     84 H37        -7.3680   14.4492   17.6211 H         1 9PH         0.2095
     85 H38        -9.0241   18.7823   15.9817 H         1 9PH         0.2100
     86 H39        -8.2359   19.3989   18.6255 H         1 9PH         0.2100
     87 H40        -8.5644   17.5767   20.0782 H         1 9PH         0.0671
     88 H41       -10.3420   17.8461   21.5453 H         1 9PH         0.2101
@<TRIPOS>BOND
     1    2    1 1  
     2    1    4 1  
     3    1   44 1  
     4    2    3 1  
     5   42    2 1  
     6    3   43 1  
     7    4   45 1  
     8    4   46 1  
     9    5    6 ar 
    10   10    5 ar 
    11    6    7 ar 
    12    8    7 ar 
    13    9    8 ar 
    14   10    9 ar 
    15   11   10 1  
    16   12   11 1  
    17   13   12 1  
    18   14   13 1  
    19   15   14 2  
    20   16   14 1  
    21   18   15 1  
    22   17   16 2  
    23   18   17 1  
    24   19   18 1  
    25   20   19 1  
    26   19   22 1  
    27   20   21 1  
    28   28   20 1  
    29   23   22 1  
    30   23   24 1  
    31   26   23 1  
    32   24   25 1  
    33   26   27 1  
    34   28   26 1  
    35   29   28 1  
    36   30   29 1  
    37   31   30 1  
    38   30   33 1  
    39   31   32 1  
    40   39   31 1  
    41   34   33 1  
    42   34   35 1  
    43   37   34 1  
    44   35   36 1  
    45   37   38 1  
    46   39   37 1  
    47   40   39 1  
    48   41   40 1  
    49   41   42 1  
    50   41   46 1  
    51   46   47 1  
    52    1   48 1  
    53    2   49 1  
    54    3   50 1  
    55    3   51 1  
    56    4   52 1  
    57    5   53 1  
    58    6   54 1  
    59    7   55 1  
    60    8   56 1  
    61    9   57 1  
    62   11   58 1  
    63   11   59 1  
    64   13   60 1  
    65   13   61 1  
    66   15   62 1  
    67   19   63 1  
    68   20   64 1  
    69   21   65 1  
    70   23   66 1  
    71   24   67 1  
    72   24   68 1  
    73   25   69 1  
    74   26   70 1  
    75   27   71 1  
    76   28   72 1  
    77   30   73 1  
    78   31   74 1  
    79   32   75 1  
    80   34   76 1  
    81   35   77 1  
    82   35   78 1  
    83   36   79 1  
    84   37   80 1  
    85   38   81 1  
    86   39   82 1  
    87   41   83 1  
    88   43   84 1  
    89   44   85 1  
    90   45   86 1  
    91   46   87 1  
    92   47   88 1  
@<TRIPOS>SUBSTRUCTURE
     1 9PH         1

