### 
### Created by X-TOOL on Wed Jan  1 15:39:37 2020
### 

@<TRIPOS>MOLECULE
5o9r_ligand
   85    89     1     0     0
SMALL
GAST_HUCK


@<TRIPOS>ATOM
      1 C4         -9.0840   13.3830   21.8500 C.3       1 9PK         0.1123
      2 C5         -9.6770   11.9950   22.0290 C.3       1 9PK         0.1130
      3 C6         -8.6750   11.1030   22.7640 C.3       1 9PK         0.0730
      4 C3        -10.0830   14.2720   21.1270 C.3       1 9PK         0.1206
      5 CBT       -22.2360    9.2080   16.9780 C.2       1 9PK        -0.0795
      6 CBS       -22.3790    9.3330   15.6440 C.2       1 9PK        -0.0931
      7 CBR       -21.7460    8.3960   14.9250 C.2       1 9PK        -0.0195
      8 SBQ       -20.9870    7.3840   16.0040 S.3       1 9PK        -0.0421
      9 CBP       -21.4840    8.1630   17.3300 C.2       1 9PK         0.0380
     10 CBN       -21.1450    7.7650   18.7680 C.3       1 9PK         0.0949
     11 OBO       -19.8910    8.3420   19.1400 O.3       1 9PK        -0.3564
     12 CBM       -19.5460    7.9250   20.4630 C.3       1 9PK         0.0854
     13 CBL       -18.5160    8.8910   21.0520 C.2       1 9PK         0.0628
     14 CBH       -17.3340    8.5590   21.5340 C.2       1 9PK         0.0744
     15 NBK       -18.6600   10.2030   21.1640 N.2       1 9PK        -0.2241
     16 NBJ       -17.6400   10.6430   21.6780 N.2       1 9PK        -0.0996
     17 NBI       -16.8180    9.7220   21.9200 N.pl3     1 9PK        -0.1506
     18 CAG       -15.4850    9.9050   22.5380 C.3       1 9PK         0.2151
     19 CAK       -14.9440   11.2990   22.2630 C.3       1 9PK         0.1416
     20 OBA       -14.8390   11.5000   20.8460 O.3       1 9PK        -0.3833
     21 OAY       -15.5820    9.6990   23.9550 O.3       1 9PK        -0.3346
     22 CAI       -14.2680    9.7100   24.5320 C.3       1 9PK         0.1137
     23 CAJ       -14.3590    9.3570   26.0180 C.3       1 9PK         0.0730
     24 OBB       -15.4630   10.0500   26.6060 O.3       1 9PK        -0.3924
     25 CAH       -13.6570   11.0930   24.3750 C.3       1 9PK         0.1123
     26 OAZ       -12.3400   11.1020   24.9470 O.3       1 9PK        -0.3865
     27 CAL       -13.5720   11.4460   22.9000 C.3       1 9PK         0.1213
     28 O1        -13.1200   12.8010   22.7560 O.3       1 9PK        -0.3400
     29 C1        -11.8720   12.8180   22.0490 C.3       1 9PK         0.1884
     30 C2        -11.4090   14.2550   21.8700 C.3       1 9PK         0.1345
     31 O2        -12.3900   14.9840   21.1180 O.3       1 9PK        -0.3841
     32 O5        -10.8880   12.0870   22.7950 O.3       1 9PK        -0.3405
     33 O6         -8.2850   11.7310   23.9890 O.3       1 9PK        -0.3924
     34 O4         -7.8780   13.2920   21.0780 O.3       1 9PK        -0.3865
     35 O3         -9.5800   15.6150   21.0770 O.3       1 9PK        -0.3401
     36 CAM        -9.8340   16.1740   19.7790 C.3       1 9PK         0.1884
     37 OBD        -9.0850   15.4510   18.7910 O.3       1 9PK        -0.3405
     38 CAO        -9.4350   15.9260   17.4830 C.3       1 9PK         0.1130
     39 CAP        -8.7410   15.0670   16.4250 C.3       1 9PK         0.0730
     40 OBG        -7.3610   14.9100   16.7680 O.3       1 9PK        -0.3924
     41 CAN        -8.9930   17.3720   17.3330 C.3       1 9PK         0.1119
     42 OBE        -9.3490   17.8490   16.0280 O.3       1 9PK        -0.3865
     43 CAR        -9.6770   18.2250   18.3890 C.3       1 9PK         0.1141
     44 OBC        -9.1600   19.5620   18.3350 O.3       1 9PK        -0.3864
     45 CAQ        -9.4150   17.6350   19.7650 C.3       1 9PK         0.1341
     46 OBF       -10.1690   18.3590   20.7480 O.3       1 9PK        -0.3841
     47 H1         -8.8563   13.8142   22.8360 H         1 9PK         0.0647
     48 H2         -9.8992   11.5613   21.0428 H         1 9PK         0.0647
     49 H3         -7.7878   10.9502   22.1319 H         1 9PK         0.0584
     50 H4         -9.1412   10.1310   22.9827 H         1 9PK         0.0584
     51 H5        -10.2320   13.8982   20.1032 H         1 9PK         0.0651
     52 H6        -22.6882    9.8904   17.6961 H         1 9PK         0.0277
     53 H7        -22.9620   10.1312   15.1870 H         1 9PK         0.0371
     54 H8        -21.7314    8.3130   13.8393 H         1 9PK         0.0598
     55 H9        -21.0798    6.6693   18.8394 H         1 9PK         0.0753
     56 H10       -21.9316    8.1304   19.4446 H         1 9PK         0.0753
     57 H11       -19.1197    6.9116   20.4282 H         1 9PK         0.0679
     58 H12       -20.4477    7.9221   21.0930 H         1 9PK         0.0679
     59 H13       -16.8871    7.5681   21.6001 H         1 9PK         0.0900
     60 H14       -14.7915    9.1646   22.1127 H         1 9PK         0.1031
     61 H15       -15.6276   12.0479   22.6894 H         1 9PK         0.0679
     62 H16       -15.6977   11.4090   20.4499 H         1 9PK         0.2101
     63 H17       -13.6364    8.9704   24.0182 H         1 9PK         0.0647
     64 H18       -13.4283    9.6546   26.5232 H         1 9PK         0.0584
     65 H19       -14.5059    8.2725   26.1289 H         1 9PK         0.0584
     66 H20       -15.5185    9.8300   27.5285 H         1 9PK         0.2095
     67 H21       -14.2861   11.8322   24.8925 H         1 9PK         0.0647
     68 H22       -11.9590   11.9667   24.8484 H         1 9PK         0.2100
     69 H23       -12.8626   10.7687   22.4019 H         1 9PK         0.0652
     70 H24       -12.0043   12.3506   21.0621 H         1 9PK         0.0938
     71 H25       -11.2816   14.7242   22.8567 H         1 9PK         0.0671
     72 H26       -12.0994   15.8817   21.0069 H         1 9PK         0.2101
     73 H27        -7.6628   11.1758   24.4441 H         1 9PK         0.2095
     74 H28        -7.5080   14.1599   20.9672 H         1 9PK         0.2100
     75 H29       -10.9076   16.0990   19.5518 H         1 9PK         0.0938
     76 H30       -10.5249   15.8610   17.3496 H         1 9PK         0.0647
     77 H31        -8.8213   15.5578   15.4439 H         1 9PK         0.0584
     78 H32        -9.2226   14.0790   16.3813 H         1 9PK         0.0584
     79 H33        -7.2927   14.4861   17.6154 H         1 9PK         0.2095
     80 H34        -7.9024   17.4362   17.4611 H         1 9PK         0.0647
     81 H35        -9.0719   18.7531   15.9360 H         1 9PK         0.2100
     82 H36       -10.7603   18.2437   18.1990 H         1 9PK         0.0648
     83 H37        -9.3256   19.9299   17.4749 H         1 9PK         0.2100
     84 H38        -8.3425   17.7106   19.9976 H         1 9PK         0.0671
     85 H39       -11.0951   18.2939   20.5462 H         1 9PK         0.2101
@<TRIPOS>BOND
     1    1    2 1  
     2    4    1 1  
     3    1   34 1  
     4    2    3 1  
     5    2   32 1  
     6    3   33 1  
     7   30    4 1  
     8    4   35 1  
     9    5    6 1  
    10    9    5 2  
    11    7    6 2  
    12    8    7 1  
    13    9    8 1  
    14   10    9 1  
    15   11   10 1  
    16   12   11 1  
    17   13   12 1  
    18   14   13 2  
    19   15   13 1  
    20   17   14 1  
    21   16   15 2  
    22   17   16 1  
    23   18   17 1  
    24   19   18 1  
    25   18   21 1  
    26   19   20 1  
    27   27   19 1  
    28   22   21 1  
    29   22   23 1  
    30   25   22 1  
    31   23   24 1  
    32   25   26 1  
    33   27   25 1  
    34   28   27 1  
    35   29   28 1  
    36   29   30 1  
    37   29   32 1  
    38   30   31 1  
    39   35   36 1  
    40   36   37 1  
    41   36   45 1  
    42   37   38 1  
    43   38   39 1  
    44   38   41 1  
    45   39   40 1  
    46   41   42 1  
    47   41   43 1  
    48   43   44 1  
    49   43   45 1  
    50   45   46 1  
    51    1   47 1  
    52    2   48 1  
    53    3   49 1  
    54    3   50 1  
    55    4   51 1  
    56    5   52 1  
    57    6   53 1  
    58    7   54 1  
    59   10   55 1  
    60   10   56 1  
    61   12   57 1  
    62   12   58 1  
    63   14   59 1  
    64   18   60 1  
    65   19   61 1  
    66   20   62 1  
    67   22   63 1  
    68   23   64 1  
    69   23   65 1  
    70   24   66 1  
    71   25   67 1  
    72   26   68 1  
    73   27   69 1  
    74   29   70 1  
    75   30   71 1  
    76   31   72 1  
    77   33   73 1  
    78   34   74 1  
    79   36   75 1  
    80   38   76 1  
    81   39   77 1  
    82   39   78 1  
    83   40   79 1  
    84   41   80 1  
    85   42   81 1  
    86   43   82 1  
    87   44   83 1  
    88   45   84 1  
    89   46   85 1  
@<TRIPOS>SUBSTRUCTURE
     1 9PK         1

