### 
### Created by X-TOOL on Wed Jan  1 15:39:38 2020
### 

@<TRIPOS>MOLECULE
5o9y_ligand
   91    95     1     0     0
SMALL
GAST_HUCK


@<TRIPOS>ATOM
      1 C4         -9.0710   13.3050   21.7740 C.3       1 9PN         0.1123
      2 C5         -9.5370   11.8680   22.0320 C.3       1 9PN         0.1130
      3 C6         -8.5510   11.1280   22.9410 C.3       1 9PN         0.0730
      4 C3        -10.1460   14.0690   21.0060 C.3       1 9PN         0.1206
      5 CBP       -22.7860    6.6970   17.0190 C.2       1 9PN         0.0047
      6 CBO       -23.0420    6.4160   15.6810 C.2       1 9PN        -0.0791
      7 CBT       -22.2130    6.9390   14.6930 C.2       1 9PN        -0.1033
      8 CBS       -21.1240    7.7420   15.0370 C.2       1 9PN        -0.0786
      9 CBR       -20.8540    8.0330   16.3760 C.3       1 9PN         0.0487
     10 NBQ       -21.6940    7.5040   17.3900 N.pl3     1 9PN        -0.3007
     11 CBN       -21.5010    7.7520   18.8480 C.3       1 9PN         0.0339
     12 CBU       -20.1500    8.3420   19.1940 C.3       1 9PN        -0.0251
     13 CBM       -20.0010    8.0530   20.6710 C.3       1 9PN        -0.0166
     14 CBL       -18.7990    8.8780   21.1580 C.2       1 9PN         0.0371
     15 CBH       -17.6070    8.4440   21.5260 C.2       1 9PN         0.0722
     16 NBK       -18.8060   10.1960   21.2890 N.2       1 9PN        -0.2264
     17 NBJ       -17.7210   10.5390   21.6980 N.2       1 9PN        -0.0996
     18 NBI       -16.9520    9.5580   21.8510 N.pl3     1 9PN        -0.1507
     19 CAG       -15.5720    9.6490   22.3620 C.3       1 9PN         0.2151
     20 CAK       -14.8390   10.9480   21.9850 C.3       1 9PN         0.1416
     21 OBA       -14.4600   10.8980   20.5970 O.3       1 9PN        -0.3833
     22 OAY       -15.8020    9.6020   23.7770 O.3       1 9PN        -0.3346
     23 CAI       -14.5890    9.6450   24.5480 C.3       1 9PN         0.1137
     24 CAJ       -14.8860    9.3680   26.0310 C.3       1 9PN         0.0730
     25 OBB       -16.1860    9.8430   26.3560 O.3       1 9PN        -0.3924
     26 CAH       -13.9420   11.0000   24.3360 C.3       1 9PN         0.1123
     27 OAZ       -12.7400   11.1270   25.1170 O.3       1 9PN        -0.3865
     28 CAL       -13.5930   11.1320   22.8590 C.3       1 9PN         0.1213
     29 O1        -13.0720   12.4510   22.6660 O.3       1 9PN        -0.3400
     30 C1        -11.8360   12.5110   21.9480 C.3       1 9PN         0.1884
     31 C2        -11.4830   13.9730   21.7350 C.3       1 9PN         0.1345
     32 O2        -12.5260   14.6020   20.9700 O.3       1 9PN        -0.3841
     33 O5        -10.8010   11.8840   22.7130 O.3       1 9PN        -0.3405
     34 O6         -8.4570   11.7990   24.2000 O.3       1 9PN        -0.3924
     35 O4         -7.8540   13.2880   21.0110 O.3       1 9PN        -0.3865
     36 O3         -9.7530   15.4470   20.9240 O.3       1 9PN        -0.3401
     37 CAM        -9.9870   16.0610   19.6470 C.3       1 9PN         0.1884
     38 OBD        -9.2100   15.3910   18.6480 O.3       1 9PN        -0.3405
     39 CAO        -9.4690   15.9010   17.3310 C.3       1 9PN         0.1130
     40 CAP        -8.7220   15.0090   16.3310 C.3       1 9PN         0.0730
     41 OBG        -7.3700   14.8190   16.7590 O.3       1 9PN        -0.3924
     42 CAN        -9.0070   17.3550   17.2580 C.3       1 9PN         0.1119
     43 OBE        -9.3560   17.9040   15.9770 O.3       1 9PN        -0.3865
     44 CAR        -9.7000   18.1770   18.3520 C.3       1 9PN         0.1141
     45 OBC        -9.1190   19.4800   18.4100 O.3       1 9PN        -0.3864
     46 CAQ        -9.5470   17.5160   19.7200 C.3       1 9PN         0.1341
     47 OBF       -10.3310   18.2360   20.6820 O.3       1 9PN        -0.3841
     48 H1         -8.8890   13.8051   22.7367 H         1 9PN         0.0647
     49 H2         -9.6309   11.3382   21.0726 H         1 9PN         0.0647
     50 H3         -7.5601   11.1060   22.4639 H         1 9PN         0.0584
     51 H4         -8.9038   10.0985   23.1012 H         1 9PN         0.0584
     52 H5        -10.2477   13.6484   19.9947 H         1 9PN         0.0651
     53 H6        -23.4384    6.2877   17.7889 H         1 9PN         0.0955
     54 H7        -23.8889    5.7884   15.4073 H         1 9PN         0.0264
     55 H8        -22.4150    6.7206   13.6454 H         1 9PN         0.0372
     56 H9        -20.4806    8.1442   14.2558 H         1 9PN         0.0491
     57 H10       -20.8814    9.1280   16.4771 H         1 9PN         0.0670
     58 H11       -19.8361    7.6710   16.5830 H         1 9PN         0.0670
     59 H12       -21.6079    6.7950   19.3797 H         1 9PN         0.0532
     60 H13       -22.2811    8.4493   19.1875 H         1 9PN         0.0532
     61 H14       -20.1342    9.4251   19.0026 H         1 9PN         0.0302
     62 H15       -19.3500    7.8558   18.6165 H         1 9PN         0.0302
     63 H16       -19.8160    6.9807   20.8316 H         1 9PN         0.0381
     64 H17       -20.9114    8.3529   21.2107 H         1 9PN         0.0381
     65 H18       -17.2448    7.4175   21.5566 H         1 9PN         0.0899
     66 H19       -14.9742    8.7910   22.0209 H         1 9PN         0.1031
     67 H20       -15.5155   11.8007   22.1437 H         1 9PN         0.0679
     68 H21       -13.8849   10.1556   20.4535 H         1 9PN         0.2101
     69 H22       -13.9035    8.8661   24.1827 H         1 9PN         0.0647
     70 H23       -14.1416    9.8836   26.6555 H         1 9PN         0.0584
     71 H24       -14.8350    8.2853   26.2181 H         1 9PN         0.0584
     72 H25       -16.8287    9.3972   25.8169 H         1 9PN         0.2095
     73 H26       -14.6480   11.7924   24.6252 H         1 9PN         0.0647
     74 H27       -12.3550   11.9824   24.9668 H         1 9PN         0.2100
     75 H28       -12.8379   10.3808   22.5841 H         1 9PN         0.0652
     76 H29       -11.9405   12.0029   20.9780 H         1 9PN         0.0938
     77 H30       -11.3981   14.4747   22.7102 H         1 9PN         0.0671
     78 H31       -12.3097   15.5170   20.8341 H         1 9PN         0.2101
     79 H32        -9.3126   11.8174   24.6124 H         1 9PN         0.2095
     80 H33        -7.5626   14.1798   20.8618 H         1 9PN         0.2100
     81 H34       -11.0555   16.0023   19.3922 H         1 9PN         0.0938
     82 H35       -10.5476   15.8579   17.1197 H         1 9PN         0.0647
     83 H36        -8.7266   15.4886   15.3411 H         1 9PN         0.0584
     84 H37        -9.2246   14.0326   16.2678 H         1 9PN         0.0584
     85 H38        -7.3649   14.4037   17.6134 H         1 9PN         0.2095
     86 H39        -7.9167   17.4009   17.3965 H         1 9PN         0.0647
     87 H40        -9.0684   18.8083   15.9323 H         1 9PN         0.2100
     88 H41       -10.7697   18.2628   18.1106 H         1 9PN         0.0648
     89 H42        -9.5494   19.9875   19.0879 H         1 9PN         0.2100
     90 H43        -8.4897   17.5522   20.0214 H         1 9PN         0.0671
     91 H44       -11.2441   18.2205   20.4201 H         1 9PN         0.2101
@<TRIPOS>BOND
     1    1    2 1  
     2    4    1 1  
     3    1   35 1  
     4    2    3 1  
     5    2   33 1  
     6    3   34 1  
     7   31    4 1  
     8    4   36 1  
     9    5    6 2  
    10   10    5 1  
    11    6    7 1  
    12    8    7 2  
    13    9    8 1  
    14   10    9 1  
    15   11   10 1  
    16   12   11 1  
    17   13   12 1  
    18   14   13 1  
    19   15   14 2  
    20   16   14 1  
    21   18   15 1  
    22   17   16 2  
    23   18   17 1  
    24   19   18 1  
    25   20   19 1  
    26   19   22 1  
    27   20   21 1  
    28   28   20 1  
    29   23   22 1  
    30   23   24 1  
    31   26   23 1  
    32   24   25 1  
    33   26   27 1  
    34   28   26 1  
    35   29   28 1  
    36   30   29 1  
    37   30   31 1  
    38   30   33 1  
    39   31   32 1  
    40   36   37 1  
    41   37   38 1  
    42   37   46 1  
    43   38   39 1  
    44   39   40 1  
    45   39   42 1  
    46   40   41 1  
    47   42   43 1  
    48   42   44 1  
    49   44   45 1  
    50   44   46 1  
    51   46   47 1  
    52    1   48 1  
    53    2   49 1  
    54    3   50 1  
    55    3   51 1  
    56    4   52 1  
    57    5   53 1  
    58    6   54 1  
    59    7   55 1  
    60    8   56 1  
    61    9   57 1  
    62    9   58 1  
    63   11   59 1  
    64   11   60 1  
    65   12   61 1  
    66   12   62 1  
    67   13   63 1  
    68   13   64 1  
    69   15   65 1  
    70   19   66 1  
    71   20   67 1  
    72   21   68 1  
    73   23   69 1  
    74   24   70 1  
    75   24   71 1  
    76   25   72 1  
    77   26   73 1  
    78   27   74 1  
    79   28   75 1  
    80   30   76 1  
    81   31   77 1  
    82   32   78 1  
    83   34   79 1  
    84   35   80 1  
    85   37   81 1  
    86   39   82 1  
    87   40   83 1  
    88   40   84 1  
    89   41   85 1  
    90   42   86 1  
    91   43   87 1  
    92   44   88 1  
    93   45   89 1  
    94   46   90 1  
    95   47   91 1  
@<TRIPOS>SUBSTRUCTURE
     1 9PN         1

