### 
### Created by X-TOOL on Wed Jan  1 15:39:37 2020
### 

@<TRIPOS>MOLECULE
5oa2_ligand
   90    94     1     0     0
SMALL
GAST_HUCK


@<TRIPOS>ATOM
      1 C4         90.3300   16.8190   77.1100 C.3       1 9PW         0.1123
      2 C5         91.7550   16.7100   77.7180 C.3       1 9PW         0.1130
      3 C6         92.5830   17.9730   77.4340 C.3       1 9PW         0.0730
      4 C3         89.4560   15.6280   77.5370 C.3       1 9PW         0.1206
      5 CBQ        95.9090    4.4960   82.6280 C.ar      1 9PW        -0.0495
      6 CBP        95.3830    3.2260   82.4180 C.ar      1 9PW        -0.0252
      7 CBU        94.3240    2.7670   83.1960 C.ar      1 9PW         0.1925
      8 NBV        93.8360    1.5440   82.9670 N.2       1 9PW         0.3095
      9 OBX        93.0890    1.3200   81.7450 O.2       1 9PW         0.1751
     10 OBW        94.0790    0.4630   83.9610 O.2       1 9PW         0.1751
     11 CBT        93.7860    3.5900   84.1930 C.ar      1 9PW        -0.0252
     12 CBS        94.3150    4.8690   84.4080 C.ar      1 9PW        -0.0495
     13 CBR        95.3760    5.3330   83.6150 C.ar      1 9PW        -0.0114
     14 CBN        95.9470    6.5730   83.7870 C.3       1 9PW         0.0862
     15 OBO        94.9380    7.5720   84.0830 O.3       1 9PW        -0.3576
     16 CBM        95.5860    8.7680   84.5000 C.3       1 9PW         0.0852
     17 CBL        94.7120    9.9560   84.0900 C.2       1 9PW         0.0628
     18 CBH        95.0810   10.9810   83.3330 C.2       1 9PW         0.0744
     19 NBK        93.4560   10.1440   84.4640 N.2       1 9PW        -0.2241
     20 NBJ        93.0790   11.2260   83.9480 N.2       1 9PW        -0.0996
     21 NBI        94.0060   11.7600   83.2540 N.pl3     1 9PW        -0.1506
     22 CAG        93.8830   13.0760   82.5450 C.3       1 9PW         0.2151
     23 CAK        92.5490   13.2940   81.8170 C.3       1 9PW         0.1416
     24 OBA        92.5310   12.4960   80.6320 O.3       1 9PW        -0.3833
     25 OAY        94.0360   14.0510   83.6140 O.3       1 9PW        -0.3346
     26 CAI        94.0180   15.4010   83.1410 C.3       1 9PW         0.1137
     27 CAJ        94.4320   16.3560   84.2640 C.3       1 9PW         0.0730
     28 OBB        93.5610   16.1940   85.3710 O.3       1 9PW        -0.3924
     29 CAH        92.6160   15.6850   82.6090 C.3       1 9PW         0.1123
     30 OAZ        92.4870   17.0570   82.1910 O.3       1 9PW        -0.3865
     31 CAL        92.3860   14.7720   81.4190 C.3       1 9PW         0.1213
     32 O1         91.0520   15.0070   80.9230 O.3       1 9PW        -0.3400
     33 C1         91.0040   15.2800   79.5010 C.3       1 9PW         0.1884
     34 C2         89.5440   15.3810   79.0600 C.3       1 9PW         0.1345
     35 O2         88.8950   14.1500   79.3740 O.3       1 9PW        -0.3841
     36 O5         91.6840   16.5080   79.1640 O.3       1 9PW        -0.3405
     37 O6         91.8820   19.1280   77.8930 O.3       1 9PW        -0.3924
     38 O4         90.4350   16.8600   75.6760 O.3       1 9PW        -0.3865
     39 O3         88.0640   15.8850   77.1730 O.3       1 9PW        -0.3401
     40 CAM        87.4500   14.7380   76.5390 C.3       1 9PW         0.1884
     41 OBD        88.0660   14.4760   75.2630 O.3       1 9PW        -0.3405
     42 CAO        87.6180   13.2410   74.7110 C.3       1 9PW         0.1130
     43 CAP        88.4820   12.9680   73.4680 C.3       1 9PW         0.0730
     44 OBG        88.6710   14.1890   72.7300 O.3       1 9PW        -0.3924
     45 CAN        86.1420   13.4160   74.3640 C.3       1 9PW         0.1119
     46 OBE        85.5990   12.2160   73.7550 O.3       1 9PW        -0.3865
     47 CAR        85.3510   13.7530   75.6150 C.3       1 9PW         0.1141
     48 OBC        84.0200   14.0950   75.2230 O.3       1 9PW        -0.3864
     49 CAQ        85.9560   14.9670   76.3250 C.3       1 9PW         0.1341
     50 OBF        85.3320   15.1620   77.5780 O.3       1 9PW        -0.3841
     51 H1         89.8602   17.7482   77.4647 H         1 9PW         0.0647
     52 H2         92.2611   15.8461   77.2625 H         1 9PW         0.0647
     53 H3         92.7573   18.0588   76.3513 H         1 9PW         0.0584
     54 H4         93.5484   17.9011   77.9563 H         1 9PW         0.0584
     55 H5         89.8060   14.7274   77.0112 H         1 9PW         0.0651
     56 H6         96.7391    4.8407   82.0220 H         1 9PW         0.0574
     57 H7         95.7996    2.5905   81.6449 H         1 9PW         0.0676
     58 H8         92.9594    3.2370   84.7989 H         1 9PW         0.0676
     59 H9         93.9047    5.5009   85.1874 H         1 9PW         0.0574
     60 H10        96.4752    6.8571   82.8649 H         1 9PW         0.0739
     61 H11        96.6633    6.5270   84.6205 H         1 9PW         0.0739
     62 H12        96.5706    8.8459   84.0157 H         1 9PW         0.0679
     63 H13        95.7143    8.7601   85.5925 H         1 9PW         0.0679
     64 H14        96.0546   11.1485   82.8749 H         1 9PW         0.0900
     65 H15        94.6966   13.1767   81.8115 H         1 9PW         0.1031
     66 H16        91.7200   12.9988   82.4770 H         1 9PW         0.0679
     67 H17        93.2507   12.7529   80.0676 H         1 9PW         0.2101
     68 H18        94.7374   15.5069   82.3156 H         1 9PW         0.0647
     69 H19        94.3751   17.3932   83.9022 H         1 9PW         0.0584
     70 H20        95.4634   16.1317   84.5738 H         1 9PW         0.0584
     71 H21        93.6107   15.2982   85.6832 H         1 9PW         0.2095
     72 H22        91.8740   15.4739   83.3931 H         1 9PW         0.0647
     73 H23        91.6072   17.2062   81.8651 H         1 9PW         0.2100
     74 H24        93.1164   15.0111   80.6321 H         1 9PW         0.0652
     75 H25        91.4886   14.4500   78.9659 H         1 9PW         0.0938
     76 H26        89.0537   16.2085   79.5937 H         1 9PW         0.0671
     77 H27        88.9432   13.9978   80.3105 H         1 9PW         0.2101
     78 H28        92.4003   19.9036   77.7137 H         1 9PW         0.2095
     79 H29        90.9759   17.5978   75.4202 H         1 9PW         0.2100
     80 H30        87.5873   13.8621   77.1901 H         1 9PW         0.0938
     81 H31        87.7360   12.4214   75.4350 H         1 9PW         0.0647
     82 H32        87.9785   12.2284   72.8281 H         1 9PW         0.0584
     83 H33        89.4605   12.5756   73.7820 H         1 9PW         0.0584
     84 H34        89.1064   14.8275   73.2825 H         1 9PW         0.2095
     85 H35        86.0472   14.2464   73.6489 H         1 9PW         0.0647
     86 H36        84.6816   12.3535   73.5502 H         1 9PW         0.2100
     87 H37        85.3406   12.8881   76.2945 H         1 9PW         0.0648
     88 H38        83.6238   13.3573   74.7744 H         1 9PW         0.2100
     89 H39        85.8081   15.8617   75.7024 H         1 9PW         0.0671
     90 H40        85.7160   15.9172   78.0076 H         1 9PW         0.2101
@<TRIPOS>BOND
     1    1    2 1  
     2    4    1 1  
     3    1   38 1  
     4    2    3 1  
     5    2   36 1  
     6    3   37 1  
     7   34    4 1  
     8    4   39 1  
     9    5    6 ar 
    10   13    5 ar 
    11    6    7 ar 
    12    7    8 1  
    13   11    7 ar 
    14    8    9 2  
    15    8   10 2  
    16   12   11 ar 
    17   13   12 ar 
    18   14   13 1  
    19   15   14 1  
    20   16   15 1  
    21   17   16 1  
    22   18   17 2  
    23   19   17 1  
    24   21   18 1  
    25   20   19 2  
    26   21   20 1  
    27   22   21 1  
    28   23   22 1  
    29   22   25 1  
    30   23   24 1  
    31   31   23 1  
    32   26   25 1  
    33   26   27 1  
    34   29   26 1  
    35   27   28 1  
    36   29   30 1  
    37   31   29 1  
    38   32   31 1  
    39   33   32 1  
    40   33   34 1  
    41   33   36 1  
    42   34   35 1  
    43   39   40 1  
    44   40   41 1  
    45   40   49 1  
    46   41   42 1  
    47   42   43 1  
    48   42   45 1  
    49   43   44 1  
    50   45   46 1  
    51   45   47 1  
    52   47   48 1  
    53   47   49 1  
    54   49   50 1  
    55    1   51 1  
    56    2   52 1  
    57    3   53 1  
    58    3   54 1  
    59    4   55 1  
    60    5   56 1  
    61    6   57 1  
    62   11   58 1  
    63   12   59 1  
    64   14   60 1  
    65   14   61 1  
    66   16   62 1  
    67   16   63 1  
    68   18   64 1  
    69   22   65 1  
    70   23   66 1  
    71   24   67 1  
    72   26   68 1  
    73   27   69 1  
    74   27   70 1  
    75   28   71 1  
    76   29   72 1  
    77   30   73 1  
    78   31   74 1  
    79   33   75 1  
    80   34   76 1  
    81   35   77 1  
    82   37   78 1  
    83   38   79 1  
    84   40   80 1  
    85   42   81 1  
    86   43   82 1  
    87   43   83 1  
    88   44   84 1  
    89   45   85 1  
    90   46   86 1  
    91   47   87 1  
    92   48   88 1  
    93   49   89 1  
    94   50   90 1  
@<TRIPOS>SUBSTRUCTURE
     1 9PW         1

