### 
### Created by X-TOOL on Wed Jan  1 15:39:36 2020
### 

@<TRIPOS>MOLECULE
5oa6_ligand
   97   102     1     0     0
SMALL
GAST_HUCK


@<TRIPOS>ATOM
      1 C4         10.7750  -10.6970  -24.4200 C.3       1 9PT         0.1123
      2 C5         10.1340   -9.3170  -24.5460 C.3       1 9PT         0.1137
      3 C6          9.4580   -8.9610  -25.8620 C.3       1 9PT         0.0730
      4 C3         11.2510  -10.8510  -22.9790 C.3       1 9PT         0.1213
      5 CBR         4.8570   -8.3520  -16.1460 C.2       1 9PT         0.0060
      6 CBS         4.9030   -8.5160  -14.7660 C.2       1 9PT        -0.0770
      7 CBP         3.8720   -8.0160  -13.9870 C.3       1 9PT        -0.0119
      8 CBT         2.8080   -7.3500  -14.5910 C.ar      1 9PT        -0.0147
      9 CBY         1.7950   -6.8640  -13.7590 C.ar      1 9PT        -0.0695
     10 CBX         0.7020   -6.1930  -14.2990 C.ar      1 9PT        -0.0818
     11 CBW         0.6250   -6.0110  -15.6760 C.ar      1 9PT        -0.0803
     12 CBV         1.6350   -6.4980  -16.5170 C.ar      1 9PT        -0.0463
     13 CBU         2.7520   -7.1800  -15.9950 C.ar      1 9PT         0.0627
     14 NBQ         3.7600   -7.6720  -16.7880 N.pl3     1 9PT        -0.2789
     15 CBN         3.7110   -7.4920  -18.2710 C.3       1 9PT         0.0417
     16 CBO         4.8760   -8.2260  -18.9260 C.3       1 9PT        -0.0230
     17 CAA         4.9590   -7.7910  -20.3740 C.3       1 9PT        -0.0164
     18 CAB         6.1440   -8.6010  -20.9510 C.2       1 9PT         0.0371
     19 CAC         7.3510   -8.1640  -21.2870 C.2       1 9PT         0.0722
     20 NAD         6.1050   -9.9070  -21.1910 N.2       1 9PT        -0.2264
     21 NAE         7.1820  -10.2520  -21.6460 N.2       1 9PT        -0.0996
     22 NAF         7.9910   -9.2550  -21.7190 N.pl3     1 9PT        -0.1507
     23 C1          9.3660   -9.3530  -22.2680 C.3       1 9PT         0.2151
     24 C2         10.0750  -10.6860  -22.0120 C.3       1 9PT         0.1416
     25 O2         10.5380  -10.6940  -20.6740 O.3       1 9PT        -0.3833
     26 O5          9.0440   -9.2360  -23.6400 O.3       1 9PT        -0.3346
     27 O6          9.5800  -10.0480  -26.7690 O.3       1 9PT        -0.3924
     28 O4         11.9030  -10.8550  -25.3110 O.3       1 9PT        -0.3865
     29 O3         11.7910  -12.1670  -22.8470 O.3       1 9PT        -0.3400
     30 CAR        12.9960  -12.2630  -22.0960 C.3       1 9PT         0.1884
     31 CAS        13.3170  -13.7450  -21.8830 C.3       1 9PT         0.1345
     32 OAT        12.2790  -14.3250  -21.0970 O.3       1 9PT        -0.3841
     33 OAU        14.0450  -11.6700  -22.8430 O.3       1 9PT        -0.3405
     34 CAV        15.3030  -11.6550  -22.1390 C.3       1 9PT         0.1130
     35 CAW        16.2120  -10.8450  -23.0530 C.3       1 9PT         0.0730
     36 OAX        16.6740  -11.6780  -24.1290 O.3       1 9PT        -0.3924
     37 CAY        15.7540  -13.1070  -21.8790 C.3       1 9PT         0.1123
     38 OAZ        16.9110  -13.1040  -21.0510 O.3       1 9PT        -0.3865
     39 CBA        14.6440  -13.8620  -21.1490 C.3       1 9PT         0.1206
     40 OBB        15.0240  -15.2500  -21.0590 O.3       1 9PT        -0.3401
     41 CBC        14.8140  -15.8140  -19.7460 C.3       1 9PT         0.1884
     42 OBD        15.6070  -15.1210  -18.7640 O.3       1 9PT        -0.3405
     43 CBE        15.3490  -15.6040  -17.4180 C.3       1 9PT         0.1130
     44 CBF        16.0860  -14.8340  -16.3310 C.3       1 9PT         0.0730
     45 OBG        17.4100  -14.6260  -16.8440 O.3       1 9PT        -0.3924
     46 CBH        15.7630  -17.1110  -17.3390 C.3       1 9PT         0.1119
     47 OBI        15.3950  -17.6570  -16.0450 O.3       1 9PT        -0.3865
     48 CBJ        15.0810  -17.9330  -18.4350 C.3       1 9PT         0.1141
     49 OBK        15.6790  -19.2460  -18.5000 O.3       1 9PT        -0.3864
     50 CBL        15.2590  -17.2700  -19.7950 C.3       1 9PT         0.1341
     51 OBM        14.4990  -17.9910  -20.7550 O.3       1 9PT        -0.3841
     52 H1         10.0258  -11.4685  -24.6512 H         1 9PT         0.0647
     53 H2         10.9019   -8.5639  -24.3155 H         1 9PT         0.0647
     54 H3          9.9391   -8.0699  -26.2916 H         1 9PT         0.0584
     55 H4          8.3932   -8.7520  -25.6820 H         1 9PT         0.0584
     56 H5         12.0223  -10.0995  -22.7546 H         1 9PT         0.0652
     57 H6          5.6684   -8.7464  -16.7559 H         1 9PT         0.0804
     58 H7          5.7417   -9.0327  -14.3017 H         1 9PT         0.0328
     59 H8          4.3246   -7.3117  -13.2735 H         1 9PT         0.0472
     60 H9          3.4442   -8.8687  -13.4394 H         1 9PT         0.0472
     61 H10         1.8614   -7.0107  -12.6870 H         1 9PT         0.0513
     62 H11        -0.0821   -5.8156  -13.6526 H         1 9PT         0.0490
     63 H12        -0.2234   -5.4880  -16.1023 H         1 9PT         0.0526
     64 H13         1.5554   -6.3473  -17.5875 H         1 9PT         0.0494
     65 H14         3.7757   -6.4202  -18.5099 H         1 9PT         0.0558
     66 H15         2.7633   -7.8969  -18.6557 H         1 9PT         0.0558
     67 H16         4.7084   -9.3118  -18.8730 H         1 9PT         0.0304
     68 H17         5.8129   -7.9739  -18.4078 H         1 9PT         0.0304
     69 H18         5.1543   -6.7108  -20.4455 H         1 9PT         0.0381
     70 H19         4.0271   -8.0312  -20.9068 H         1 9PT         0.0381
     71 H20         7.7337   -7.1463  -21.2248 H         1 9PT         0.0899
     72 H21        10.0019   -8.5295  -21.9109 H         1 9PT         0.1031
     73 H22         9.3663  -11.5141  -22.1606 H         1 9PT         0.0679
     74 H23        11.1428   -9.9728  -20.5451 H         1 9PT         0.2101
     75 H24        10.4998  -10.2278  -26.9242 H         1 9PT         0.2095
     76 H25        11.6108  -10.7598  -26.2099 H         1 9PT         0.2100
     77 H26        12.8840  -11.7540  -21.1273 H         1 9PT         0.0938
     78 H27        13.3822  -14.2591  -22.8533 H         1 9PT         0.0671
     79 H28        12.4661  -15.2458  -20.9572 H         1 9PT         0.2101
     80 H29        15.2035  -11.1425  -21.1708 H         1 9PT         0.0647
     81 H30        17.0745  -10.4757  -22.4788 H         1 9PT         0.0584
     82 H31        15.6526   -9.9917  -23.4640 H         1 9PT         0.0584
     83 H32        17.2411  -11.1718  -24.6988 H         1 9PT         0.2095
     84 H33        15.9784  -13.6024  -22.8352 H         1 9PT         0.0647
     85 H34        17.1875  -13.9989  -20.8918 H         1 9PT         0.2100
     86 H35        14.5296  -13.4458  -20.1372 H         1 9PT         0.0651
     87 H36        13.7497  -15.7490  -19.4759 H         1 9PT         0.0938
     88 H37        14.2696  -15.5165  -17.2251 H         1 9PT         0.0647
     89 H38        16.1212  -15.4197  -15.4006 H         1 9PT         0.0584
     90 H39        15.5916  -13.8703  -16.1391 H         1 9PT         0.0584
     91 H40        17.3609  -14.1281  -17.6515 H         1 9PT         0.2095
     92 H41        16.8533  -17.1842  -17.4653 H         1 9PT         0.0647
     93 H42        14.4553  -17.5829  -15.9269 H         1 9PT         0.2100
     94 H43        14.0088  -18.0229  -18.2063 H         1 9PT         0.0648
     95 H44        15.2533  -19.7532  -19.1811 H         1 9PT         0.2100
     96 H45        16.3218  -17.3053  -20.0763 H         1 9PT         0.0671
     97 H46        14.6025  -17.5861  -21.6081 H         1 9PT         0.2101
@<TRIPOS>BOND
     1    1    2 1  
     2    4    1 1  
     3    1   28 1  
     4    2    3 1  
     5    2   26 1  
     6    3   27 1  
     7   24    4 1  
     8    4   29 1  
     9    5    6 2  
    10   14    5 1  
    11    6    7 1  
    12    8    7 1  
    13    8    9 ar 
    14   13    8 ar 
    15    9   10 ar 
    16   11   10 ar 
    17   12   11 ar 
    18   13   12 ar 
    19   14   13 1  
    20   15   14 1  
    21   16   15 1  
    22   17   16 1  
    23   18   17 1  
    24   19   18 2  
    25   20   18 1  
    26   22   19 1  
    27   21   20 2  
    28   22   21 1  
    29   23   22 1  
    30   23   24 1  
    31   23   26 1  
    32   24   25 1  
    33   29   30 1  
    34   30   31 1  
    35   30   33 1  
    36   31   32 1  
    37   31   39 1  
    38   33   34 1  
    39   34   35 1  
    40   34   37 1  
    41   35   36 1  
    42   37   38 1  
    43   37   39 1  
    44   39   40 1  
    45   40   41 1  
    46   41   42 1  
    47   41   50 1  
    48   42   43 1  
    49   43   44 1  
    50   43   46 1  
    51   44   45 1  
    52   46   47 1  
    53   46   48 1  
    54   48   49 1  
    55   48   50 1  
    56   50   51 1  
    57    1   52 1  
    58    2   53 1  
    59    3   54 1  
    60    3   55 1  
    61    4   56 1  
    62    5   57 1  
    63    6   58 1  
    64    7   59 1  
    65    7   60 1  
    66    9   61 1  
    67   10   62 1  
    68   11   63 1  
    69   12   64 1  
    70   15   65 1  
    71   15   66 1  
    72   16   67 1  
    73   16   68 1  
    74   17   69 1  
    75   17   70 1  
    76   19   71 1  
    77   23   72 1  
    78   24   73 1  
    79   25   74 1  
    80   27   75 1  
    81   28   76 1  
    82   30   77 1  
    83   31   78 1  
    84   32   79 1  
    85   34   80 1  
    86   35   81 1  
    87   35   82 1  
    88   36   83 1  
    89   37   84 1  
    90   38   85 1  
    91   39   86 1  
    92   41   87 1  
    93   43   88 1  
    94   44   89 1  
    95   44   90 1  
    96   45   91 1  
    97   46   92 1  
    98   47   93 1  
    99   48   94 1  
   100   49   95 1  
   101   50   96 1  
   102   51   97 1  
@<TRIPOS>SUBSTRUCTURE
     1 9PT         1

