### 
### Created by X-TOOL on Wed Jan  1 15:39:38 2020
### 

@<TRIPOS>MOLECULE
5oae_ligand
   35    36     1     0     0
SMALL
GAST_HUCK


@<TRIPOS>ATOM
      1 C01       -19.1360   -7.4730   -4.5380 C.ar      1 SVF        -0.0620
      2 C02       -18.1430   -6.9440   -3.7310 C.ar      1 SVF        -0.0349
      3 C03       -18.8140   -7.9910   -5.7830 C.ar      1 SVF        -0.0466
      4 C04       -16.8490   -6.9500   -4.1850 C.ar      1 SVF         0.1248
      5 C05       -17.4990   -7.9750   -6.2220 C.ar      1 SVF        -0.0620
      6 C06       -16.5070   -7.4470   -5.4140 C.ar      1 SVF        -0.0349
      7 C08       -19.8440   -8.5030   -6.6960 C.3       1 SVF        -0.0180
      8 C09       -19.4830   -8.4400   -8.1200 C.3       1 SVF        -0.0282
      9 C10       -20.7120   -8.1900   -8.9690 C.3       1 SVF        -0.0279
     10 C11       -18.8080   -9.7150   -8.5760 C.3       1 SVF        -0.0279
     11 C12       -20.3140   -8.0800  -10.4260 C.3       1 SVF         0.0342
     12 C13       -18.4180   -9.5990  -10.0310 C.3       1 SVF         0.0342
     13 N14       -19.6160   -9.3050  -10.8310 N.am      1 SVF        -0.2734
     14 C15       -19.8080   -9.8420  -12.0570 C.2       1 SVF         0.1753
     15 O16       -20.4020   -9.2310  -12.9270 O.2       1 SVF        -0.3972
     16 C17       -18.9890  -11.0360  -12.4550 C.3       1 SVF         0.0258
     17 F07       -15.8680   -6.4170   -3.3870 F         1 SVF        -0.1893
     18 H1        -20.1648   -7.4821   -4.1965 H         1 SVF         0.0547
     19 H2        -18.3842   -6.5324   -2.7576 H         1 SVF         0.0587
     20 H3        -17.2479   -8.3758   -7.1974 H         1 SVF         0.0547
     21 H4        -15.4762   -7.4273   -5.7488 H         1 SVF         0.0587
     22 H5        -20.7595   -7.9117   -6.5473 H         1 SVF         0.0421
     23 H6        -20.0403   -9.5540   -6.4376 H         1 SVF         0.0421
     24 H7        -18.7817   -7.6044   -8.2612 H         1 SVF         0.0323
     25 H8        -21.1923   -7.2533   -8.6498 H         1 SVF         0.0289
     26 H9        -21.4177   -9.0247   -8.8451 H         1 SVF         0.0289
     27 H10       -19.5014  -10.5597   -8.4506 H         1 SVF         0.0289
     28 H11       -17.9066   -9.8874   -7.9696 H         1 SVF         0.0289
     29 H12       -19.6473   -7.2155  -10.5607 H         1 SVF         0.0522
     30 H13       -21.2144   -7.9486  -11.0441 H         1 SVF         0.0522
     31 H14       -17.9732  -10.5465  -10.3693 H         1 SVF         0.0522
     32 H15       -17.6864   -8.7866  -10.1521 H         1 SVF         0.0522
     33 H16       -19.2651  -11.3471  -13.4733 H         1 SVF         0.0467
     34 H17       -19.1808  -11.8622  -11.7546 H         1 SVF         0.0467
     35 H18       -17.9211  -10.7734  -12.4288 H         1 SVF         0.0467
@<TRIPOS>BOND
     1    1    2 ar 
     2    1    3 ar 
     3    2    4 ar 
     4    3    5 ar 
     5    3    7 1  
     6    4    6 ar 
     7    4   17 1  
     8    5    6 ar 
     9    7    8 1  
    10    8    9 1  
    11    8   10 1  
    12    9   11 1  
    13   10   12 1  
    14   11   13 1  
    15   12   13 1  
    16   13   14 am 
    17   14   15 2  
    18   14   16 1  
    19    1   18 1  
    20    2   19 1  
    21    5   20 1  
    22    6   21 1  
    23    7   22 1  
    24    7   23 1  
    25    8   24 1  
    26    9   25 1  
    27    9   26 1  
    28   10   27 1  
    29   10   28 1  
    30   11   29 1  
    31   11   30 1  
    32   12   31 1  
    33   12   32 1  
    34   16   33 1  
    35   16   34 1  
    36   16   35 1  
@<TRIPOS>SUBSTRUCTURE
     1 SVF         1

