### 
### Created by X-TOOL on Wed Jan  1 15:39:37 2020
### 

@<TRIPOS>MOLECULE
5oah_ligand
   51    52     1     0     0
SMALL
GAST_HUCK


@<TRIPOS>ATOM
      1 OAH        -7.5390    4.5260    2.9400 O.3       1 95B        -0.3312
      2 CBA        -6.7180    5.4870    2.4280 C.ar      1 95B         0.1379
      3 CAY        -5.4830    5.0440    1.9600 C.ar      1 95B         0.1223
      4 OAF        -5.2940    3.6940    2.0690 O.3       1 95B        -0.3357
      5 CAL        -4.5680    5.9490    1.4350 C.ar      1 95B        -0.0372
      6 CAJ        -4.8870    7.3060    1.3720 C.ar      1 95B        -0.0763
      7 CAN        -6.0950    7.7450    1.8300 C.ar      1 95B        -0.0617
      8 CBC        -7.0390    6.8580    2.3740 C.ar      1 95B         0.0701
      9 CAW        -8.3730    7.3410    2.8370 C.2       1 95B         0.1981
     10 OAC        -8.5290    8.5080    3.1930 O.2       1 95B        -0.3911
     11 N          -9.3660    6.4410    2.8100 N.am      1 95B        -0.2728
     12 CA        -10.7650    6.7260    3.1160 C.3       1 95B         0.0936
     13 C         -10.9110    6.6420    4.6500 C.2       1 95B         0.0600
     14 OXT       -11.5500    5.6800    5.1460 O.co2     1 95B        -0.5666
     15 O         -10.3000    7.5150    5.3080 O.co2     1 95B        -0.5666
     16 CB        -11.7010    5.7850    2.2940 C.3       1 95B        -0.0179
     17 CAP       -11.0550    4.4500    1.8770 C.3       1 95B        -0.0476
     18 CAO       -11.9770    3.4270    1.2610 C.3       1 95B        -0.0327
     19 CAQ       -11.3760    2.7440    0.0520 C.3       1 95B         0.0301
     20 NAS       -10.0980    2.1000    0.3420 N.am      1 95B        -0.2882
     21 CAV        -9.6360    1.0960   -0.4140 C.2       1 95B         0.1964
     22 OAB       -10.2620    0.7040   -1.3990 O.2       1 95B        -0.3912
     23 CBB        -8.3610    0.4260   -0.0320 C.ar      1 95B         0.0700
     24 CAM        -7.9120   -0.7250   -0.6910 C.ar      1 95B        -0.0617
     25 CAI        -6.7340   -1.3160   -0.3430 C.ar      1 95B        -0.0763
     26 CAK        -5.9820   -0.8310    0.7340 C.ar      1 95B        -0.0372
     27 CAX        -6.4120    0.2860    1.4240 C.ar      1 95B         0.1223
     28 OAE        -5.7720    0.8490    2.5000 O.3       1 95B        -0.3357
     29 CAZ        -7.5900    0.9050    1.0370 C.ar      1 95B         0.1379
     30 OAG        -7.9320    1.9970    1.7440 O.3       1 95B        -0.3312
     31 H1         -7.7253    3.8799    2.2690 H         1 95B         0.2472
     32 H2         -5.3543    3.4396    2.9824 H         1 95B         0.2443
     33 H3         -3.6068    5.6007    1.0746 H         1 95B         0.0543
     34 H4         -4.1750    8.0115    0.9591 H         1 95B         0.0508
     35 H5         -6.3315    8.8013    1.7729 H         1 95B         0.0544
     36 H6         -9.1304    5.5016    2.5610 H         1 95B         0.1864
     37 H7        -10.9940    7.7580    2.8118 H         1 95B         0.0725
     38 H8        -12.0093    6.3175    1.3822 H         1 95B         0.0305
     39 H9        -12.5875    5.5618    2.9057 H         1 95B         0.0305
     40 H10       -10.6061    3.9996    2.7746 H         1 95B         0.0268
     41 H11       -10.2652    4.6737    1.1448 H         1 95B         0.0268
     42 H12       -12.9052    3.9311    0.9539 H         1 95B         0.0285
     43 H13       -12.2079    2.6623    2.0172 H         1 95B         0.0285
     44 H14       -11.2196    3.4964   -0.7350 H         1 95B         0.0519
     45 H15       -12.0812    1.9796   -0.3064 H         1 95B         0.0519
     46 H16        -9.5565    2.4153    1.1214 H         1 95B         0.1840
     47 H17        -8.5092   -1.1518   -1.4886 H         1 95B         0.0544
     48 H18        -6.3757   -2.1703   -0.9059 H         1 95B         0.0508
     49 H19        -5.0652   -1.3305    1.0255 H         1 95B         0.0543
     50 H20        -6.2625    1.6059    2.7983 H         1 95B         0.2443
     51 H21        -8.0416    1.7600    2.6574 H         1 95B         0.2472
@<TRIPOS>BOND
     1    1    2 1  
     2    2    3 ar 
     3    2    8 ar 
     4    3    4 1  
     5    3    5 ar 
     6    5    6 ar 
     7    6    7 ar 
     8    7    8 ar 
     9    8    9 1  
    10    9   10 2  
    11    9   11 am 
    12   11   12 1  
    13   12   13 1  
    14   12   16 1  
    15   13   14 ar 
    16   13   15 ar 
    17   16   17 1  
    18   17   18 1  
    19   18   19 1  
    20   19   20 1  
    21   20   21 am 
    22   21   22 2  
    23   21   23 1  
    24   23   24 ar 
    25   23   29 ar 
    26   24   25 ar 
    27   25   26 ar 
    28   26   27 ar 
    29   27   28 1  
    30   27   29 ar 
    31   29   30 1  
    32    1   31 1  
    33    4   32 1  
    34    5   33 1  
    35    6   34 1  
    36    7   35 1  
    37   11   36 1  
    38   12   37 1  
    39   16   38 1  
    40   16   39 1  
    41   17   40 1  
    42   17   41 1  
    43   18   42 1  
    44   18   43 1  
    45   19   44 1  
    46   19   45 1  
    47   20   46 1  
    48   24   47 1  
    49   25   48 1  
    50   26   49 1  
    51   28   50 1  
    52   30   51 1  
@<TRIPOS>SUBSTRUCTURE
     1 95B         1

