### 
### Created by X-TOOL on Mon Aug  2 16:12:10 2021
### 

@<TRIPOS>MOLECULE
5oai_ligand
   54    56     1     0     0
SMALL
GAST_HUCK


@<TRIPOS>ATOM
      1 N          56.1810    1.0330   16.5100 N.pl3     1 B5K        -0.2788
      2 C          59.9780    1.7550   18.0200 C.ar      1 B5K        -0.0636
      3 O          58.3690   -3.0970   20.1580 O.2       1 B5K        -0.3925
      4 C1         59.5460    2.5730   16.9760 C.ar      1 B5K         0.0268
      5 C10        56.6670   -0.2890   21.5000 C.3       1 B5K         0.0686
      6 C11        56.1050    1.0780   21.1750 C.ar      1 B5K        -0.0278
      7 C12        56.9190    2.2060   21.3110 C.ar      1 B5K        -0.0305
      8 C13        56.4360    3.4830   21.0350 C.ar      1 B5K         0.1573
      9 C14        55.0310    3.6350   20.5970 C.ar      1 B5K         0.1902
     10 C15        54.2040    2.4140   20.4730 C.ar      1 B5K         0.1573
     11 C16        54.7750    1.1830   20.7710 C.ar      1 B5K        -0.0305
     12 C17        59.5080   -3.7270   17.6020 C.3       1 B5K         0.0448
     13 C18        59.5850   -3.9560   16.1010 C.3       1 B5K        -0.0396
     14 C19        59.5610   -5.0930   18.2830 C.3       1 B5K        -0.0396
     15 C2         58.2890    2.4310   16.3820 C.ar      1 B5K        -0.0286
     16 C20        60.7200   -2.9040   18.0240 C.3       1 B5K        -0.0396
     17 C21        54.4280   -0.6780   17.1590 C.2       1 B5K         0.0771
     18 C22        55.3970   -2.1040   20.5880 C.2       1 B5K         0.1772
     19 C3         57.4300    1.4430   16.8410 C.ar      1 B5K         0.0638
     20 C4         57.9220    0.6000   17.9460 C.ar      1 B5K        -0.0100
     21 C5         59.1680    0.7510   18.5220 C.ar      1 B5K        -0.0713
     22 C6         55.7550   -0.0040   17.2730 C.2       1 B5K         0.0929
     23 C7         56.8590   -0.3590   18.2250 C.2       1 B5K         0.0165
     24 C8         57.2870   -1.2200   19.3710 C.3       1 B5K         0.1572
     25 C9         58.0180   -2.5240   19.1410 C.2       1 B5K         0.2095
     26 F          54.5220    4.8480   20.3200 F         1 B5K        -0.1911
     27 F1         52.9230    2.4990   20.0780 F         1 B5K        -0.1872
     28 F2         57.2190    4.5700   21.1600 F         1 B5K        -0.1872
     29 N1         56.3420   -1.2770   20.4810 N.am      1 B5K        -0.2360
     30 N2         58.2880   -2.9780   17.9120 N.am      1 B5K        -0.2787
     31 O1         53.7530   -0.4780   16.1240 O.co2     1 B5K        -0.5632
     32 O2         53.9990   -1.3970   18.0810 O.co2     1 B5K        -0.5632
     33 O3         54.7570   -2.1590   21.6260 O.2       1 B5K        -0.3825
     34 CL         60.6590    3.8440   16.3900 Cl        1 B5K        -0.0785
     35 H1         55.6178    1.4617   15.7617 H         1 B5K         0.2212
     36 H2         60.9635    1.9079   18.4449 H         1 B5K         0.0520
     37 H3         56.2508   -0.6230   22.4619 H         1 B5K         0.0683
     38 H4         57.7612   -0.2114   21.5811 H         1 B5K         0.0683
     39 H5         57.9456    2.0848   21.6374 H         1 B5K         0.0500
     40 H6         54.1735    0.2851   20.6876 H         1 B5K         0.0500
     41 H7         60.4998   -4.5184   15.8624 H         1 B5K         0.0254
     42 H8         59.6052   -2.9860   15.5826 H         1 B5K         0.0254
     43 H9         58.7058   -4.5294   15.7720 H         1 B5K         0.0254
     44 H10        59.5071   -4.9612   19.3737 H         1 B5K         0.0254
     45 H11        60.5028   -5.5972   18.0207 H         1 B5K         0.0254
     46 H12        58.7113   -5.7044   17.9452 H         1 B5K         0.0254
     47 H13        57.9886    3.0855   15.5718 H         1 B5K         0.0551
     48 H14        60.6833   -1.9197   17.5343 H         1 B5K         0.0254
     49 H15        61.6404   -3.4275   17.7263 H         1 B5K         0.0254
     50 H16        60.7107   -2.7709   19.1159 H         1 B5K         0.0254
     51 H17        55.1527   -2.7661   19.7587 H         1 B5K         0.1550
     52 H18        59.4975    0.1109   19.3324 H         1 B5K         0.0554
     53 H19        58.0954   -0.6039   19.7915 H         1 B5K         0.0907
     54 H20        57.6328   -2.7995   17.1779 H         1 B5K         0.1858
@<TRIPOS>BOND
     1    1   19 1  
     2   22    1 1  
     3    2    4 ar 
     4   21    2 ar 
     5   25    3 2  
     6   15    4 ar 
     7    4   34 1  
     8    5    6 1  
     9   29    5 1  
    10    6    7 ar 
    11    6   11 ar 
    12    7    8 ar 
    13    8    9 ar 
    14    8   28 1  
    15   10    9 ar 
    16    9   26 1  
    17   11   10 ar 
    18   10   27 1  
    19   12   13 1  
    20   12   14 1  
    21   12   16 1  
    22   30   12 1  
    23   19   15 ar 
    24   22   17 1  
    25   17   31 ar 
    26   17   32 ar 
    27   29   18 am 
    28   18   33 2  
    29   20   19 ar 
    30   20   21 ar 
    31   23   20 1  
    32   23   22 2  
    33   24   23 1  
    34   25   24 1  
    35   24   29 1  
    36   25   30 am 
    37    1   35 1  
    38    2   36 1  
    39    5   37 1  
    40    5   38 1  
    41    7   39 1  
    42   11   40 1  
    43   13   41 1  
    44   13   42 1  
    45   13   43 1  
    46   14   44 1  
    47   14   45 1  
    48   14   46 1  
    49   15   47 1  
    50   16   48 1  
    51   16   49 1  
    52   16   50 1  
    53   18   51 1  
    54   21   52 1  
    55   24   53 1  
    56   30   54 1  
@<TRIPOS>SUBSTRUCTURE
     1 B5K         1

