### 
### Created by X-TOOL on Mon Aug  2 16:10:28 2021
### 

@<TRIPOS>MOLECULE
5oaj_ligand
   42    45     1     0     0
SMALL
GAST_HUCK


@<TRIPOS>ATOM
      1 C12        48.6370   25.4920   52.5890 C.2       1 TKT         0.0624
      2 O4         50.0190   24.2370   51.1860 O.2       1 TKT        -0.3761
      3 C8         53.6610   22.6660   57.0890 C.3       1 TKT        -0.0426
      4 C9         49.8030   24.7360   52.2770 C.2       1 TKT         0.2363
      5 C11        48.2330   26.0350   53.7910 C.2       1 TKT         0.0510
      6 O3         50.5560   24.6440   53.4130 O.3       1 TKT        -0.2793
      7 C7         50.7450   23.2930   56.0610 C.3       1 TKT        -0.0045
      8 C6         51.3830   24.6750   56.2580 C.3       1 TKT        -0.0045
      9 N1         53.1210   23.0930   55.7960 N.4       1 TKT         0.2375
     10 C5         52.7900   24.5300   55.6650 C.3       1 TKT        -0.0180
     11 C4         52.8380   24.8690   54.1640 C.3       1 TKT         0.0211
     12 C1         51.8480   22.4640   55.3810 C.3       1 TKT        -0.0180
     13 C2         51.7840   22.5620   53.8480 C.3       1 TKT         0.0211
     14 C3         51.8820   24.0090   53.3390 C.3       1 TKT         0.0960
     15 C13        45.5790   27.1470   50.2480 C.ar      1 TKT        -0.0756
     16 C15        46.6680   26.6160   52.3080 C.ar      1 TKT         0.0693
     17 C16        47.6510   25.8710   51.6210 C.ar      1 TKT        -0.0070
     18 C17        47.5950   25.7940   50.2260 C.ar      1 TKT        -0.0729
     19 C18        46.5650   26.4360   49.5500 C.ar      1 TKT        -0.0783
     20 N10        47.0500   26.6920   53.6310 N.pl3     1 TKT        -0.2695
     21 C21        45.6250   27.2490   51.6360 C.ar      1 TKT        -0.0418
     22 H1         54.6027   23.1989   57.2871 H         1 TKT         0.0778
     23 H2         53.8504   21.5826   57.0676 H         1 TKT         0.0778
     24 H3         52.9356   22.8958   57.8833 H         1 TKT         0.0778
     25 H4         48.7790   25.9510   54.7295 H         1 TKT         0.1070
     26 H5         49.8555   23.3617   55.4176 H         1 TKT         0.0322
     27 H6         50.4646   22.8509   57.0284 H         1 TKT         0.0322
     28 H7         51.4349   24.9317   57.3264 H         1 TKT         0.0322
     29 H8         50.8121   25.4478   55.7225 H         1 TKT         0.0322
     30 H9         53.8288   22.8640   55.1158 H         1 TKT         0.2036
     31 H10        53.5040   25.1600   56.2158 H         1 TKT         0.0852
     32 H11        53.8627   24.7071   53.7984 H         1 TKT         0.0348
     33 H12        52.5643   25.9262   54.0322 H         1 TKT         0.0348
     34 H13        51.7921   21.4123   55.6984 H         1 TKT         0.0852
     35 H14        50.8295   22.1338   53.5080 H         1 TKT         0.0348
     36 H15        52.6175   21.9830   53.4237 H         1 TKT         0.0348
     37 H16        52.2274   23.9902   52.2948 H         1 TKT         0.0651
     38 H17        44.7724   27.6223   49.7016 H         1 TKT         0.0533
     39 H18        48.3476   25.2391   49.6776 H         1 TKT         0.0538
     40 H19        46.5232   26.3864   48.4679 H         1 TKT         0.0519
     41 H20        46.5253   27.1688   54.3782 H         1 TKT         0.2321
     42 H21        44.8697   27.8058   52.1787 H         1 TKT         0.0549
@<TRIPOS>BOND
     1    1    4 1  
     2    5    1 2  
     3   17    1 1  
     4    4    2 2  
     5    9    3 1  
     6    4    6 1  
     7   20    5 1  
     8    6   14 1  
     9    7    8 1  
    10   12    7 1  
    11   10    8 1  
    12   10    9 1  
    13   12    9 1  
    14   11   10 1  
    15   14   11 1  
    16   13   12 1  
    17   14   13 1  
    18   15   19 ar 
    19   21   15 ar 
    20   16   17 ar 
    21   16   20 1  
    22   16   21 ar 
    23   17   18 ar 
    24   18   19 ar 
    25    3   22 1  
    26    3   23 1  
    27    3   24 1  
    28    5   25 1  
    29    7   26 1  
    30    7   27 1  
    31    8   28 1  
    32    8   29 1  
    33    9   30 1  
    34   10   31 1  
    35   11   32 1  
    36   11   33 1  
    37   12   34 1  
    38   13   35 1  
    39   13   36 1  
    40   14   37 1  
    41   15   38 1  
    42   18   39 1  
    43   19   40 1  
    44   20   41 1  
    45   21   42 1  
@<TRIPOS>SUBSTRUCTURE
     1 TKT         1

