### 
### Created by X-TOOL on Wed Jan  1 15:39:34 2020
### 

@<TRIPOS>MOLECULE
5oax_ligand
   78    83     1     0     0
SMALL
GAST_HUCK


@<TRIPOS>ATOM
      1 O5        -18.0330    7.0680    0.4660 O.3       1 9Q5        -0.3860
      2 O4        -23.2240    9.1690    1.2150 O.3       1 9Q5        -0.3849
      3 C13       -13.3470    7.8830   -2.7460 C.2       1 9Q5         0.2572
      4 N2        -26.1100   10.6990    1.7050 N.2       1 9Q5        -0.0900
      5 C17       -10.7420   10.3400   -1.9020 C.ar      1 9Q5        -0.0400
      6 C11       -12.0080    9.7320   -1.9400 C.ar      1 9Q5         0.1186
      7 C9        -23.8660    9.8570    0.1610 C.3       1 9Q5         0.1267
      8 C8        -23.0670    9.6700   -1.1350 C.3       1 9Q5         0.1360
      9 C20       -13.0160   11.6390   -0.6410 C.ar      1 9Q5         0.1600
     10 N1        -27.0590   10.6770    2.7740 N.2       1 9Q5        -0.2165
     11 O1        -20.5960    7.7220   -0.7180 O.3       1 9Q5        -0.3552
     12 O2        -21.7900    5.2670   -0.4050 O.3       1 9Q5        -0.3924
     13 C1        -18.0230    8.0540   -1.7980 C.3       1 9Q5         0.1408
     14 C2        -18.9350    9.2130   -1.4870 C.3       1 9Q5         0.1243
     15 C3        -25.2360    9.3090   -0.0490 C.3       1 9Q5         0.1476
     16 C4        -19.8210    6.5640   -1.1060 C.3       1 9Q5         0.1119
     17 C5        -20.3530    5.4210   -0.2740 C.3       1 9Q5         0.0730
     18 C6        -18.3370    6.8240   -0.9130 C.3       1 9Q5         0.1172
     19 O3        -23.6050   10.3340   -2.3080 O.3       1 9Q5        -0.3552
     20 C7        -20.3960    8.7960   -1.5730 C.3       1 9Q5         0.1358
     21 C10       -25.7910    9.9500   -1.3090 C.3       1 9Q5         0.1195
     22 C12       -13.1870   10.3800   -1.3650 C.ar      1 9Q5         0.0290
     23 C14       -24.8690    9.7950   -2.5430 C.3       1 9Q5         0.1122
     24 F2        -30.3720    6.4120    5.6610 F         1 9Q5        -0.1847
     25 C28       -29.9690    7.6300    5.3340 C.ar      1 9Q5         0.1281
     26 C23       -30.4440    8.7070    6.0560 C.ar      1 9Q5        -0.0325
     27 C27       -29.0490    7.8230    4.2520 C.ar      1 9Q5        -0.0268
     28 C26       -28.5950    9.0890    3.9440 C.ar      1 9Q5        -0.0216
     29 C25       -29.0760   10.1390    4.6980 C.ar      1 9Q5        -0.0640
     30 C24       -29.9980    9.9820    5.7330 C.ar      1 9Q5        -0.0678
     31 C22       -27.6090    9.4490    2.8590 C.2       1 9Q5         0.0691
     32 C21       -26.9660    8.7020    1.8340 C.2       1 9Q5         0.0882
     33 N         -26.1090    9.5010    1.1060 N.pl3     1 9Q5        -0.1587
     34 O7        -25.9360   11.3800   -1.1270 O.3       1 9Q5        -0.3857
     35 C16       -25.4060   10.4980   -3.8110 C.3       1 9Q5         0.0730
     36 O8        -24.3280   10.5910   -4.7540 O.3       1 9Q5        -0.3924
     37 S         -21.3850   10.1570   -0.9830 S.3       1 9Q5        -0.0931
     38 O         -18.6520   10.2800   -2.3850 O.3       1 9Q5        -0.3852
     39 O10       -16.7230    8.4550   -1.5760 O.3       1 9Q5        -0.3114
     40 C29       -15.7270    7.6880   -2.1940 C.2       1 9Q5         0.0732
     41 C         -14.4890    8.4970   -2.0890 C.2       1 9Q5         0.0593
     42 C15       -14.4460    9.7210   -1.4380 C.3       1 9Q5         0.0083
     43 F1        -14.1000   12.2450   -0.0200 F         1 9Q5        -0.1928
     44 C19       -11.6300   12.2070   -0.5980 C.ar      1 9Q5         0.1477
     45 F         -11.5210   13.4180    0.0130 F         1 9Q5        -0.1948
     46 C18       -10.5670   11.5590   -1.2420 C.ar      1 9Q5        -0.0443
     47 O6        -12.1560    8.4970   -2.5700 O.3       1 9Q5        -0.2271
     48 O9        -13.4510    6.7230   -3.2330 O.2       1 9Q5        -0.3720
     49 H1        -17.1092    7.2713    0.5543 H         1 9Q5         0.2100
     50 H2        -23.1744    8.2441    1.0041 H         1 9Q5         0.2101
     51 H3         -9.8983    9.8618   -2.3863 H         1 9Q5         0.0490
     52 H4        -23.9295   10.9271    0.4078 H         1 9Q5         0.0663
     53 H5        -23.0808    8.5900   -1.3433 H         1 9Q5         0.0741
     54 H6        -22.2202    6.0646   -0.1197 H         1 9Q5         0.2095
     55 H7        -18.1464    7.7730   -2.8543 H         1 9Q5         0.0715
     56 H8        -18.7338    9.5542   -0.4608 H         1 9Q5         0.0660
     57 H9        -25.1522    8.2254   -0.2189 H         1 9Q5         0.0746
     58 H10       -19.9926    6.3431   -2.1698 H         1 9Q5         0.0646
     59 H11       -19.8662    4.4899   -0.5997 H         1 9Q5         0.0584
     60 H12       -20.1123    5.6105    0.7825 H         1 9Q5         0.0584
     61 H13       -17.7538    5.9567   -1.2560 H         1 9Q5         0.0652
     62 H14       -20.6676    8.5304   -2.6053 H         1 9Q5         0.0741
     63 H15       -26.7695    9.4965   -1.5254 H         1 9Q5         0.0655
     64 H16       -24.7693    8.7196   -2.7517 H         1 9Q5         0.0646
     65 H17       -31.1537    8.5596    6.8620 H         1 9Q5         0.0569
     66 H18       -28.7088    6.9715    3.6738 H         1 9Q5         0.0566
     67 H19       -28.7191   11.1379    4.4748 H         1 9Q5         0.0548
     68 H20       -30.3621   10.8450    6.2787 H         1 9Q5         0.0596
     69 H21       -27.1284    7.6413    1.6486 H         1 9Q5         0.1078
     70 H22       -26.4960   11.5476   -0.3781 H         1 9Q5         0.2100
     71 H23       -25.7669   11.5052   -3.5555 H         1 9Q5         0.0584
     72 H24       -26.2305    9.9116   -4.2426 H         1 9Q5         0.0584
     73 H25       -23.6184   11.0952   -4.3734 H         1 9Q5         0.2095
     74 H26       -17.7358   10.5200   -2.3111 H         1 9Q5         0.2101
     75 H27       -15.8383    6.7070   -2.6535 H         1 9Q5         0.1058
     76 H28       -15.1420   10.3958   -1.9579 H         1 9Q5         0.0488
     77 H29       -14.7938    9.5588   -0.4071 H         1 9Q5         0.0488
     78 H30        -9.5838   12.0153   -1.2276 H         1 9Q5         0.0512
@<TRIPOS>BOND
     1   18    1 1  
     2    7    2 1  
     3   41    3 1  
     4    3   47 1  
     5    3   48 2  
     6    4   10 2  
     7   33    4 1  
     8    6    5 ar 
     9    5   46 ar 
    10    6   22 ar 
    11   47    6 1  
    12    8    7 1  
    13    7   15 1  
    14    8   19 1  
    15   37    8 1  
    16   22    9 ar 
    17    9   43 1  
    18    9   44 ar 
    19   31   10 1  
    20   16   11 1  
    21   20   11 1  
    22   17   12 1  
    23   13   14 1  
    24   13   18 1  
    25   39   13 1  
    26   14   20 1  
    27   14   38 1  
    28   15   21 1  
    29   15   33 1  
    30   16   17 1  
    31   18   16 1  
    32   19   23 1  
    33   20   37 1  
    34   23   21 1  
    35   21   34 1  
    36   22   42 1  
    37   23   35 1  
    38   25   24 1  
    39   25   26 ar 
    40   27   25 ar 
    41   30   26 ar 
    42   28   27 ar 
    43   28   29 ar 
    44   31   28 1  
    45   29   30 ar 
    46   32   31 2  
    47   33   32 1  
    48   35   36 1  
    49   40   39 1  
    50   40   41 2  
    51   41   42 1  
    52   44   45 1  
    53   44   46 ar 
    54    1   49 1  
    55    2   50 1  
    56    5   51 1  
    57    7   52 1  
    58    8   53 1  
    59   12   54 1  
    60   13   55 1  
    61   14   56 1  
    62   15   57 1  
    63   16   58 1  
    64   17   59 1  
    65   17   60 1  
    66   18   61 1  
    67   20   62 1  
    68   21   63 1  
    69   23   64 1  
    70   26   65 1  
    71   27   66 1  
    72   29   67 1  
    73   30   68 1  
    74   32   69 1  
    75   34   70 1  
    76   35   71 1  
    77   35   72 1  
    78   36   73 1  
    79   38   74 1  
    80   40   75 1  
    81   42   76 1  
    82   42   77 1  
    83   46   78 1  
@<TRIPOS>SUBSTRUCTURE
     1 9Q5         1

