### 
### Created by X-TOOL on Mon Aug  2 16:12:10 2021
### 

@<TRIPOS>MOLECULE
5obg_ligand
   48    54     1     0     0
SMALL
GAST_HUCK


@<TRIPOS>ATOM
      1 CAV        33.8590   19.4330   24.8480 C.3       1 SY9        -0.0427
      2 CAU        32.8830   18.4170   25.4170 C.3       1 SY9        -0.0085
      3 CAT        31.4740   19.0270   25.4150 C.3       1 SY9        -0.0004
      4 CAN        31.0700   19.1320   23.9390 C.3       1 SY9         0.0204
      5 CAK        31.9810   20.0880   23.1730 C.3       1 SY9         0.0638
      6 NAH        31.8070   19.7760   21.7350 N.am      1 SY9        -0.1999
      7 CAA        32.9920   19.2360   21.2170 C.ar      1 SY9         0.1052
      8 CAF        33.1970   18.6790   19.9530 C.ar      1 SY9        -0.0063
      9 CAE        34.3040   17.8700   19.7770 C.ar      1 SY9        -0.0464
     10 CAD        35.2030   17.6520   20.8250 C.ar      1 SY9        -0.0477
     11 CAC        35.0260   18.2730   22.0500 C.ar      1 SY9        -0.0530
     12 CAB        33.9210   19.0870   22.2420 C.ar      1 SY9        -0.0230
     13 CAG        33.5080   19.9370   23.4220 C.3       1 SY9         0.0242
     14 CAW        34.1880   21.3170   23.4330 C.3       1 SY9        -0.0348
     15 CAX        33.8900   21.8400   24.8300 C.3       1 SY9        -0.0411
     16 NAY        33.9140   20.6650   25.7020 N.4       1 SY9         0.2398
     17 CAS        32.8460   20.7130   26.7150 C.3       1 SY9        -0.0076
     18 CAR        31.5080   20.3650   26.1240 C.2       1 SY9        -0.0310
     19 CAQ        30.4690   21.1800   26.1610 C.2       1 SY9        -0.0782
     20 CAP        29.1340   20.8320   25.5770 C.3       1 SY9         0.0554
     21 OAO        29.1870   20.7630   24.1370 O.3       1 SY9        -0.3689
     22 CAM        29.6130   19.5040   23.6080 C.3       1 SY9         0.0844
     23 CAL        29.3910   19.6030   22.0560 C.3       1 SY9         0.0744
     24 CAI        30.5790   19.7880   21.1360 C.2       1 SY9         0.2264
     25 OAJ        30.4400   19.9430   19.9220 O.2       1 SY9        -0.3740
     26 H1         34.8525   18.9615   24.8212 H         1 SY9         0.0714
     27 H2         33.1736   18.1621   26.4468 H         1 SY9         0.0332
     28 H3         32.8929   17.5081   24.7975 H         1 SY9         0.0332
     29 H4         30.7707   18.3651   25.9415 H         1 SY9         0.0453
     30 H5         31.2276   18.1259   23.5233 H         1 SY9         0.0371
     31 H6         31.6785   21.1217   23.3962 H         1 SY9         0.0535
     32 H7         32.5108   18.8745   19.1369 H         1 SY9         0.0599
     33 H8         34.4768   17.3995   18.8158 H         1 SY9         0.0798
     34 H9         36.0481   16.9894   20.6771 H         1 SY9         0.0600
     35 H10        35.7432   18.1242   22.8491 H         1 SY9         0.0770
     36 H11        33.7564   21.9756   22.6649 H         1 SY9         0.0190
     37 H12        35.2718   21.2241   23.2695 H         1 SY9         0.0190
     38 H13        32.9002   22.3190   24.8579 H         1 SY9         0.0804
     39 H14        34.6570   22.5647   25.1407 H         1 SY9         0.0804
     40 H15        34.7929   20.6595   26.1954 H         1 SY9         0.2038
     41 H16        32.7976   21.7284   27.1352 H         1 SY9         0.0963
     42 H17        33.0803   19.9957   27.5154 H         1 SY9         0.0963
     43 H18        30.5886   22.1512   26.6388 H         1 SY9         0.0266
     44 H19        28.4042   21.6007   25.8711 H         1 SY9         0.0635
     45 H20        28.8160   19.8550   25.9699 H         1 SY9         0.0635
     46 H21        28.9674   18.7136   24.0184 H         1 SY9         0.0628
     47 H22        28.7193   20.4569   21.8842 H         1 SY9         0.0538
     48 H23        28.8899   18.6741   21.7461 H         1 SY9         0.0538
@<TRIPOS>BOND
     1    1    2 1  
     2    1   13 1  
     3    1   16 1  
     4    2    3 1  
     5    3    4 1  
     6    3   18 1  
     7    4    5 1  
     8    4   22 1  
     9    5    6 1  
    10    5   13 1  
    11    6    7 1  
    12    6   24 am 
    13    7    8 ar 
    14    7   12 ar 
    15    8    9 ar 
    16    9   10 ar 
    17   10   11 ar 
    18   11   12 ar 
    19   12   13 1  
    20   13   14 1  
    21   14   15 1  
    22   15   16 1  
    23   16   17 1  
    24   17   18 1  
    25   18   19 2  
    26   19   20 1  
    27   20   21 1  
    28   21   22 1  
    29   22   23 1  
    30   23   24 1  
    31   24   25 2  
    32    1   26 1  
    33    2   27 1  
    34    2   28 1  
    35    3   29 1  
    36    4   30 1  
    37    5   31 1  
    38    8   32 1  
    39    9   33 1  
    40   10   34 1  
    41   11   35 1  
    42   14   36 1  
    43   14   37 1  
    44   15   38 1  
    45   15   39 1  
    46   16   40 1  
    47   17   41 1  
    48   17   42 1  
    49   19   43 1  
    50   20   44 1  
    51   20   45 1  
    52   22   46 1  
    53   23   47 1  
    54   23   48 1  
@<TRIPOS>SUBSTRUCTURE
     1 SY9         1

