### 
### Created by X-TOOL on Mon Sep 10 21:13:33 2018
### 

@<TRIPOS>MOLECULE
5obj_ligand
   29    31     1     0     0
SMALL
GAST_HUCK


@<TRIPOS>ATOM
      1 C8         -5.9670   13.7590  -15.8200 C.ar      1 9QK        -0.0600
      2 N          -7.2750   11.5660  -11.7780 N.ar      1 9QK        -0.2892
      3 C          -6.1640    7.6880  -13.2580 C.2       1 9QK         0.0735
      4 O          -4.8920    7.4660  -13.4540 O.co2     1 9QK        -0.5570
      5 C1         -6.4590    9.0320  -12.6560 C.ar      1 9QK         0.0362
      6 C10        -7.3370   10.4890  -10.9350 C.ar      1 9QK         0.0472
      7 C11        -7.8400   10.6840   -9.6250 C.ar      1 9QK        -0.0392
      8 C12        -7.9210    9.6370   -8.7460 C.ar      1 9QK        -0.0559
      9 C13        -7.5080    8.3680   -9.1190 C.ar      1 9QK        -0.0559
     10 C14        -7.0220    8.1360  -10.3750 C.ar      1 9QK        -0.0452
     11 C15        -6.9280    9.1830  -11.3210 C.ar      1 9QK         0.0183
     12 C2         -6.3860   10.1360  -13.4680 C.ar      1 9QK        -0.0112
     13 C3         -6.8150   11.3830  -13.0070 C.ar      1 9QK         0.0541
     14 C4         -6.8220   12.5670  -13.9030 C.ar      1 9QK         0.0010
     15 C5         -7.7270   13.6070  -13.6930 C.ar      1 9QK        -0.0158
     16 C6         -7.7230   14.6800  -14.5530 C.ar      1 9QK         0.1357
     17 C7         -6.8670   14.7900  -15.6110 C.ar      1 9QK        -0.0254
     18 C9         -5.9450   12.6590  -14.9780 C.ar      1 9QK        -0.0531
     19 F          -8.6210   15.6790  -14.3450 F         1 9QK        -0.1828
     20 O1         -7.0630    6.8820  -13.5520 O.co2     1 9QK        -0.5570
     21 H1         -5.2726   13.8129  -16.6507 H         1 9QK         0.0615
     22 H2         -8.1638   11.6712   -9.3156 H         1 9QK         0.0643
     23 H3         -8.3120    9.8026   -7.7486 H         1 9QK         0.0651
     24 H4         -7.5710    7.5520   -8.4082 H         1 9QK         0.0643
     25 H5         -6.7045    7.1366  -10.6497 H         1 9QK         0.0651
     26 H6         -5.9929   10.0398  -14.4736 H         1 9QK         0.0740
     27 H7         -8.4238   13.5701  -12.8635 H         1 9QK         0.0633
     28 H8         -6.8912   15.6545  -16.2646 H         1 9QK         0.0627
     29 H9         -5.2352   11.8601  -15.1596 H         1 9QK         0.0615
@<TRIPOS>BOND
     1    1   17 ar 
     2   18    1 ar 
     3    2    6 ar 
     4   13    2 ar 
     5    3    4 ar 
     6    5    3 1  
     7    3   20 ar 
     8    5   11 ar 
     9   12    5 ar 
    10    6    7 ar 
    11    6   11 ar 
    12    7    8 ar 
    13    8    9 ar 
    14   10    9 ar 
    15   11   10 ar 
    16   13   12 ar 
    17   14   13 1  
    18   14   15 ar 
    19   14   18 ar 
    20   15   16 ar 
    21   16   17 ar 
    22   16   19 1  
    23    1   21 1  
    24    7   22 1  
    25    8   23 1  
    26    9   24 1  
    27   10   25 1  
    28   12   26 1  
    29   15   27 1  
    30   17   28 1  
    31   18   29 1  
@<TRIPOS>SUBSTRUCTURE
     1 9QK         1

