### 
### Created by X-TOOL on Mon Sep 10 21:13:34 2018
### 

@<TRIPOS>MOLECULE
5obr_ligand
   29    31     1     0     0
SMALL
GAST_HUCK


@<TRIPOS>ATOM
      1 C1          5.8240   -8.7460  -12.4790 C.ar      1 9QT         0.0362
      2 C2          5.7490   -9.8550  -13.2920 C.ar      1 9QT        -0.0112
      3 C3          6.3590  -11.0530  -12.9180 C.ar      1 9QT         0.0542
      4 C4          6.3400  -12.2290  -13.8270 C.ar      1 9QT         0.0015
      5 C5          5.5330  -12.2160  -14.9640 C.ar      1 9QT        -0.0156
      6 C6          5.5360  -13.3070  -15.7900 C.ar      1 9QT         0.1362
      7 C7          6.2920  -14.4220  -15.5700 C.ar      1 9QT        -0.0116
      8 C8          7.0970  -14.4190  -14.4520 C.ar      1 9QT         0.0422
      9 C9          7.1330  -13.3540  -13.5690 C.ar      1 9QT        -0.0391
     10 C11         7.7550  -10.2690   -9.6910 C.ar      1 9QT        -0.0392
     11 C12         7.8110   -9.2340   -8.7960 C.ar      1 9QT        -0.0559
     12 C14         6.5390   -7.8310  -10.2520 C.ar      1 9QT        -0.0452
     13 N           7.0090  -11.1930  -11.7710 N.ar      1 9QT        -0.2892
     14 C           5.4340   -7.4240  -13.0650 C.2       1 9QT         0.0735
     15 O           4.3500   -7.1970  -13.5790 O.co2     1 9QT        -0.5570
     16 C10         7.0670  -10.1150  -10.9180 C.ar      1 9QT         0.0472
     17 C13         7.1950   -8.0260   -9.0710 C.ar      1 9QT        -0.0559
     18 C15         6.4650   -8.8680  -11.2180 C.ar      1 9QT         0.0183
     19 F           4.7460  -13.2870  -16.9000 F         1 9QT        -0.1828
     20 O1          6.4090   -6.5500  -13.0310 O.co2     1 9QT        -0.5570
     21 CL          8.1500  -15.7800  -14.1900 Cl        1 9QT        -0.0710
     22 H1          5.2110   -9.7968  -14.2313 H         1 9QT         0.0740
     23 H2          4.9134  -11.3557  -15.1899 H         1 9QT         0.0635
     24 H3          6.2604  -15.2706  -16.2438 H         1 9QT         0.0632
     25 H4          7.7662  -13.3901  -12.6899 H         1 9QT         0.0621
     26 H5          8.2398  -11.2103   -9.4586 H         1 9QT         0.0643
     27 H6          8.3443   -9.3627   -7.8610 H         1 9QT         0.0651
     28 H7          6.0700   -6.8748  -10.4540 H         1 9QT         0.0651
     29 H8          7.2338   -7.2258   -8.3407 H         1 9QT         0.0643
@<TRIPOS>BOND
     1    1    2 ar 
     2    1   14 1  
     3   18    1 ar 
     4    2    3 ar 
     5    3    4 1  
     6    3   13 ar 
     7    4    5 ar 
     8    4    9 ar 
     9    5    6 ar 
    10    6    7 ar 
    11    6   19 1  
    12    8    7 ar 
    13    9    8 ar 
    14    8   21 1  
    15   11   10 ar 
    16   10   16 ar 
    17   17   11 ar 
    18   12   17 ar 
    19   12   18 ar 
    20   13   16 ar 
    21   14   15 ar 
    22   14   20 ar 
    23   16   18 ar 
    24    2   22 1  
    25    5   23 1  
    26    7   24 1  
    27    9   25 1  
    28   10   26 1  
    29   11   27 1  
    30   12   28 1  
    31   17   29 1  
@<TRIPOS>SUBSTRUCTURE
     1 9QT         1

