### 
### Created by X-TOOL on Wed Jan  1 15:39:37 2020
### 

@<TRIPOS>MOLECULE
5oci_ligand
   62    66     1     0     0
SMALL
GAST_HUCK


@<TRIPOS>ATOM
      1 C1         66.6840   34.1930   23.6990 C.ar      1 9R8         0.0765
      2 C2         65.5130   33.8560   24.4300 C.ar      1 9R8         0.1008
      3 C3         65.5760   33.2100   25.6460 C.ar      1 9R8        -0.0048
      4 O5         64.3100   34.2050   23.9200 O.3       1 9R8        -0.3312
      5 C8         68.0220   33.3020   25.4770 C.ar      1 9R8         0.0144
      6 C9         66.8430   32.9430   26.1860 C.ar      1 9R8         0.0786
      7 C12        69.1230   32.9340   26.3620 C.2       1 9R8         0.0407
      8 C13        70.5960   33.2140   26.1430 C.3       1 9R8         0.0201
      9 C14        71.2560   32.5520   24.9630 C.ar      1 9R8        -0.0388
     10 C15        71.6630   33.3440   23.8870 C.ar      1 9R8        -0.0654
     11 C16        72.7120   31.4120   22.8800 C.ar      1 9R8        -0.0673
     12 C19        71.5980   31.2090   25.0220 C.ar      1 9R8        -0.0576
     13 C20        72.6570   29.1930   24.0440 C.3       1 9R8        -0.0327
     14 C21        68.2730   37.9130   25.2540 C.ar      1 9R8        -0.0566
     15 C22        67.4530   37.2510   24.3420 C.ar      1 9R8        -0.0516
     16 C24        69.3420   36.8510   22.8680 C.ar      1 9R8        -0.0516
     17 N29        70.5180   38.6870   25.9200 N.pl3     1 9R8        -0.3122
     18 C30        69.9100   39.0290   27.2350 C.3       1 9R8         0.0475
     19 C31        70.8360   39.9420   28.0580 C.3       1 9R8         0.0668
     20 C33        72.7470   39.1540   26.7600 C.3       1 9R8         0.0668
     21 C34        71.8790   38.1170   26.0210 C.3       1 9R8         0.0475
     22 C4         67.9540   33.8790   24.2060 C.ar      1 9R8        -0.0460
     23 C6         66.5390   34.8760   22.3910 C.2       1 9R8         0.2207
     24 O7         65.8330   34.3380   21.5410 O.2       1 9R8        -0.3838
     25 N10        67.2300   32.4350   27.3930 N.pl3     1 9R8        -0.2272
     26 N11        68.6240   32.4460   27.4610 N.2       1 9R8        -0.2220
     27 C17        72.3030   30.6380   23.9600 C.ar      1 9R8        -0.0526
     28 C18        72.3730   32.7580   22.8380 C.ar      1 9R8        -0.0749
     29 C23        67.9650   36.7250   23.1430 C.ar      1 9R8         0.0555
     30 C25        69.6500   37.9990   25.0090 C.ar      1 9R8         0.0258
     31 C26        70.1480   37.5150   23.7830 C.ar      1 9R8        -0.0566
     32 N27        67.1310   36.0840   22.1910 N.am      1 9R8        -0.2323
     33 C28        66.9450   36.7400   20.8890 C.3       1 9R8         0.0411
     34 O32        72.1450   39.3590   28.0530 O.3       1 9R8        -0.3760
     35 H1         64.6732   32.9169   26.1696 H         1 9R8         0.0462
     36 H2         64.4354   34.6380   23.0838 H         1 9R8         0.2502
     37 H3         71.1322   32.8891   27.0468 H         1 9R8         0.0579
     38 H4         70.7110   34.3009   26.0192 H         1 9R8         0.0579
     39 H5         71.4299   34.4025   23.8668 H         1 9R8         0.0503
     40 H6         73.2905   30.9686   22.0776 H         1 9R8         0.0501
     41 H7         71.3214   30.6098   25.8820 H         1 9R8         0.0497
     42 H8         73.2060   28.8967   23.1380 H         1 9R8         0.0390
     43 H9         71.7379   28.5946   24.1279 H         1 9R8         0.0390
     44 H10        73.2886   29.0210   24.9280 H         1 9R8         0.0390
     45 H11        67.8486   38.3582   26.1466 H         1 9R8         0.0481
     46 H12        66.3974   37.1392   24.5620 H         1 9R8         0.0474
     47 H13        69.7636   36.4372   21.9591 H         1 9R8         0.0474
     48 H14        69.7284   38.1016   27.7980 H         1 9R8         0.0531
     49 H15        68.9549   39.5474   27.0644 H         1 9R8         0.0531
     50 H16        70.4646   40.0184   29.0906 H         1 9R8         0.0579
     51 H17        70.8713   40.9442   27.6059 H         1 9R8         0.0579
     52 H18        72.7673   40.0995   26.1981 H         1 9R8         0.0579
     53 H19        73.7729   38.7745   26.8764 H         1 9R8         0.0579
     54 H20        72.2862   37.9306   25.0163 H         1 9R8         0.0531
     55 H21        71.8528   37.1741   26.5869 H         1 9R8         0.0531
     56 H22        68.8517   34.0772   23.6315 H         1 9R8         0.0649
     57 H23        66.5967   32.0987   28.1324 H         1 9R8         0.2381
     58 H24        72.6623   33.3586   21.9832 H         1 9R8         0.0582
     59 H25        71.1950   37.6660   23.5463 H         1 9R8         0.0481
     60 H26        66.2784   36.1291   20.2626 H         1 9R8         0.0543
     61 H27        67.9195   36.8482   20.3903 H         1 9R8         0.0543
     62 H28        66.4978   37.7336   21.0396 H         1 9R8         0.0543
@<TRIPOS>BOND
     1    1    2 ar 
     2    1   22 ar 
     3   23    1 1  
     4    2    3 ar 
     5    2    4 1  
     6    3    6 ar 
     7    5    6 ar 
     8    5    7 1  
     9   22    5 ar 
    10    6   25 1  
    11    7    8 1  
    12    7   26 2  
    13    8    9 1  
    14    9   10 ar 
    15    9   12 ar 
    16   10   28 ar 
    17   27   11 ar 
    18   28   11 ar 
    19   12   27 ar 
    20   27   13 1  
    21   15   14 ar 
    22   14   30 ar 
    23   29   15 ar 
    24   29   16 ar 
    25   16   31 ar 
    26   17   18 1  
    27   17   21 1  
    28   30   17 1  
    29   18   19 1  
    30   19   34 1  
    31   21   20 1  
    32   20   34 1  
    33   23   24 2  
    34   32   23 am 
    35   26   25 1  
    36   29   32 1  
    37   30   31 ar 
    38   32   33 1  
    39    3   35 1  
    40    4   36 1  
    41    8   37 1  
    42    8   38 1  
    43   10   39 1  
    44   11   40 1  
    45   12   41 1  
    46   13   42 1  
    47   13   43 1  
    48   13   44 1  
    49   14   45 1  
    50   15   46 1  
    51   16   47 1  
    52   18   48 1  
    53   18   49 1  
    54   19   50 1  
    55   19   51 1  
    56   20   52 1  
    57   20   53 1  
    58   21   54 1  
    59   21   55 1  
    60   22   56 1  
    61   25   57 1  
    62   28   58 1  
    63   31   59 1  
    64   33   60 1  
    65   33   61 1  
    66   33   62 1  
@<TRIPOS>SUBSTRUCTURE
     1 9R8         1

