### 
### Created by X-TOOL on Mon Sep 10 21:13:33 2018
### 

@<TRIPOS>MOLECULE
5odu_ligand
   27    27     1     0     0
SMALL
GAST_HUCK


@<TRIPOS>ATOM
      1 C1          3.2840  -27.5580  -58.2620 C.3       1 AMG         0.1876
      2 C2          4.1740  -28.5700  -59.0360 C.3       1 AMG         0.1341
      3 C3          5.4170  -27.8930  -59.6290 C.3       1 AMG         0.1141
      4 C4          5.0230  -26.6170  -60.4100 C.3       1 AMG         0.1119
      5 C5          4.1000  -25.6880  -59.5720 C.3       1 AMG         0.1130
      6 C6          3.6920  -24.4230  -60.4340 C.3       1 AMG         0.0730
      7 C7          3.0510  -26.5510  -56.0840 C.3       1 AMG         0.0395
      8 O1          3.9050  -27.1190  -57.0710 O.3       1 AMG        -0.3520
      9 O2          4.5240  -29.5870  -58.1570 O.3       1 AMG        -0.3841
     10 O3          6.0710  -28.7850  -60.4740 O.3       1 AMG        -0.3864
     11 O4          4.3540  -26.9890  -61.5760 O.3       1 AMG        -0.3865
     12 O5          2.9990  -26.4030  -59.0470 O.3       1 AMG        -0.3405
     13 O6          3.1770  -23.4010  -59.6370 O.3       1 AMG        -0.3924
     14 H1          2.3384  -28.0591  -58.0075 H         1 AMG         0.0937
     15 H2          3.5889  -28.9985  -59.8631 H         1 AMG         0.0671
     16 H3          6.0950  -27.6120  -58.8097 H         1 AMG         0.0648
     17 H4          5.9374  -26.0651  -60.6734 H         1 AMG         0.0647
     18 H5          4.6826  -25.3223  -58.7136 H         1 AMG         0.0647
     19 H6          2.9288  -24.7223  -61.1674 H         1 AMG         0.0584
     20 H7          4.5816  -24.0494  -60.9622 H         1 AMG         0.0584
     21 H8          3.6488  -26.2505  -55.2109 H         1 AMG         0.0525
     22 H9          2.3009  -27.2944  -55.7764 H         1 AMG         0.0525
     23 H10         2.5434  -25.6691  -56.5019 H         1 AMG         0.0525
     24 H11         3.7364  -29.9864  -57.8068 H         1 AMG         0.2101
     25 H12         6.3090  -29.5648  -59.9864 H         1 AMG         0.2100
     26 H13         4.1394  -26.2117  -62.0784 H         1 AMG         0.2100
     27 H14         3.8329  -23.1336  -59.0040 H         1 AMG         0.2095
@<TRIPOS>BOND
     1    1    2 1  
     2    1    8 1  
     3    1   12 1  
     4    2    3 1  
     5    2    9 1  
     6    3    4 1  
     7    3   10 1  
     8    4    5 1  
     9    4   11 1  
    10    5    6 1  
    11    5   12 1  
    12    6   13 1  
    13    8    7 1  
    14    1   14 1  
    15    2   15 1  
    16    3   16 1  
    17    4   17 1  
    18    5   18 1  
    19    6   19 1  
    20    6   20 1  
    21    7   21 1  
    22    7   22 1  
    23    7   23 1  
    24    9   24 1  
    25   10   25 1  
    26   11   26 1  
    27   13   27 1  
@<TRIPOS>SUBSTRUCTURE
     1 AMG         1

