### 
### Created by X-TOOL on Wed Jan  1 15:39:36 2020
### 

@<TRIPOS>MOLECULE
5odx_ligand
   67    71     1     0     0
SMALL
GAST_HUCK


@<TRIPOS>ATOM
      1 C1         -0.2270   33.9600   21.9980 C.2       1 9RZ         0.2214
      2 C7         -1.3550   32.8410   23.9000 C.ar      1 9RZ         0.1016
      3 C9         -0.1240   32.1240   25.8260 C.ar      1 9RZ         0.0875
      4 C10         1.0550   32.6110   25.2340 C.ar      1 9RZ         0.0254
      5 C11         2.0950   32.3290   26.2130 C.2       1 9RZ         0.1304
      6 C14         3.4920   32.7630   26.0670 C.2       1 9RZ         0.2160
      7 C16         5.7560   32.8790   25.1280 C.3       1 9RZ         0.0335
      8 C19         5.2250   30.2480   24.1980 C.3       1 9RZ         0.0786
      9 C20         6.3950   31.0610   23.6740 C.3       1 9RZ        -0.0229
     10 C21         6.8480   31.8730   24.8360 C.3       1 9RZ        -0.0302
     11 C24         1.0430   35.8470   22.8250 C.ar      1 9RZ         0.0555
     12 C27         3.0640   36.7740   23.6770 C.ar      1 9RZ        -0.0566
     13 C30         0.3020   35.7960   20.5210 C.3       1 9RZ         0.0411
     14 C32         2.5270   38.0430   27.1410 C.3       1 9RZ         0.0475
     15 C33         3.1930   39.1240   27.9840 C.3       1 9RZ         0.0668
     16 C35         5.1220   39.1180   26.6700 C.3       1 9RZ         0.0668
     17 N2          0.3630   35.1560   21.8160 N.am      1 9RZ        -0.2322
     18 O3         -0.7940   33.3910   21.1090 O.2       1 9RZ        -0.3833
     19 C4         -0.1730   33.3170   23.3160 C.ar      1 9RZ         0.0770
     20 C5          1.0200   33.2020   23.9850 C.ar      1 9RZ        -0.0451
     21 C6         -1.3220   32.2370   25.1350 C.ar      1 9RZ        -0.0025
     22 O8         -2.5010   32.9900   23.2370 O.3       1 9RZ        -0.3312
     23 N12         1.4930   31.7890   27.2260 N.2       1 9RZ        -0.1815
     24 N13         0.2570   31.6270   27.0240 N.pl3     1 9RZ        -0.2083
     25 O15         3.7920   33.6770   26.7670 O.2       1 9RZ        -0.3856
     26 N17         4.3910   32.2830   25.2130 N.am      1 9RZ        -0.2699
     27 C18         4.0350   31.1770   24.3510 C.3       1 9RZ         0.0595
     28 O22         4.8700   29.2940   23.2820 O.3       1 9RZ        -0.3778
     29 C23         5.8760   28.3330   23.0450 C.3       1 9RZ         0.0369
     30 C25         0.4060   36.3380   23.9450 C.ar      1 9RZ        -0.0516
     31 C26         2.4310   37.2480   24.8100 C.ar      1 9RZ         0.0258
     32 C28         1.0760   37.0260   24.9170 C.ar      1 9RZ        -0.0566
     33 C29         2.3860   36.0860   22.7080 C.ar      1 9RZ        -0.0516
     34 N31         3.1160   37.9610   25.7990 N.pl3     1 9RZ        -0.3122
     35 O34         4.5780   38.9250   27.9570 O.3       1 9RZ        -0.3760
     36 C36         4.5710   38.0240   25.7430 C.3       1 9RZ         0.0475
     37 H1          5.7556   33.6321   24.3262 H         1 9RZ         0.0522
     38 H2          5.9815   33.3659   26.0882 H         1 9RZ         0.0522
     39 H3          5.4851   29.7815   25.1596 H         1 9RZ         0.0616
     40 H4          6.0743   31.7128   22.8480 H         1 9RZ         0.0291
     41 H5          7.2017   30.3988   23.3266 H         1 9RZ         0.0291
     42 H6          7.0075   31.2247   25.7102 H         1 9RZ         0.0285
     43 H7          7.7851   32.3939   24.5900 H         1 9RZ         0.0285
     44 H8          4.1260   36.9519   23.5525 H         1 9RZ         0.0481
     45 H9         -0.2552   35.1556   19.8214 H         1 9RZ         0.0543
     46 H10         1.3223   35.9530   20.1411 H         1 9RZ         0.0543
     47 H11        -0.2076   36.7663   20.6151 H         1 9RZ         0.0543
     48 H12         1.4557   38.2741   27.0465 H         1 9RZ         0.0531
     49 H13         2.6498   37.0725   27.6440 H         1 9RZ         0.0531
     50 H14         2.8303   39.0609   29.0205 H         1 9RZ         0.0579
     51 H15         2.9535   40.1151   27.5714 H         1 9RZ         0.0579
     52 H16         6.2188   39.0486   26.7158 H         1 9RZ         0.0579
     53 H17         4.8328   40.1085   26.2889 H         1 9RZ         0.0579
     54 H18         1.9331   33.5740   23.5346 H         1 9RZ         0.0641
     55 H19        -2.2353   31.8477   25.5703 H         1 9RZ         0.0470
     56 H20        -2.3324   33.4245   22.4092 H         1 9RZ         0.2501
     57 H21        -0.3827   31.1718   27.6907 H         1 9RZ         0.2490
     58 H22         3.1933   30.6241   24.7935 H         1 9RZ         0.0547
     59 H23         3.7418   31.5623   23.3633 H         1 9RZ         0.0547
     60 H24         5.5192   27.6043   22.3023 H         1 9RZ         0.0524
     61 H25         6.1144   27.8124   23.9842 H         1 9RZ         0.0524
     62 H26         6.7784   28.8332   22.6637 H         1 9RZ         0.0524
     63 H27        -0.6594   36.1731   24.0579 H         1 9RZ         0.0474
     64 H28         0.5365   37.4002   25.7795 H         1 9RZ         0.0481
     65 H29         2.9193   35.7253   21.8359 H         1 9RZ         0.0474
     66 H30         4.9832   37.0522   26.0522 H         1 9RZ         0.0531
     67 H31         4.8800   38.2415   24.7100 H         1 9RZ         0.0531
@<TRIPOS>BOND
     1   17    1 am 
     2    1   18 2  
     3    1   19 1  
     4   19    2 ar 
     5    2   21 ar 
     6    2   22 1  
     7    4    3 ar 
     8   21    3 ar 
     9    3   24 1  
    10    4    5 1  
    11   20    4 ar 
    12    5    6 1  
    13    5   23 2  
    14    6   25 2  
    15    6   26 am 
    16    7   10 1  
    17   26    7 1  
    18    8    9 1  
    19   27    8 1  
    20    8   28 1  
    21   10    9 1  
    22   11   17 1  
    23   30   11 ar 
    24   33   11 ar 
    25   31   12 ar 
    26   12   33 ar 
    27   17   13 1  
    28   14   15 1  
    29   34   14 1  
    30   15   35 1  
    31   35   16 1  
    32   16   36 1  
    33   19   20 ar 
    34   23   24 1  
    35   26   27 1  
    36   28   29 1  
    37   32   30 ar 
    38   31   32 ar 
    39   31   34 1  
    40   34   36 1  
    41    7   37 1  
    42    7   38 1  
    43    8   39 1  
    44    9   40 1  
    45    9   41 1  
    46   10   42 1  
    47   10   43 1  
    48   12   44 1  
    49   13   45 1  
    50   13   46 1  
    51   13   47 1  
    52   14   48 1  
    53   14   49 1  
    54   15   50 1  
    55   15   51 1  
    56   16   52 1  
    57   16   53 1  
    58   20   54 1  
    59   21   55 1  
    60   22   56 1  
    61   24   57 1  
    62   27   58 1  
    63   27   59 1  
    64   29   60 1  
    65   29   61 1  
    66   29   62 1  
    67   30   63 1  
    68   32   64 1  
    69   33   65 1  
    70   36   66 1  
    71   36   67 1  
@<TRIPOS>SUBSTRUCTURE
     1 9RZ         1

