### 
### Created by X-TOOL on Wed Jan  1 15:39:34 2020
### 

@<TRIPOS>MOLECULE
5ody_ligand
   78    83     1     0     0
SMALL
GAST_HUCK


@<TRIPOS>ATOM
      1 C10       -23.9810   10.4440   -0.5620 C.3       1 9SK         0.1187
      2 C13       -23.5940   10.5870   -3.0450 C.3       1 9SK         0.1115
      3 C17       -21.7300   10.4270   -1.6380 C.3       1 9SK         0.1353
      4 C21       -19.0010    7.0870   -1.5120 C.3       1 9SK         0.1122
      5 C22       -19.6150    6.0330   -0.6060 C.3       1 9SK         0.0730
      6 C24       -17.4610    7.1560   -1.3060 C.3       1 9SK         0.1195
      7 C26       -16.9170    8.3350   -2.2010 C.3       1 9SK         0.1473
      8 C28       -14.7380    8.7070   -1.0030 C.2       1 9SK         0.0867
      9 C02       -27.3140   12.2680    1.2620 C.2       1 9SK         0.2761
     10 C04       -28.0910   12.9000    3.4210 C.ar      1 9SK         0.1304
     11 C05       -27.4170   11.7960    3.9610 C.ar      1 9SK         0.0442
     12 C06       -26.7440   10.8880    3.0840 C.2       1 9SK        -0.0407
     13 C07       -26.7030   11.0590    1.7440 C.2       1 9SK         0.0675
     14 C08       -25.8270   10.2680    0.8600 C.3       1 9SK         0.0902
     15 C11       -24.5110   10.9930   -1.8940 C.3       1 9SK         0.1123
     16 C14       -24.1500   11.1330   -4.3760 C.3       1 9SK         0.0730
     17 C19       -19.1480    9.3730   -2.0180 C.3       1 9SK         0.1360
     18 C29       -13.4140    8.5660   -1.4120 C.2       1 9SK         0.0655
     19 C30       -12.2200    8.7740   -0.6760 C.ar      1 9SK        -0.0269
     20 C31       -11.0110    8.9140   -1.3340 C.ar      1 9SK        -0.0318
     21 C32        -9.8380    9.0940   -0.6380 C.ar      1 9SK         0.1601
     22 C34        -9.8190    9.1660    0.7640 C.ar      1 9SK         0.1939
     23 C36       -11.0670    9.0250    1.4130 C.ar      1 9SK         0.1601
     24 C38       -12.2240    8.8170    0.7010 C.ar      1 9SK        -0.0318
     25 C41       -17.6430    9.6320   -1.8830 C.3       1 9SK         0.1266
     26 C43       -22.5000   10.8080   -0.3930 C.3       1 9SK         0.1194
     27 C45       -27.4580   11.6370    5.3510 C.ar      1 9SK         0.1675
     28 C47       -28.1200   12.5300    6.1870 C.ar      1 9SK         0.1553
     29 C49       -28.7920   13.6320    5.6550 C.ar      1 9SK        -0.0366
     30 C50       -28.7780   13.8170    4.2710 C.ar      1 9SK        -0.0305
     31 F33        -8.6840    9.2400   -1.2680 F         1 9SK        -0.1864
     32 F35        -8.7160    9.3410    1.4180 F         1 9SK        -0.1880
     33 F37       -11.0570    9.0500    2.7260 F         1 9SK        -0.1864
     34 F46       -26.8470   10.6080    5.9350 F         1 9SK        -0.1856
     35 F48       -28.1340   12.3380    7.4980 F         1 9SK        -0.1927
     36 N27       -15.5150    8.3620   -2.0990 N.pl3     1 9SK        -0.1596
     37 N39       -13.4740    8.1410   -2.7300 N.2       1 9SK        -0.2177
     38 N40       -14.6790    8.0210   -3.1050 N.2       1 9SK        -0.0907
     39 O01       -27.2240   12.6870    0.1030 O.2       1 9SK        -0.3691
     40 O03       -28.0910   13.1210    2.0600 O.3       1 9SK        -0.2132
     41 O09       -24.6570   10.9260    0.5350 O.3       1 9SK        -0.3586
     42 O12       -24.5450   12.4090   -1.7600 O.3       1 9SK        -0.3865
     43 O15       -23.4070   10.6380   -5.4490 O.3       1 9SK        -0.3924
     44 O16       -22.3030   10.9950   -2.7890 O.3       1 9SK        -0.3552
     45 O20       -19.5660    8.3160   -1.2120 O.3       1 9SK        -0.3552
     46 O23       -20.9840    5.9660   -0.8480 O.3       1 9SK        -0.3924
     47 O25       -17.1840    7.4970    0.0330 O.3       1 9SK        -0.3857
     48 O42       -17.2480   10.5970   -2.8610 O.3       1 9SK        -0.3849
     49 O44       -21.9840   10.1520    0.7540 O.3       1 9SK        -0.3857
     50 S18       -20.0160   10.8850   -1.5050 S.3       1 9SK        -0.0931
     51 H1        -24.0833    9.3489   -0.5810 H         1 9SK         0.0652
     52 H2        -23.5890    9.4890   -3.1109 H         1 9SK         0.0646
     53 H3        -21.7802    9.3330   -1.7406 H         1 9SK         0.0740
     54 H4        -19.2128    6.8323   -2.5609 H         1 9SK         0.0646
     55 H5        -19.4397    6.3038    0.4456 H         1 9SK         0.0584
     56 H6        -19.1559    5.0554   -0.8144 H         1 9SK         0.0584
     57 H7        -16.9877    6.1998   -1.5736 H         1 9SK         0.0655
     58 H8        -17.1530    8.0988   -3.2491 H         1 9SK         0.0746
     59 H9        -15.0911    9.0235   -0.0227 H         1 9SK         0.1066
     60 H10       -26.2433   10.0220    3.5145 H         1 9SK         0.0574
     61 H11       -26.3738   10.0450   -0.0681 H         1 9SK         0.0729
     62 H12       -25.5709    9.3275    1.3697 H         1 9SK         0.0729
     63 H13       -25.5236   10.6077   -2.0843 H         1 9SK         0.0647
     64 H14       -24.0923   12.2315   -4.3704 H         1 9SK         0.0584
     65 H15       -25.1992   10.8215   -4.4864 H         1 9SK         0.0584
     66 H16       -19.3855    9.1417   -3.0669 H         1 9SK         0.0741
     67 H17       -10.9876    8.8813   -2.4173 H         1 9SK         0.0525
     68 H18       -13.1587    8.6841    1.2337 H         1 9SK         0.0525
     69 H19       -17.3984    9.9820   -0.8693 H         1 9SK         0.0663
     70 H20       -22.4133   11.8947   -0.2464 H         1 9SK         0.0655
     71 H21       -29.3130   14.3285    6.3019 H         1 9SK         0.0572
     72 H22       -29.2944   14.6661    3.8380 H         1 9SK         0.0513
     73 H23       -24.8701   12.7944   -2.5651 H         1 9SK         0.2100
     74 H24       -23.7592   10.9814   -6.2618 H         1 9SK         0.2095
     75 H25       -21.3780    6.8115   -0.6682 H         1 9SK         0.2095
     76 H26       -16.2462    7.6000    0.1449 H         1 9SK         0.2100
     77 H27       -16.3157   10.7622   -2.7827 H         1 9SK         0.2101
     78 H28       -22.0475    9.2116    0.6350 H         1 9SK         0.2100
@<TRIPOS>BOND
     1    1   15 1  
     2   26    1 1  
     3    1   41 1  
     4    2   15 1  
     5    2   16 1  
     6   44    2 1  
     7    3   26 1  
     8    3   44 1  
     9   50    3 1  
    10    4    5 1  
    11    4    6 1  
    12   45    4 1  
    13    5   46 1  
    14    7    6 1  
    15    6   47 1  
    16   25    7 1  
    17    7   36 1  
    18    8   18 2  
    19   36    8 1  
    20   13    9 1  
    21    9   39 2  
    22    9   40 1  
    23   11   10 ar 
    24   10   30 ar 
    25   40   10 1  
    26   12   11 1  
    27   11   27 ar 
    28   13   12 2  
    29   14   13 1  
    30   41   14 1  
    31   15   42 1  
    32   16   43 1  
    33   17   25 1  
    34   17   45 1  
    35   17   50 1  
    36   18   19 1  
    37   18   37 1  
    38   19   20 ar 
    39   19   24 ar 
    40   20   21 ar 
    41   21   22 ar 
    42   21   31 1  
    43   22   23 ar 
    44   22   32 1  
    45   23   24 ar 
    46   23   33 1  
    47   25   48 1  
    48   26   49 1  
    49   27   28 ar 
    50   27   34 1  
    51   28   29 ar 
    52   28   35 1  
    53   29   30 ar 
    54   36   38 1  
    55   37   38 2  
    56    1   51 1  
    57    2   52 1  
    58    3   53 1  
    59    4   54 1  
    60    5   55 1  
    61    5   56 1  
    62    6   57 1  
    63    7   58 1  
    64    8   59 1  
    65   12   60 1  
    66   14   61 1  
    67   14   62 1  
    68   15   63 1  
    69   16   64 1  
    70   16   65 1  
    71   17   66 1  
    72   20   67 1  
    73   24   68 1  
    74   25   69 1  
    75   26   70 1  
    76   29   71 1  
    77   30   72 1  
    78   42   73 1  
    79   43   74 1  
    80   46   75 1  
    81   47   76 1  
    82   48   77 1  
    83   49   78 1  
@<TRIPOS>SUBSTRUCTURE
     1 9SK         1

