### 
### Created by X-TOOL on Mon Sep 10 21:13:32 2018
### 

@<TRIPOS>MOLECULE
5oei_ligand
   17    16     1     0     0
SMALL
GAST_HUCK


@<TRIPOS>ATOM
      1 C2         11.3580  194.2010   86.3540 C.3       1 OOG         0.0023
      2 C3         10.0720  194.5930   85.6440 C.3       1 OOG        -0.0251
      3 C4          9.1620  193.3750   85.4450 C.3       1 OOG         0.0323
      4 C6          7.0500  192.4510   84.2830 C.2       1 OOG         0.1248
      5 O4          7.4040  191.2670   84.5940 O.co2     1 OOG        -0.5464
      6 O3          5.9420  192.6960   83.7700 O.co2     1 OOG        -0.5464
      7 C5          7.9110  193.6220   84.6530 C.2       1 OOG         0.1716
      8 C1         12.4080  195.3290   86.3940 C.2       1 OOG         0.0349
      9 O1         13.2280  195.4030   85.4030 O.co2     1 OOG        -0.5690
     10 O2         12.4630  196.1390   87.4000 O.co2     1 OOG        -0.5690
     11 O5          7.5320  194.7870   84.4250 O.2       1 OOG        -0.3577
     12 H1         11.7948  193.3374   85.8312 H         1 OOG         0.0432
     13 H2         11.1122  193.9177   87.3881 H         1 OOG         0.0432
     14 H3         10.3195  195.0216   84.6616 H         1 OOG         0.0308
     15 H4          9.5416  195.3435   86.2484 H         1 OOG         0.0308
     16 H5          8.8662  193.0076   86.4388 H         1 OOG         0.0499
     17 H6          9.7437  192.5993   84.9255 H         1 OOG         0.0499
@<TRIPOS>BOND
     1    2    1 1  
     2    1    8 1  
     3    3    2 1  
     4    7    3 1  
     5    4    5 ar 
     6    4    6 ar 
     7    4    7 1  
     8    7   11 2  
     9    8    9 ar 
    10    8   10 ar 
    11    1   12 1  
    12    1   13 1  
    13    2   14 1  
    14    2   15 1  
    15    3   16 1  
    16    3   17 1  
@<TRIPOS>SUBSTRUCTURE
     1 OOG         1

