### 
### Created by X-TOOL on Wed Jan  1 15:39:35 2020
### 

@<TRIPOS>MOLECULE
5of0_ligand
   50    50     1     0     0
SMALL
GAST_HUCK


@<TRIPOS>ATOM
      1 OAA        13.8050   48.7310   40.7520 O.co2     1 9TB        -0.5690
      2 CAW        13.8750   47.5040   40.4980 C.2       1 9TB         0.0350
      3 OAF        13.0620   46.9090   39.7410 O.co2     1 9TB        -0.5690
      4 CAP        15.0530   46.7620   41.1180 C.3       1 9TB         0.0038
      5 CAS        14.8530   45.2620   41.3030 C.3       1 9TB        -0.0066
      6 CBE        16.1960   44.5490   41.6300 C.3       1 9TB         0.0962
      7 CAY        17.0950   44.6260   40.4250 C.2       1 9TB         0.0600
      8 OAH        17.9890   45.5280   40.3010 O.co2     1 9TB        -0.5666
      9 OAC        16.9110   43.7700   39.5460 O.co2     1 9TB        -0.5666
     10 NAV        16.8880   45.2220   42.7040 N.am      1 9TB        -0.2575
     11 CBA        18.1050   44.8080   43.1100 C.2       1 9TB         0.2608
     12 OAE        18.4990   43.7340   42.6930 O.2       1 9TB        -0.4006
     13 N          18.7270   45.5880   43.9550 N.am      1 9TB        -0.2576
     14 CA         19.9790   45.1810   44.6080 C.3       1 9TB         0.0948
     15 C          20.0700   45.8830   45.9450 C.2       1 9TB         0.0599
     16 OXT        20.5950   45.1620   46.8050 O.co2     1 9TB        -0.5666
     17 O          19.6580   47.0470   46.1240 O.co2     1 9TB        -0.5666
     18 CB         21.1700   45.4220   43.6730 C.3       1 9TB        -0.0161
     19 CAN        22.2730   46.3300   44.2220 C.3       1 9TB        -0.0333
     20 CAO        22.4590   47.5560   43.3590 C.3       1 9TB         0.0310
     21 CAZ        23.1630   48.7280   44.0120 C.2       1 9TB         0.1753
     22 OAD        23.6740   49.5110   43.2490 O.2       1 9TB        -0.3743
     23 NAT        23.1900   48.8830   45.3390 N.2       1 9TB        -0.2447
     24 CAQ        23.7100   49.8550   45.9790 C.2       1 9TB         0.0378
     25 CBC        23.6380   49.8390   47.4620 C.ar      1 9TB         0.0162
     26 CAL        24.1490   50.8690   48.2230 C.ar      1 9TB        -0.0408
     27 CAJ        24.0800   50.8240   49.6210 C.ar      1 9TB        -0.0169
     28 CBB        23.4750   49.7600   50.2860 C.ar      1 9TB         0.1434
     29 FAI        23.3690   49.6940   51.6370 F         1 9TB        -0.1747
     30 CAK        22.9690   48.7300   49.5150 C.ar      1 9TB        -0.0169
     31 CAM        23.0430   48.7610   48.1270 C.ar      1 9TB        -0.0408
     32 H1         15.2505   47.2030   42.1062 H         1 9TB         0.0432
     33 H2         15.9283   46.9106   40.4685 H         1 9TB         0.0432
     34 H3         14.4390   44.8386   40.3760 H         1 9TB         0.0323
     35 H4         14.1475   45.0938   42.1300 H         1 9TB         0.0323
     36 H5         16.0028   43.5007   41.9017 H         1 9TB         0.0724
     37 H6         16.4586   46.0058   43.1527 H         1 9TB         0.1869
     38 H7         18.3401   46.4864   44.1627 H         1 9TB         0.1869
     39 H8         19.9337   44.0995   44.8038 H         1 9TB         0.0723
     40 H9         20.7866   45.8777   42.7482 H         1 9TB         0.0307
     41 H10        21.6205   44.4456   43.4413 H         1 9TB         0.0307
     42 H11        23.2176   45.7672   44.2524 H         1 9TB         0.0291
     43 H12        22.0020   46.6468   45.2399 H         1 9TB         0.0291
     44 H13        21.4631   47.8971   43.0400 H         1 9TB         0.0493
     45 H14        23.0455   47.2605   42.4766 H         1 9TB         0.0493
     46 H15        24.1944   50.6757   45.4519 H         1 9TB         0.1173
     47 H16        24.6082   51.7210   47.7349 H         1 9TB         0.0699
     48 H17        24.5071   51.6357   50.1988 H         1 9TB         0.0631
     49 H18        22.5049   47.8805   50.0029 H         1 9TB         0.0631
     50 H19        22.6339   47.9384   47.5517 H         1 9TB         0.0699
@<TRIPOS>BOND
     1    1    2 ar 
     2    2    3 ar 
     3    2    4 1  
     4    4    5 1  
     5    5    6 1  
     6    6    7 1  
     7    6   10 1  
     8    7    8 ar 
     9    7    9 ar 
    10   10   11 am 
    11   11   12 2  
    12   11   13 am 
    13   13   14 1  
    14   14   15 1  
    15   14   18 1  
    16   15   16 ar 
    17   15   17 ar 
    18   18   19 1  
    19   19   20 1  
    20   20   21 1  
    21   21   22 2  
    22   21   23 1  
    23   23   24 2  
    24   24   25 1  
    25   25   26 ar 
    26   25   31 ar 
    27   26   27 ar 
    28   27   28 ar 
    29   28   29 1  
    30   28   30 ar 
    31   30   31 ar 
    32    4   32 1  
    33    4   33 1  
    34    5   34 1  
    35    5   35 1  
    36    6   36 1  
    37   10   37 1  
    38   13   38 1  
    39   14   39 1  
    40   18   40 1  
    41   18   41 1  
    42   19   42 1  
    43   19   43 1  
    44   20   44 1  
    45   20   45 1  
    46   24   46 1  
    47   26   47 1  
    48   27   48 1  
    49   30   49 1  
    50   31   50 1  
@<TRIPOS>SUBSTRUCTURE
     1 9TB         1

