### 
### Created by X-TOOL on Mon Sep 10 21:13:31 2018
### 

@<TRIPOS>MOLECULE
5ofi_ligand
   70    74     1     0     0
SMALL
GAST_HUCK


@<TRIPOS>ATOM
      1 C10         9.7530    7.5070  -47.4910 C.3       1 9TQ         0.1141
      2 C15        10.3280    8.5110  -43.7350 C.3       1 9TQ         0.0730
      3 C20         5.0460   11.0990  -44.8230 C.ar      1 9TQ        -0.0126
      4 C21         3.6450   10.8160  -44.7880 C.ar      1 9TQ         0.0186
      5 C22         2.8970   10.9050  -43.4060 C.2       1 9TQ         0.0654
      6 C26         3.7480   10.4230  -47.1040 C.ar      1 9TQ        -0.0498
      7 C28         1.4440   10.1540  -46.0490 C.2       1 9TQ         0.0151
      8 C02         8.0350   11.9880  -47.1430 C.2       1 9TQ         0.1686
      9 C04        10.4440   12.2060  -46.1010 C.3       1 9TQ         0.0605
     10 C05        11.6710   11.5000  -46.7890 C.3       1 9TQ         0.0726
     11 C07        11.8260    9.0920  -47.1310 C.3       1 9TQ         0.1880
     12 C08        11.2300    7.8480  -47.9120 C.3       1 9TQ         0.1341
     13 C12         9.6580    7.4020  -45.9400 C.3       1 9TQ         0.1119
     14 C14        10.3090    8.6520  -45.2800 C.3       1 9TQ         0.1130
     15 C19         5.8440   11.0320  -46.0010 C.ar      1 9TQ         0.0895
     16 C25         5.1120   10.6970  -47.1350 C.ar      1 9TQ        -0.0241
     17 C27         2.9340   10.4520  -45.9710 C.ar      1 9TQ         0.0068
     18 C29         0.5410   11.3660  -45.9760 C.ar      1 9TQ         0.0407
     19 C30         0.9640   12.6760  -45.5330 C.ar      1 9TQ        -0.0506
     20 C31         0.1620   13.8230  -45.4400 C.ar      1 9TQ        -0.0283
     21 C32        -1.1820   13.7110  -45.8160 C.ar      1 9TQ         0.0944
     22 C34        -1.6590   12.4600  -46.2620 C.ar      1 9TQ         0.0160
     23 C35        -0.8060   11.2890  -46.3480 C.ar      1 9TQ         0.1451
     24 C37         0.8600    8.9660  -46.5220 C.2       1 9TQ         0.0324
     25 C38        -0.5840    8.8850  -46.9150 C.2       1 9TQ         0.1223
     26 C39        -1.1380    7.7070  -47.3630 C.2       1 9TQ        -0.0246
     27 C40         1.5030    7.6500  -46.6980 C.2       1 9TQ        -0.0561
     28 C41         0.9980    6.4890  -47.1290 C.2       1 9TQ        -0.0434
     29 C42        -0.4080    6.4340  -47.5060 C.2       1 9TQ         0.0581
     30 N03         9.3950   12.3550  -47.1460 N.am      1 9TQ        -0.2753
     31 N18         7.3100   11.3770  -46.0520 N.am      1 9TQ        -0.2232
     32 O06        11.2330   10.3100  -47.5120 O.3       1 9TQ        -0.3465
     33 O09        11.2460    8.0550  -49.2790 O.3       1 9TQ        -0.3841
     34 O11         9.3810    6.3200  -48.0790 O.3       1 9TQ        -0.3864
     35 O13        10.3430    6.2350  -45.5490 O.3       1 9TQ        -0.3865
     36 O16        10.4740    9.8120  -43.1890 O.3       1 9TQ        -0.3924
     37 O17        11.6250    8.8710  -45.7830 O.3       1 9TQ        -0.3405
     38 O23         3.3780   11.6230  -42.5130 O.co2     1 9TQ        -0.5590
     39 O24         1.8560   10.2270  -43.2980 O.co2     1 9TQ        -0.5590
     40 O33        -1.9860   14.8260  -45.7320 O.3       1 9TQ        -0.3272
     41 O36        -1.3300   10.0720  -46.7980 O.3       1 9TQ        -0.2407
     42 O43        -0.8970    5.3500  -47.9130 O.2       1 9TQ        -0.4520
     43 S01         7.2660   12.3180  -48.5500 S.2       1 9TQ        -0.2909
     44 H1          9.0823    8.3070  -47.8376 H         1 9TQ         0.0648
     45 H2         11.1725    7.8774  -43.4262 H         1 9TQ         0.0584
     46 H3          9.3861    8.0616  -43.3874 H         1 9TQ         0.0584
     47 H4          5.5309   11.3821  -43.8957 H         1 9TQ         0.0586
     48 H5          3.2754   10.1638  -48.0445 H         1 9TQ         0.0670
     49 H6         10.7406   13.1936  -45.7182 H         1 9TQ         0.0565
     50 H7         10.0678   11.5891  -45.2716 H         1 9TQ         0.0565
     51 H8         12.4001   11.2083  -46.0188 H         1 9TQ         0.0583
     52 H9         12.1430   12.1996  -47.4945 H         1 9TQ         0.0583
     53 H10        12.9053    9.1543  -47.3338 H         1 9TQ         0.0937
     54 H11        11.8628    6.9781  -47.6824 H         1 9TQ         0.0671
     55 H12         8.6035    7.3359  -45.6340 H         1 9TQ         0.0647
     56 H13         9.6967    9.5294  -45.5354 H         1 9TQ         0.0647
     57 H14         5.6278   10.6470  -48.0871 H         1 9TQ         0.0569
     58 H15         2.0035   12.7820  -45.2443 H         1 9TQ         0.0651
     59 H16         0.5690   14.7643  -45.0889 H         1 9TQ         0.0524
     60 H17        -2.7000   12.3705  -46.5508 H         1 9TQ         0.0505
     61 H18        -2.1933    7.7161  -47.6316 H         1 9TQ         0.0166
     62 H19         2.5592    7.6189  -46.4345 H         1 9TQ         0.0644
     63 H20         1.6259    5.6018  -47.1968 H         1 9TQ         0.0472
     64 H21         9.7078   12.7879  -47.9914 H         1 9TQ         0.1981
     65 H22         7.8438   11.1575  -45.2354 H         1 9TQ         0.2425
     66 H23        12.1409    8.1916  -49.5670 H         1 9TQ         0.2101
     67 H24         9.4448    6.4020  -49.0233 H         1 9TQ         0.2100
     68 H25        10.3013    6.1462  -44.6041 H         1 9TQ         0.2100
     69 H26         9.7436   10.3535  -43.4642 H         1 9TQ         0.2095
     70 H27        -2.7038   14.6532  -45.1342 H         1 9TQ         0.2528
@<TRIPOS>BOND
     1   12    1 1  
     2    1   13 1  
     3    1   34 1  
     4   14    2 1  
     5    2   36 1  
     6    3    4 ar 
     7   15    3 ar 
     8    4    5 1  
     9    4   17 ar 
    10    5   38 ar 
    11    5   39 ar 
    12   16    6 ar 
    13    6   17 ar 
    14   17    7 1  
    15    7   18 1  
    16    7   24 2  
    17    8   30 am 
    18   31    8 am 
    19    8   43 2  
    20    9   10 1  
    21   30    9 1  
    22   10   32 1  
    23   11   12 1  
    24   32   11 1  
    25   11   37 1  
    26   12   33 1  
    27   14   13 1  
    28   13   35 1  
    29   37   14 1  
    30   15   16 ar 
    31   15   31 1  
    32   18   19 ar 
    33   18   23 ar 
    34   19   20 ar 
    35   20   21 ar 
    36   21   22 ar 
    37   21   40 1  
    38   22   23 ar 
    39   23   41 1  
    40   24   25 1  
    41   24   27 1  
    42   25   26 2  
    43   25   41 1  
    44   26   29 1  
    45   27   28 2  
    46   28   29 1  
    47   29   42 2  
    48    1   44 1  
    49    2   45 1  
    50    2   46 1  
    51    3   47 1  
    52    6   48 1  
    53    9   49 1  
    54    9   50 1  
    55   10   51 1  
    56   10   52 1  
    57   11   53 1  
    58   12   54 1  
    59   13   55 1  
    60   14   56 1  
    61   16   57 1  
    62   19   58 1  
    63   20   59 1  
    64   22   60 1  
    65   26   61 1  
    66   27   62 1  
    67   28   63 1  
    68   30   64 1  
    69   31   65 1  
    70   33   66 1  
    71   34   67 1  
    72   35   68 1  
    73   36   69 1  
    74   40   70 1  
@<TRIPOS>SUBSTRUCTURE
     1 9TQ         1

