### 
### Created by X-TOOL on Mon Sep 10 21:13:34 2018
### 

@<TRIPOS>MOLECULE
5ofv_ligand
   17    17     1     0     0
SMALL
GAST_HUCK


@<TRIPOS>ATOM
      1 C4        -25.1540   15.1600    7.6320 C.ar      1 9TZ        -0.0584
      2 C5        -26.0090   15.5660    6.6100 C.ar      1 9TZ        -0.0353
      3 C6        -26.3990   14.6110    5.6620 C.ar      1 9TZ         0.0097
      4 C7        -26.4200   17.0240    6.5840 C.3       1 9TZ        -0.0305
      5 C8        -27.2780   14.9390    4.4750 C.2       1 9TZ         0.0578
      6 C3        -24.7110   13.8540    7.7370 C.ar      1 9TZ        -0.0322
      7 C1        -25.9320   13.3120    5.7610 C.ar      1 9TZ        -0.0207
      8 C2        -25.0970   12.9600    6.7830 C.ar      1 9TZ         0.1283
      9 F1        -24.6260   11.6780    6.8150 F         1 9TZ        -0.1885
     10 O1        -27.1990   16.2050    4.1030 O.co2     1 9TZ        -0.5630
     11 O2        -27.9440   14.0720    3.8720 O.co2     1 9TZ        -0.5630
     12 H1        -24.8267   15.8880    8.3655 H         1 9TZ         0.0554
     13 H2        -25.9738   17.5461    7.4433 H         1 9TZ         0.0392
     14 H3        -27.5162   17.0970    6.6395 H         1 9TZ         0.0392
     15 H4        -26.0684   17.4875    5.6505 H         1 9TZ         0.0392
     16 H5        -24.0724   13.5487    8.5580 H         1 9TZ         0.0608
     17 H6        -26.2294   12.5726    5.0262 H         1 9TZ         0.0620
@<TRIPOS>BOND
     1    1    2 ar 
     2    1    6 ar 
     3    2    3 ar 
     4    2    4 1  
     5    3    5 1  
     6    3    7 ar 
     7    5   10 ar 
     8    5   11 ar 
     9    6    8 ar 
    10    7    8 ar 
    11    8    9 1  
    12    1   12 1  
    13    4   13 1  
    14    4   14 1  
    15    4   15 1  
    16    6   16 1  
    17    7   17 1  
@<TRIPOS>SUBSTRUCTURE
     1 9TZ         1

