### 
### Created by X-TOOL on Mon Sep 10 21:13:31 2018
### 

@<TRIPOS>MOLECULE
5ofw_ligand
   16    16     1     0     0
SMALL
GAST_HUCK


@<TRIPOS>ATOM
      1 C1        -26.4130   14.6760    6.0190 C.ar      1 9TW        -0.0297
      2 C2        -25.9030   13.4240    6.2390 C.ar      1 9TW         0.0792
      3 C3        -24.9260   13.2460    7.1890 C.ar      1 9TW         0.1517
      4 C4        -24.5770   14.2420    8.0470 C.ar      1 9TW        -0.0218
      5 C5        -25.1130   15.5130    7.8440 C.ar      1 9TW        -0.0436
      6 C6        -26.0560   15.7260    6.8450 C.ar      1 9TW         0.0460
      7 CL1       -26.3730   12.1170    5.2210 Cl        1 9TW        -0.0710
      8 F1        -24.3840   12.0190    7.3490 F         1 9TW        -0.1786
      9 C7        -26.6800   17.0730    6.6010 C.2       1 9TW         0.1995
     10 O1        -27.3460   17.2590    5.5750 O.2       1 9TW        -0.3868
     11 N1        -26.4510   18.0400    7.4940 N.am      1 9TW        -0.3007
     12 H1        -27.0979   14.8441    5.1957 H         1 9TW         0.0666
     13 H2        -23.8975   14.0519    8.8700 H         1 9TW         0.0616
     14 H3        -24.7928   16.3393    8.4683 H         1 9TW         0.0661
     15 H4        -26.8506   18.9472    7.3622 H         1 9TW         0.1807
     16 H5        -25.8800   17.8566    8.2942 H         1 9TW         0.1807
@<TRIPOS>BOND
     1    1    2 ar 
     2    1    6 ar 
     3    2    3 ar 
     4    2    7 1  
     5    3    4 ar 
     6    3    8 1  
     7    4    5 ar 
     8    5    6 ar 
     9    6    9 1  
    10    9   10 2  
    11    9   11 am 
    12    1   12 1  
    13    4   13 1  
    14    5   14 1  
    15   11   15 1  
    16   11   16 1  
@<TRIPOS>SUBSTRUCTURE
     1 9TW         1

