### 
### Created by X-TOOL on Mon Sep 10 21:13:31 2018
### 

@<TRIPOS>MOLECULE
5ofx_ligand
   66    68     1     0     0
SMALL
GAST_HUCK


@<TRIPOS>ATOM
      1 O6'       -54.3940  -58.9600  -96.6570 O.3       1 RAF        -0.3924
      2 C6'       -53.3480  -59.4830  -97.4250 C.3       1 RAF         0.0730
      3 C5'       -53.9260  -60.3180  -98.6050 C.3       1 RAF         0.1134
      4 C4'       -54.4750  -61.6910  -98.1180 C.3       1 RAF         0.1145
      5 O4'       -55.8500  -61.6960  -97.8850 O.3       1 RAF        -0.3864
      6 C3'       -54.2000  -62.5410  -99.3910 C.3       1 RAF         0.1395
      7 O3'       -54.0630  -63.8860  -99.0840 O.3       1 RAF        -0.3837
      8 O2'       -52.8630  -60.6010  -99.5350 O.3       1 RAF        -0.3362
      9 C2'       -52.8020  -61.9970  -99.7890 C.3       1 RAF         0.2252
     10 C1'       -52.4510  -62.1610 -101.2880 C.3       1 RAF         0.1009
     11 O1'       -53.4390  -61.5400 -102.0290 O.3       1 RAF        -0.3896
     12 O1        -51.7940  -62.5020  -98.9340 O.3       1 RAF        -0.3125
     13 C1        -50.6600  -61.7270  -98.6580 C.3       1 RAF         0.1912
     14 C2        -49.4260  -62.5820  -98.9020 C.3       1 RAF         0.1342
     15 O2        -49.3640  -62.8600 -100.2750 O.3       1 RAF        -0.3841
     16 C3        -49.5790  -63.8610  -98.0700 C.3       1 RAF         0.1141
     17 O3        -48.3950  -64.5920  -98.2260 O.3       1 RAF        -0.3864
     18 C4        -49.6460  -63.4150  -96.5900 C.3       1 RAF         0.1119
     19 O4        -49.9230  -64.5180  -95.7930 O.3       1 RAF        -0.3865
     20 C5        -50.8200  -62.3910  -96.3870 C.3       1 RAF         0.1134
     21 O5        -50.7150  -61.3490  -97.3160 O.3       1 RAF        -0.3404
     22 C6        -50.6620  -61.7050  -94.9740 C.3       1 RAF         0.0796
     23 O6        -51.9030  -61.0670  -94.6700 O.3       1 RAF        -0.3460
     24 C1X       -52.7290  -61.7730  -93.7510 C.3       1 RAF         0.1880
     25 O5X       -52.0180  -61.7930  -92.5330 O.3       1 RAF        -0.3405
     26 C5X       -51.7480  -60.5690  -91.9030 C.3       1 RAF         0.1130
     27 C6X       -51.0190  -60.8200  -90.5810 C.3       1 RAF         0.0730
     28 O6X       -49.8270  -61.4420  -90.9550 O.3       1 RAF        -0.3924
     29 C4X       -52.9790  -59.6500  -91.7570 C.3       1 RAF         0.1119
     30 O4X       -53.8860  -60.1530  -90.8020 O.3       1 RAF        -0.3865
     31 C3X       -53.7770  -59.5430  -93.0750 C.3       1 RAF         0.1141
     32 O3X       -55.0150  -58.9220  -92.9010 O.3       1 RAF        -0.3864
     33 C2X       -54.0610  -60.9840  -93.5950 C.3       1 RAF         0.1341
     34 O2X       -54.6400  -60.8750  -94.8610 O.3       1 RAF        -0.3841
     35 H1        -54.9183  -59.6727  -96.3109 H         1 RAF         0.2095
     36 H2        -52.7194  -60.1288  -96.7943 H         1 RAF         0.0584
     37 H3        -52.7406  -58.6577  -97.8249 H         1 RAF         0.0584
     38 H4        -54.7273  -59.7491  -99.0992 H         1 RAF         0.0647
     39 H5        -53.9375  -62.0560  -97.2304 H         1 RAF         0.0648
     40 H6        -56.1173  -62.5592  -97.5919 H         1 RAF         0.2100
     41 H7        -54.9621  -62.3907 -100.1698 H         1 RAF         0.0675
     42 H8        -53.3363  -64.0000  -98.4829 H         1 RAF         0.2101
     43 H9        -52.4067  -63.2293 -101.5462 H         1 RAF         0.0612
     44 H10       -51.4779  -61.6926 -101.4969 H         1 RAF         0.0612
     45 H11       -53.4743  -60.6189 -101.7988 H         1 RAF         0.2096
     46 H12       -50.6363  -60.8360  -99.3027 H         1 RAF         0.0939
     47 H13       -48.5176  -62.0448  -98.5920 H         1 RAF         0.0671
     48 H14       -50.1478  -63.3279 -100.5379 H         1 RAF         0.2101
     49 H15       -50.4639  -64.4435  -98.3660 H         1 RAF         0.0648
     50 H16       -48.4517  -65.3957  -97.7227 H         1 RAF         0.2100
     51 H17       -48.6894  -62.9594  -96.2947 H         1 RAF         0.0647
     52 H18       -49.2363  -65.1656  -95.9007 H         1 RAF         0.2100
     53 H19       -51.7903  -62.9015  -96.4756 H         1 RAF         0.0647
     54 H20       -49.8536  -60.9597  -95.0057 H         1 RAF         0.0587
     55 H21       -50.4319  -62.4633  -94.2111 H         1 RAF         0.0587
     56 H22       -52.9308  -62.7962  -94.1009 H         1 RAF         0.0937
     57 H23       -51.0453  -60.0290  -92.5546 H         1 RAF         0.0647
     58 H24       -51.6124  -61.4766  -89.9277 H         1 RAF         0.0584
     59 H25       -50.8169  -59.8716  -90.0617 H         1 RAF         0.0584
     60 H26       -50.0233  -62.2514  -91.4121 H         1 RAF         0.2095
     61 H27       -52.6345  -58.6510  -91.4517 H         1 RAF         0.0647
     62 H28       -53.4537  -60.2151  -89.9584 H         1 RAF         0.2100
     63 H29       -53.1848  -58.9807  -93.8120 H         1 RAF         0.0648
     64 H30       -55.4668  -58.8795  -93.7356 H         1 RAF         0.2100
     65 H31       -54.7353  -61.5105  -92.9035 H         1 RAF         0.0671
     66 H32       -54.0400  -60.4258  -95.4448 H         1 RAF         0.2101
@<TRIPOS>BOND
     1    1    2 1  
     2    2    3 1  
     3    3    4 1  
     4    3    8 1  
     5    4    5 1  
     6    4    6 1  
     7    6    7 1  
     8    6    9 1  
     9    8    9 1  
    10    9   10 1  
    11    9   12 1  
    12   10   11 1  
    13   12   13 1  
    14   13   14 1  
    15   13   21 1  
    16   14   15 1  
    17   14   16 1  
    18   16   17 1  
    19   16   18 1  
    20   18   19 1  
    21   18   20 1  
    22   20   21 1  
    23   20   22 1  
    24   22   23 1  
    25   23   24 1  
    26   24   25 1  
    27   24   33 1  
    28   25   26 1  
    29   26   27 1  
    30   26   29 1  
    31   27   28 1  
    32   29   30 1  
    33   29   31 1  
    34   31   32 1  
    35   31   33 1  
    36   33   34 1  
    37    1   35 1  
    38    2   36 1  
    39    2   37 1  
    40    3   38 1  
    41    4   39 1  
    42    5   40 1  
    43    6   41 1  
    44    7   42 1  
    45   10   43 1  
    46   10   44 1  
    47   11   45 1  
    48   13   46 1  
    49   14   47 1  
    50   15   48 1  
    51   16   49 1  
    52   17   50 1  
    53   18   51 1  
    54   19   52 1  
    55   20   53 1  
    56   22   54 1  
    57   22   55 1  
    58   24   56 1  
    59   26   57 1  
    60   27   58 1  
    61   27   59 1  
    62   28   60 1  
    63   29   61 1  
    64   30   62 1  
    65   31   63 1  
    66   32   64 1  
    67   33   65 1  
    68   34   66 1  
@<TRIPOS>SUBSTRUCTURE
     1 RAF         1

