### 
### Created by X-TOOL on Mon Aug  2 16:12:10 2021
### 

@<TRIPOS>MOLECULE
5ogb_ligand
   48    50     1     0     0
SMALL
GAST_HUCK


@<TRIPOS>ATOM
      1 C4          2.4150   -1.0880    0.8380 C.ar      1 MOL        -0.0346
      2 C14         3.2860   -5.2430    4.0420 C.3       1 MOL        -0.0310
      3 C5          1.1740   -0.4800    0.7200 C.ar      1 MOL         0.0330
      4 C6          0.1770   -0.7660    1.6460 C.ar      1 MOL        -0.0512
      5 C11        -1.8650   -2.5590    3.0450 C.3       1 MOL        -0.1248
      6 C7         -0.6480   -1.9200    3.7470 C.3       1 MOL        -0.0913
      7 C8         -0.1380   -2.8200    4.8530 C.2       1 MOL        -0.1014
      8 C9          1.0760   -3.3440    4.8520 C.2       1 MOL         0.0851
      9 C10        -1.0980   -0.6010    4.4080 C.3       1 MOL        -0.1248
     10 C12         3.3610   -3.7350    4.0010 C.3       1 MOL         0.0811
     11 C13         4.1920   -3.1610    5.1130 C.3       1 MOL        -0.0310
     12 N1          1.9870   -3.0920    3.9020 N.pl3     1 MOL        -0.1996
     13 C3          2.6800   -1.9200    1.8840 C.ar      1 MOL        -0.0080
     14 C1          0.4300   -1.6290    2.7150 C.ar      1 MOL        -0.0704
     15 C2          1.6910   -2.2310    2.8140 C.ar      1 MOL         0.1046
     16 C15         0.9640    0.3080   -0.4540 C.1       1 MOL        -0.0592
     17 C16         0.8090    0.9440   -1.4320 C.1       1 MOL        -0.0603
     18 C17         0.6830    1.6960   -2.6450 C.ar      1 MOL         0.0269
     19 C18         1.8500    1.9930   -3.3420 C.ar      1 MOL        -0.0433
     20 C19         1.8080    2.6780   -4.5400 C.ar      1 MOL        -0.0469
     21 C20         0.5840    3.0630   -5.0780 C.ar      1 MOL         0.0098
     22 C21        -0.5960    2.7680   -4.3900 C.ar      1 MOL        -0.0469
     23 C22        -0.5540    2.0850   -3.1820 C.ar      1 MOL        -0.0433
     24 C23         0.5720    3.7760   -6.3620 C.2       1 MOL         0.0626
     25 O1         -0.4480    3.6860   -7.0590 O.co2     1 MOL        -0.5608
     26 O2          1.6400    4.3850   -6.6900 O.co2     1 MOL        -0.5608
     27 H1          3.1795   -0.9000    0.0928 H         1 MOL         0.0728
     28 H2          4.3019   -5.6588    4.1134 H         1 MOL         0.0262
     29 H3          2.8028   -5.6112    3.1250 H         1 MOL         0.0262
     30 H4          2.6988   -5.5573    4.9175 H         1 MOL         0.0262
     31 H5         -0.8033   -0.3162    1.5377 H         1 MOL         0.0688
     32 H6         -2.6475   -2.7711    3.7885 H         1 MOL         0.0003
     33 H7         -1.5574   -3.4965    2.5588 H         1 MOL         0.0003
     34 H8         -2.2576   -1.8648    2.2875 H         1 MOL         0.0003
     35 H9         -0.8011   -3.0458    5.6868 H         1 MOL         0.0372
     36 H10         1.3496   -4.0149    5.6650 H         1 MOL         0.1586
     37 H11        -0.2404   -0.1329    4.9133 H         1 MOL         0.0003
     38 H12        -1.8877   -0.8107    5.1445 H         1 MOL         0.0003
     39 H13        -1.4868    0.0812    3.6377 H         1 MOL         0.0003
     40 H14         3.8853   -3.4808    3.0680 H         1 MOL         0.0691
     41 H15         4.2086   -2.0643    5.0298 H         1 MOL         0.0262
     42 H16         5.2186   -3.5496    5.0418 H         1 MOL         0.0262
     43 H17         3.7574   -3.4487    6.0817 H         1 MOL         0.0262
     44 H18         3.6714   -2.3445    1.9935 H         1 MOL         0.0635
     45 H19         2.8067    1.6818   -2.9383 H         1 MOL         0.0634
     46 H20         2.7283    2.9158   -5.0612 H         1 MOL         0.0650
     47 H21        -1.5506    3.0745   -4.8023 H         1 MOL         0.0650
     48 H22        -1.4729    1.8531   -2.6557 H         1 MOL         0.0634
@<TRIPOS>BOND
     1    3    1 ar 
     2    1   13 ar 
     3   10    2 1  
     4    4    3 ar 
     5    3   16 1  
     6   14    4 ar 
     7    6    5 1  
     8    7    6 1  
     9    6    9 1  
    10    6   14 1  
    11    8    7 2  
    12   12    8 1  
    13   10   11 1  
    14   10   12 1  
    15   12   15 1  
    16   13   15 ar 
    17   14   15 ar 
    18   16   17 3  
    19   17   18 1  
    20   18   19 ar 
    21   18   23 ar 
    22   19   20 ar 
    23   20   21 ar 
    24   21   22 ar 
    25   21   24 1  
    26   22   23 ar 
    27   24   25 ar 
    28   24   26 ar 
    29    1   27 1  
    30    2   28 1  
    31    2   29 1  
    32    2   30 1  
    33    4   31 1  
    34    5   32 1  
    35    5   33 1  
    36    5   34 1  
    37    7   35 1  
    38    8   36 1  
    39    9   37 1  
    40    9   38 1  
    41    9   39 1  
    42   10   40 1  
    43   11   41 1  
    44   11   42 1  
    45   11   43 1  
    46   13   44 1  
    47   19   45 1  
    48   20   46 1  
    49   22   47 1  
    50   23   48 1  
@<TRIPOS>SUBSTRUCTURE
     1 MOL         1

