### 
### Created by X-TOOL on Mon Jan  6 16:09:23 2020
### 

@<TRIPOS>MOLECULE
5oh1_ligand
   33    34     1     0     0
SMALL
GAST_HUCK


@<TRIPOS>ATOM
      1 C12        26.4910  -17.9580    2.2310 C.ar      1 9UQ        -0.0084
      2 C2         26.5200  -14.6830   -0.8410 C.3       1 9UQ        -0.0542
      3 C7         24.6930  -14.8850   -2.4770 C.2       1 9UQ         0.2029
      4 C6         24.1770  -15.2170   -0.1710 C.2       1 9UQ         0.1815
      5 C5         25.9040  -14.0720   -2.0950 C.3       1 9UQ         0.0333
      6 C4         26.2110  -15.7350    1.2830 C.ar      1 9UQ        -0.0565
      7 C3         25.4130  -13.3360    0.9230 C.3       1 9UQ        -0.0744
      8 O2         24.3880  -15.0290   -3.6540 O.2       1 9UQ        -0.3859
      9 O1         23.2520  -15.4100    0.6040 O.2       1 9UQ        -0.3617
     10 N1         23.9930  -15.4330   -1.4810 N.am      1 9UQ        -0.2093
     11 C1         25.5380  -14.7510    0.3330 C.3       1 9UQ         0.0334
     12 C8         24.5310  -13.2140    2.1410 C.3       1 9UQ        -0.0747
     13 C9         27.2930  -15.3110    2.0670 C.ar      1 9UQ        -0.0482
     14 C11        27.9510  -16.1850    2.9280 C.ar      1 9UQ        -0.0084
     15 C13        27.5550  -17.5100    3.0110 C.ar      1 9UQ         0.0760
     16 N2         28.2120  -18.3430    3.8500 N.pl3     1 9UQ        -0.3145
     17 C10        25.8280  -17.0800    1.3690 C.ar      1 9UQ        -0.0482
     18 H1         26.1756  -18.9933    2.2930 H         1 9UQ         0.0637
     19 H2         27.3841  -14.0720   -0.5409 H         1 9UQ         0.0165
     20 H3         26.8565  -15.7034   -1.0766 H         1 9UQ         0.0165
     21 H4         26.6368  -14.0899   -2.9151 H         1 9UQ         0.0497
     22 H5         25.6048  -13.0329   -1.8932 H         1 9UQ         0.0497
     23 H6         25.0042  -12.6783    0.1418 H         1 9UQ         0.0138
     24 H7         26.4213  -12.9942    1.1996 H         1 9UQ         0.0138
     25 H8         23.2615  -16.0650   -1.7367 H         1 9UQ         0.2249
     26 H9         24.5133  -12.1669    2.4774 H         1 9UQ         0.0219
     27 H10        24.9269  -13.8510    2.9457 H         1 9UQ         0.0219
     28 H11        23.5098  -13.5351    1.8879 H         1 9UQ         0.0219
     29 H12        27.6243  -14.2809    2.0015 H         1 9UQ         0.0815
     30 H13        28.7752  -15.8279    3.5349 H         1 9UQ         0.0637
     31 H14        27.9284  -19.3306    3.9219 H         1 9UQ         0.1882
     32 H15        28.9960  -17.9898    4.4171 H         1 9UQ         0.1882
     33 H16        25.0082  -17.4437    0.7601 H         1 9UQ         0.0815
@<TRIPOS>BOND
     1    1   15 ar 
     2   17    1 ar 
     3    2    5 1  
     4   11    2 1  
     5    5    3 1  
     6    3    8 2  
     7   10    3 am 
     8    4    9 2  
     9    4   10 am 
    10   11    4 1  
    11    6   11 1  
    12    6   13 ar 
    13    6   17 ar 
    14   11    7 1  
    15    7   12 1  
    16   13   14 ar 
    17   14   15 ar 
    18   15   16 1  
    19    1   18 1  
    20    2   19 1  
    21    2   20 1  
    22    5   21 1  
    23    5   22 1  
    24    7   23 1  
    25    7   24 1  
    26   10   25 1  
    27   12   26 1  
    28   12   27 1  
    29   12   28 1  
    30   13   29 1  
    31   14   30 1  
    32   16   31 1  
    33   16   32 1  
    34   17   33 1  
@<TRIPOS>SUBSTRUCTURE
     1 9UQ         1

