### 
### Created by X-TOOL on Wed Jan  1 15:39:36 2020
### 

@<TRIPOS>MOLECULE
5oh2_ligand
   13    13     1     0     0
SMALL
GAST_HUCK


@<TRIPOS>ATOM
      1 OAA        21.4820   16.0720   -7.3520 O.2       1 BAQ        -0.3971
      2 CAF        22.4450   16.8130   -7.5170 C.2       1 BAQ         0.1760
      3 CAD        22.7050   18.0620   -6.7150 C.3       1 BAQ         0.0390
      4 CAB        24.1400   18.4330   -7.1170 C.3       1 BAQ        -0.0158
      5 CAC        24.5360   17.5560   -8.3090 C.3       1 BAQ         0.0329
      6 NAE        23.4350   16.6180   -8.3790 N.am      1 BAQ        -0.2868
      7 H1         22.6354   17.8613   -5.6357 H         1 BAQ         0.0503
      8 H2         21.9988   18.8607   -6.9858 H         1 BAQ         0.0503
      9 H3         24.8234   18.2498   -6.2748 H         1 BAQ         0.0309
     10 H4         24.1858   19.4944   -7.4023 H         1 BAQ         0.0309
     11 H5         25.4891   17.0389   -8.1243 H         1 BAQ         0.0521
     12 H6         24.6136   18.1492   -9.2321 H         1 BAQ         0.0521
     13 H7         23.4215   15.8667   -9.0388 H         1 BAQ         0.1851
@<TRIPOS>BOND
     1    1    2 2  
     2    2    3 1  
     3    2    6 am 
     4    3    4 1  
     5    4    5 1  
     6    5    6 1  
     7    3    7 1  
     8    3    8 1  
     9    4    9 1  
    10    4   10 1  
    11    5   11 1  
    12    5   12 1  
    13    6   13 1  
@<TRIPOS>SUBSTRUCTURE
     1 BAQ         1

