### 
### Created by X-TOOL on Wed Jan  1 15:39:36 2020
### 

@<TRIPOS>MOLECULE
5oh3_ligand
   21    21     1     0     0
SMALL
GAST_HUCK


@<TRIPOS>ATOM
      1 O1         26.2120   15.9610   -8.4570 O.2       1 9V2        -0.3328
      2 C4         25.1320   16.4410   -8.1520 C.2       1 9V2         0.2323
      3 N          23.9450   15.8230   -8.2660 N.am      1 9V2        -0.1987
      4 C1         24.9490   17.8230   -7.5730 C.3       1 9V2         0.0705
      5 C3         24.9600   18.8750   -8.6840 C.3       1 9V2        -0.0413
      6 C7         26.2330   18.9310   -9.5140 C.3       1 9V2        -0.0656
      7 C5         26.0170   18.1730   -6.5640 C.3       1 9V2        -0.0504
      8 C2         23.5430   17.6740   -6.9670 C.3       1 9V2         0.0551
      9 C6         23.0440   16.3600   -7.5630 C.2       1 9V2         0.2043
     10 O2         21.9230   15.8820   -7.3760 O.2       1 9V2        -0.3859
     11 H1         23.7912   15.0229   -8.8458 H         1 9V2         0.2261
     12 H2         24.8137   19.8613   -8.2195 H         1 9V2         0.0256
     13 H3         24.1211   18.6612   -9.3627 H         1 9V2         0.0256
     14 H4         26.1374   19.7153  -10.2794 H         1 9V2         0.0228
     15 H5         26.3949   17.9591  -10.0031 H         1 9V2         0.0228
     16 H6         27.0875   19.1592   -8.8599 H         1 9V2         0.0228
     17 H7         26.0201   17.4238   -5.7586 H         1 9V2         0.0223
     18 H8         25.8093   19.1664   -6.1398 H         1 9V2         0.0223
     19 H9         26.9994   18.1836   -7.0587 H         1 9V2         0.0223
     20 H10        22.8951   18.5124   -7.2626 H         1 9V2         0.0499
     21 H11        23.5905   17.6165   -5.8695 H         1 9V2         0.0499
@<TRIPOS>BOND
     1    1    2 2  
     2    2    3 am 
     3    2    4 1  
     4    3    9 am 
     5    4    5 1  
     6    4    7 1  
     7    4    8 1  
     8    5    6 1  
     9    8    9 1  
    10    9   10 2  
    11    3   11 1  
    12    5   12 1  
    13    5   13 1  
    14    6   14 1  
    15    6   15 1  
    16    6   16 1  
    17    7   17 1  
    18    7   18 1  
    19    7   19 1  
    20    8   20 1  
    21    8   21 1  
@<TRIPOS>SUBSTRUCTURE
     1 9V2         1

