### 
### Created by X-TOOL on Wed Jan  1 15:39:36 2020
### 

@<TRIPOS>MOLECULE
5oh4_ligand
   15    15     1     0     0
SMALL
GAST_HUCK


@<TRIPOS>ATOM
      1 O05        21.3260   15.8530   -7.4900 O.2       1 9UZ        -0.3862
      2 C04        22.3820   16.4900   -7.4660 C.2       1 9UZ         0.2046
      3 N03        23.3780   16.0840   -8.2120 N.am      1 9UZ        -0.1997
      4 C06        22.5980   17.7140   -6.5940 C.3       1 9UZ         0.0446
      5 C07        23.7110   18.6190   -7.1340 C.3       1 9UZ        -0.0182
      6 C08        24.9440   17.8610   -7.5800 C.3       1 9UZ         0.0446
      7 C02        24.5990   16.5700   -8.2650 C.2       1 9UZ         0.2046
      8 O01        25.4470   15.9540   -8.8880 O.2       1 9UZ        -0.3862
      9 H1         23.1872   15.3097   -8.8154 H         1 9UZ         0.2256
     10 H2         22.8701   17.3838   -5.5806 H         1 9UZ         0.0509
     11 H3         21.6616   18.2898   -6.5530 H         1 9UZ         0.0509
     12 H4         24.0031   19.3226   -6.3406 H         1 9UZ         0.0314
     13 H5         23.3170   19.1796   -7.9945 H         1 9UZ         0.0314
     14 H6         25.5623   17.6396   -6.6976 H         1 9UZ         0.0509
     15 H7         25.5141   18.4913   -8.2784 H         1 9UZ         0.0509
@<TRIPOS>BOND
     1    1    2 2  
     2    2    3 am 
     3    2    4 1  
     4    3    7 am 
     5    4    5 1  
     6    5    6 1  
     7    6    7 1  
     8    7    8 2  
     9    3    9 1  
    10    4   10 1  
    11    4   11 1  
    12    5   12 1  
    13    5   13 1  
    14    6   14 1  
    15    6   15 1  
@<TRIPOS>SUBSTRUCTURE
     1 9UZ         1

