### 
### Created by X-TOOL on Wed Jan  1 15:39:35 2020
### 

@<TRIPOS>MOLECULE
5oh7_ligand
   11    11     1     0     0
SMALL
GAST_HUCK


@<TRIPOS>ATOM
      1 O          21.3620   15.0440   -7.2390 O.2       1 HYN        -0.3846
      2 C          22.4660   15.6960   -7.3290 C.2       1 HYN         0.2267
      3 C1         22.7810   16.8650   -6.4780 C.3       1 HYN         0.1258
      4 N          24.1200   17.1340   -6.9370 N.am      1 HYN        -0.2494
      5 N1         23.4080   15.3090   -8.2140 N.am      1 HYN        -0.1836
      6 C2         24.4070   16.2250   -7.9000 C.2       1 HYN         0.2897
      7 O1         25.5300   16.2640   -8.4550 O.2       1 HYN        -0.3914
      8 H1         22.7563   16.6128   -5.4076 H         1 HYN         0.0766
      9 H2         22.1028   17.7091   -6.6716 H         1 HYN         0.0766
     10 H3         24.7256   17.8577   -6.6061 H         1 HYN         0.1882
     11 H4         23.3926   14.5778   -8.8960 H         1 HYN         0.2255
@<TRIPOS>BOND
     1    1    2 2  
     2    2    3 1  
     3    2    5 am 
     4    3    4 1  
     5    4    6 am 
     6    5    6 am 
     7    6    7 2  
     8    3    8 1  
     9    3    9 1  
    10    4   10 1  
    11    5   11 1  
@<TRIPOS>SUBSTRUCTURE
     1 HYN         1

