### 
### Created by X-TOOL on Wed Jan  1 15:39:35 2020
### 

@<TRIPOS>MOLECULE
5oh9_ligand
   10    10     1     0     0
SMALL
GAST_HUCK


@<TRIPOS>ATOM
      1 O2         25.6510   17.3690   -8.7840 O.2       1 9UT        -0.3731
      2 C2         24.6180   17.5380   -8.1320 C.2       1 9UT         0.2691
      3 N3         23.5710   16.7290   -8.3210 N.am      1 9UT        -0.1894
      4 S1         24.3960   18.7780   -7.0100 S.3       1 9UT        -0.0047
      5 C5         22.7260   18.2160   -6.6140 C.3       1 9UT         0.1094
      6 C4         22.5270   16.9780   -7.5100 C.2       1 9UT         0.2176
      7 O4         21.5550   16.2280   -7.4700 O.2       1 9UT        -0.3851
      8 H1         23.5643   16.0010   -9.0065 H         1 9UT         0.2265
      9 H2         21.9851   18.9936   -6.8515 H         1 9UT         0.0649
     10 H3         22.6462   17.9459   -5.5507 H         1 9UT         0.0649
@<TRIPOS>BOND
     1    1    2 2  
     2    2    3 am 
     3    2    4 1  
     4    3    6 am 
     5    4    5 1  
     6    5    6 1  
     7    6    7 2  
     8    3    8 1  
     9    5    9 1  
    10    5   10 1  
@<TRIPOS>SUBSTRUCTURE
     1 9UT         1

