### 
### Created by X-TOOL on Wed Jan  1 15:39:35 2020
### 

@<TRIPOS>MOLECULE
5ohi_ligand
   56    60     1     0     0
SMALL
GAST_HUCK


@<TRIPOS>ATOM
      1 N3         10.5800  -21.5920   54.3820 N.am      1 9V8        -0.2482
      2 C4         10.5570  -21.1430   55.7770 C.3       1 9V8         0.0393
      3 C5         11.9510  -20.5650   56.0170 C.3       1 9V8        -0.0107
      4 C6         13.2120  -21.3470   55.7440 C.3       1 9V8        -0.0110
      5 C7         14.4680  -20.8960   56.4740 C.3       1 9V8         0.0337
      6 C15         8.6550  -22.8940   50.4290 C.ar      1 9V8         0.0407
      7 C17         8.4440  -21.9810   47.7930 C.ar      1 9V8        -0.0039
      8 C20         8.3390  -23.7750   49.3990 C.ar      1 9V8        -0.0030
      9 C21        16.8240  -20.7880   55.8150 C.2       1 9V8         0.1985
     10 C22        18.0020  -21.4900   55.2010 C.ar      1 9V8         0.0410
     11 C24        17.9750  -22.8580   54.8900 C.ar      1 9V8        -0.0502
     12 C26        19.1610  -20.7490   54.9490 C.ar      1 9V8        -0.0295
     13 C28        20.2500  -22.7510   54.1200 C.ar      1 9V8         0.1156
     14 C1         12.6350  -20.4410   54.6830 C.3       1 9V8        -0.0107
     15 C11         9.6100  -22.3820   53.8630 C.2       1 9V8         0.3242
     16 C14         8.7900  -23.3920   51.8430 C.3       1 9V8         0.1226
     17 C16         8.2330  -23.3250   48.0860 C.ar      1 9V8         0.0730
     18 C18         8.7300  -21.0880   48.8200 C.ar      1 9V8         0.0730
     19 C19         8.8590  -21.5510   50.1270 C.ar      1 9V8        -0.0030
     20 C2         11.7390  -21.0950   53.6300 C.3       1 9V8         0.0393
     21 C25        19.0850  -23.4870   54.3400 C.ar      1 9V8        -0.0268
     22 C27        20.2670  -21.3860   54.3870 C.ar      1 9V8         0.0825
     23 C32         7.9210  -24.2890   46.9840 C.3       1 9V8         0.3832
     24 C36         8.9980  -19.6510   48.5050 C.3       1 9V8         0.3832
     25 F33         6.8370  -25.0190   47.2390 F         1 9V8        -0.2187
     26 F34         8.9180  -25.1490   46.7580 F         1 9V8        -0.2187
     27 F35         7.7080  -23.6890   45.8090 F         1 9V8        -0.2187
     28 F37         8.7100  -19.3370   47.2470 F         1 9V8        -0.2187
     29 F38        10.2740  -19.3230   48.6660 F         1 9V8        -0.2187
     30 F39         8.2960  -18.8150   49.2630 F         1 9V8        -0.2187
     31 N10        15.6980  -21.4930   55.9680 N.am      1 9V8        -0.2871
     32 N29        21.4680  -23.1000   53.5700 N.pl3     1 9V8        -0.1722
     33 N30        22.2250  -22.0350   53.5410 N.2       1 9V8        -0.0758
     34 N31        21.5180  -20.9930   54.0280 N.2       1 9V8        -0.1972
     35 O12         8.6610  -22.7880   54.4960 O.2       1 9V8        -0.3773
     36 O13         9.8330  -22.6580   52.5560 O.3       1 9V8        -0.2495
     37 O23        16.8800  -19.5890   56.0870 O.2       1 9V8        -0.3885
     38 H1         10.3649  -21.9882   56.4542 H         1 9V8         0.0524
     39 H2          9.7861  -20.3723   55.9246 H         1 9V8         0.0524
     40 H3         11.9478  -19.7852   56.7928 H         1 9V8         0.0327
     41 H4         13.1965  -22.4404   55.6251 H         1 9V8         0.0327
     42 H5         14.3654  -21.1642   57.5358 H         1 9V8         0.0522
     43 H6         14.5497  -19.8033   56.3780 H         1 9V8         0.0522
     44 H7          8.3857  -21.6316   46.7685 H         1 9V8         0.1095
     45 H8          8.1736  -24.8229   49.6216 H         1 9V8         0.0992
     46 H9         17.0756  -23.4320   55.0815 H         1 9V8         0.0624
     47 H10        19.1992  -19.6923   55.1876 H         1 9V8         0.0660
     48 H11        13.1652  -19.5464   54.3246 H         1 9V8         0.0327
     49 H12         9.0495  -24.4608   51.8254 H         1 9V8         0.0786
     50 H13         7.8319  -23.2558   52.3660 H         1 9V8         0.0786
     51 H14         9.1212  -20.8576   50.9179 H         1 9V8         0.0992
     52 H15        11.4251  -20.3579   52.8762 H         1 9V8         0.0524
     53 H16        12.2647  -21.9247   53.1349 H         1 9V8         0.0524
     54 H17        19.0464  -24.5397   54.0842 H         1 9V8         0.0576
     55 H18        15.6998  -22.4635   55.7269 H         1 9V8         0.1842
     56 H19        21.7340  -24.0385   53.2394 H         1 9V8         0.2595
@<TRIPOS>BOND
     1    1    2 1  
     2   15    1 am 
     3    1   20 1  
     4    2    3 1  
     5    3    4 1  
     6   14    3 1  
     7    4    5 1  
     8   14    4 1  
     9    5   31 1  
    10    6    8 ar 
    11   16    6 1  
    12    6   19 ar 
    13   17    7 ar 
    14    7   18 ar 
    15    8   17 ar 
    16    9   10 1  
    17   31    9 am 
    18    9   37 2  
    19   10   11 ar 
    20   10   12 ar 
    21   11   21 ar 
    22   12   22 ar 
    23   21   13 ar 
    24   22   13 ar 
    25   13   32 1  
    26   20   14 1  
    27   15   35 2  
    28   36   15 1  
    29   16   36 1  
    30   17   23 1  
    31   18   19 ar 
    32   18   24 1  
    33   22   34 1  
    34   23   25 1  
    35   23   26 1  
    36   23   27 1  
    37   24   28 1  
    38   24   29 1  
    39   24   30 1  
    40   32   33 1  
    41   33   34 2  
    42    2   38 1  
    43    2   39 1  
    44    3   40 1  
    45    4   41 1  
    46    5   42 1  
    47    5   43 1  
    48    7   44 1  
    49    8   45 1  
    50   11   46 1  
    51   12   47 1  
    52   14   48 1  
    53   16   49 1  
    54   16   50 1  
    55   19   51 1  
    56   20   52 1  
    57   20   53 1  
    58   21   54 1  
    59   31   55 1  
    60   32   56 1  
@<TRIPOS>SUBSTRUCTURE
     1 9V8         1

