### 
### Created by X-TOOL on Mon Aug  2 16:12:11 2021
### 

@<TRIPOS>MOLECULE
5oht_ligand
   26    26     1     0     0
SMALL
GAST_HUCK


@<TRIPOS>ATOM
      1 O1         20.0780  -93.6940   14.1270 O.co2     1 MOL        -0.4846
      2 S1         20.7270  -93.6260   12.8590 S.o2      1 MOL        -0.1910
      3 O2         21.8990  -94.3770   12.5980 O.co2     1 MOL        -0.4846
      4 O3         21.1160  -92.2080   12.5670 O.co2     1 MOL        -0.4846
      5 C1         19.5850  -94.0840   11.5690 C.3       1 MOL         0.0408
      6 C2         18.1940  -93.4230   11.5990 C.3       1 MOL         0.0440
      7 C3         18.2480  -91.9200   11.3720 C.3       1 MOL        -0.0268
      8 N1         17.7370  -91.3770   10.0980 N.4       1 MOL         0.2292
      9 C4         16.3630  -91.8100    9.7980 C.3       1 MOL        -0.0045
     10 C5         15.9590  -93.1440   10.4370 C.3       1 MOL         0.1209
     11 O4         15.0090  -93.8130    9.6330 O.3       1 MOL        -0.3839
     12 C6         17.1540  -94.0680   10.6670 C.3       1 MOL         0.0951
     13 O5         16.6680  -95.2700   11.2690 O.3       1 MOL        -0.3885
     14 H1         19.4365  -95.1723   11.6283 H         1 MOL         0.0474
     15 H2         20.0525  -93.8296   10.6063 H         1 MOL         0.0474
     16 H3         17.8187  -93.5702   12.6225 H         1 MOL         0.0394
     17 H4         19.3026  -91.6179   11.4529 H         1 MOL         0.0818
     18 H5         17.6687  -91.4494   12.1801 H         1 MOL         0.0818
     19 H6         18.3409  -91.6854    9.3522 H         1 MOL         0.2014
     20 H7         17.7526  -90.3704   10.1486 H         1 MOL         0.2014
     21 H8         16.2652  -91.9090    8.7068 H         1 MOL         0.0840
     22 H9         15.6723  -91.0338   10.1591 H         1 MOL         0.0840
     23 H10        15.5007  -92.9259   11.4129 H         1 MOL         0.0673
     24 H11        14.7711  -94.6358   10.0441 H         1 MOL         0.2101
     25 H12        17.6285  -94.2986    9.7018 H         1 MOL         0.0626
     26 H13        17.3947  -95.8623   11.4223 H         1 MOL         0.2099
@<TRIPOS>BOND
     1    1    2 ar 
     2    2    3 ar 
     3    2    4 ar 
     4    2    5 1  
     5    5    6 1  
     6    6    7 1  
     7    6   12 1  
     8    7    8 1  
     9    8    9 1  
    10    9   10 1  
    11   10   11 1  
    12   10   12 1  
    13   12   13 1  
    14    5   14 1  
    15    5   15 1  
    16    6   16 1  
    17    7   17 1  
    18    7   18 1  
    19    8   19 1  
    20    8   20 1  
    21    9   21 1  
    22    9   22 1  
    23   10   23 1  
    24   11   24 1  
    25   12   25 1  
    26   13   26 1  
@<TRIPOS>SUBSTRUCTURE
     1 MOL         1

