### 
### Created by X-TOOL on Mon Aug  2 16:12:11 2021
### 

@<TRIPOS>MOLECULE
5ohy_ligand
   26    26     1     0     0
SMALL
GAST_HUCK


@<TRIPOS>ATOM
      1 O1         25.4110   10.2210   30.3030 O.co2     1 MOL        -0.4846
      2 S1         25.4930   10.6510   28.8210 S.o2      1 MOL        -0.1910
      3 O2         25.5580   12.0760   28.7690 O.co2     1 MOL        -0.4846
      4 O3         26.5040   10.0200   28.0500 O.co2     1 MOL        -0.4846
      5 C1         23.9130   10.1910   28.1670 C.3       1 MOL         0.0408
      6 C2         23.4080    8.7670   28.4030 C.3       1 MOL         0.0440
      7 C3         22.8330    8.6930   29.8090 C.3       1 MOL        -0.0268
      8 N1         22.1540    7.4720   30.2200 N.4       1 MOL         0.2292
      9 C4         21.2160    6.9620   29.1620 C.3       1 MOL        -0.0045
     10 C5         21.8210    6.8870   27.7560 C.3       1 MOL         0.1209
     11 O4         20.8380    6.3990   26.8350 O.3       1 MOL        -0.3839
     12 C6         22.4040    8.2480   27.3470 C.3       1 MOL         0.0951
     13 O5         23.0320    8.1750   26.0470 O.3       1 MOL        -0.3885
     14 H1         23.9562   10.3431   27.0784 H         1 MOL         0.0474
     15 H2         23.1701   10.8747   28.6036 H         1 MOL         0.0474
     16 H3         24.2816    8.1000   28.3597 H         1 MOL         0.0394
     17 H4         22.1092    9.5155   29.9073 H         1 MOL         0.0818
     18 H5         23.6663    8.8522   30.5092 H         1 MOL         0.0818
     19 H6         21.6268    7.6599   31.0583 H         1 MOL         0.2014
     20 H7         22.8457    6.7637   30.4097 H         1 MOL         0.2014
     21 H8         20.3439    7.6313   29.1250 H         1 MOL         0.0840
     22 H9         20.8907    5.9514   29.4499 H         1 MOL         0.0840
     23 H10        22.6496    6.1638   27.7760 H         1 MOL         0.0673
     24 H11        21.2160    6.3537   25.9646 H         1 MOL         0.2101
     25 H12        21.5735    8.9666   27.2846 H         1 MOL         0.0626
     26 H13        23.3835    9.0273   25.8181 H         1 MOL         0.2099
@<TRIPOS>BOND
     1    1    2 ar 
     2    2    3 ar 
     3    2    4 ar 
     4    2    5 1  
     5    5    6 1  
     6    6    7 1  
     7    6   12 1  
     8    7    8 1  
     9    8    9 1  
    10    9   10 1  
    11   10   11 1  
    12   10   12 1  
    13   12   13 1  
    14    5   14 1  
    15    5   15 1  
    16    6   16 1  
    17    7   17 1  
    18    7   18 1  
    19    8   19 1  
    20    8   20 1  
    21    9   21 1  
    22    9   22 1  
    23   10   23 1  
    24   11   24 1  
    25   12   25 1  
    26   13   26 1  
@<TRIPOS>SUBSTRUCTURE
     1 MOL         1

