### 
### Created by X-TOOL on Wed Jan  1 15:39:34 2020
### 

@<TRIPOS>MOLECULE
5oje_ligand
   54    56     1     0     0
SMALL
GAST_HUCK


@<TRIPOS>ATOM
      1 C1         -1.7430    0.0250   10.1140 C.ar      1 VSK        -0.0747
      2 C10         0.5080    3.6470    9.4120 C.3       1 VSK         0.0689
      3 C11        -0.1750    5.0040    9.5410 C.2       1 VSK         0.2259
      4 C12        -1.7380    6.5930    8.5580 C.3       1 VSK         0.0377
      5 C13        -1.4170    7.5450    7.4270 C.3       1 VSK        -0.0071
      6 C14        -2.3590    8.7200    7.5590 C.ar      1 VSK        -0.0447
      7 C15        -3.6340    8.6610    6.9770 C.ar      1 VSK        -0.0570
      8 C16        -4.5030    9.7400    7.1390 C.ar      1 VSK        -0.0727
      9 C17        -4.1420   10.8700    7.8520 C.ar      1 VSK        -0.0660
     10 C18        -2.8810   10.9070    8.4230 C.ar      1 VSK        -0.0727
     11 C19        -1.9790    9.8520    8.2970 C.ar      1 VSK        -0.0570
     12 C2         -2.1140    1.3190   10.4960 C.ar      1 VSK        -0.0213
     13 C20        -0.6190    9.9630    8.9490 C.3       1 VSK        -0.0367
     14 C21        -5.0960   12.0320    8.0020 C.3       1 VSK        -0.0373
     15 C22        -4.0940    7.4540    6.1910 C.3       1 VSK        -0.0367
     16 C3         -3.4760    1.5920   10.7390 C.ar      1 VSK         0.0603
     17 C4         -4.4650    0.6180   10.6180 C.ar      1 VSK        -0.0443
     18 C5         -4.0610   -0.6480   10.2560 C.ar      1 VSK        -0.0768
     19 C6         -2.7190   -0.9400   10.0070 C.ar      1 VSK        -0.0792
     20 C7         -2.3260    3.4710   11.0820 C.2       1 VSK         0.0168
     21 C8         -1.3940    2.5450   10.7110 C.2       1 VSK        -0.0386
     22 C9          0.0860    2.7460   10.5800 C.3       1 VSK         0.0245
     23 N1         -3.5790    2.9130   11.0900 N.pl3     1 VSK        -0.2890
     24 N2          1.9730    3.9030    9.4790 N.4       1 VSK         0.2388
     25 N3         -0.9480    5.3710    8.5180 N.am      1 VSK        -0.2807
     26 O1         -0.0060    5.6940   10.5460 O.2       1 VSK        -0.3907
     27 H1         -0.7061   -0.2132    9.9061 H         1 VSK         0.0540
     28 H2          0.2431    3.1705    8.4566 H         1 VSK         0.1114
     29 H3         -2.8027    6.3235    8.4971 H         1 VSK         0.0538
     30 H4         -1.5432    7.1046    9.5121 H         1 VSK         0.0538
     31 H5         -1.5686    7.0461    6.4585 H         1 VSK         0.0403
     32 H6         -0.3741    7.8861    7.5046 H         1 VSK         0.0403
     33 H7         -5.4900    9.6921    6.6934 H         1 VSK         0.0422
     34 H8         -2.5859   11.7849    8.9862 H         1 VSK         0.0422
     35 H9         -0.0413    9.0483    8.7501 H         1 VSK         0.0374
     36 H10        -0.7421   10.0900   10.0347 H         1 VSK         0.0374
     37 H11        -0.0843   10.8313    8.5365 H         1 VSK         0.0374
     38 H12        -6.0362   11.8044    7.4784 H         1 VSK         0.0376
     39 H13        -4.6440   12.9359    7.5677 H         1 VSK         0.0376
     40 H14        -5.3024   12.2016    9.0691 H         1 VSK         0.0376
     41 H15        -3.2886    6.7053    6.1641 H         1 VSK         0.0374
     42 H16        -4.3455    7.7590    5.1645 H         1 VSK         0.0374
     43 H17        -4.9824    7.0196    6.6726 H         1 VSK         0.0374
     44 H18        -5.5086    0.8470   10.8011 H         1 VSK         0.0541
     45 H19        -4.8011   -1.4345   10.1625 H         1 VSK         0.0530
     46 H20        -2.4393   -1.9481    9.7233 H         1 VSK         0.0510
     47 H21        -2.1057    4.5068   11.3359 H         1 VSK         0.0795
     48 H22         0.4545    3.1982   11.5126 H         1 VSK         0.0430
     49 H23         0.5548    1.7608   10.4400 H         1 VSK         0.0430
     50 H24        -4.4534    3.4056   11.3216 H         1 VSK         0.2216
     51 H25         2.2461    4.4950    8.7103 H         1 VSK         0.2016
     52 H26         2.4700    3.0279    9.4221 H         1 VSK         0.2016
     53 H27         2.1949    4.3595   10.3499 H         1 VSK         0.2016
     54 H28        -0.9858    4.7924    7.7033 H         1 VSK         0.1854
@<TRIPOS>BOND
     1   12    1 ar 
     2    1   19 ar 
     3    2    3 1  
     4   22    2 1  
     5    2   24 1  
     6    3   25 am 
     7    3   26 2  
     8    4    5 1  
     9   25    4 1  
    10    5    6 1  
    11    6    7 ar 
    12    6   11 ar 
    13    7    8 ar 
    14    7   15 1  
    15    8    9 ar 
    16   10    9 ar 
    17    9   14 1  
    18   11   10 ar 
    19   11   13 1  
    20   12   16 ar 
    21   21   12 1  
    22   16   17 ar 
    23   23   16 1  
    24   17   18 ar 
    25   19   18 ar 
    26   21   20 2  
    27   20   23 1  
    28   21   22 1  
    29    1   27 1  
    30    2   28 1  
    31    4   29 1  
    32    4   30 1  
    33    5   31 1  
    34    5   32 1  
    35    8   33 1  
    36   10   34 1  
    37   13   35 1  
    38   13   36 1  
    39   13   37 1  
    40   14   38 1  
    41   14   39 1  
    42   14   40 1  
    43   15   41 1  
    44   15   42 1  
    45   15   43 1  
    46   17   44 1  
    47   18   45 1  
    48   19   46 1  
    49   20   47 1  
    50   22   48 1  
    51   22   49 1  
    52   23   50 1  
    53   24   51 1  
    54   24   52 1  
    55   24   53 1  
    56   25   54 1  
@<TRIPOS>SUBSTRUCTURE
     1 VSK         1

