### 
### Created by X-TOOL on Wed Jan  1 15:39:36 2020
### 

@<TRIPOS>MOLECULE
5okt_ligand
   54    58     1     0     0
SMALL
GAST_HUCK


@<TRIPOS>ATOM
      1 C01        -5.3610    5.0760  -21.0650 C.3       1 9XK        -0.0363
      2 C02        -4.2940    5.2370  -19.9910 C.ar      1 9XK        -0.0588
      3 C03        -3.7660    6.5040  -19.7120 C.ar      1 9XK        -0.0527
      4 C04        -2.7780    6.6500  -18.7300 C.ar      1 9XK         0.0412
      5 C05        -2.3390    5.5300  -18.0470 C.ar      1 9XK         0.0006
      6 C06        -2.8690    4.2520  -18.3290 C.ar      1 9XK        -0.0698
      7 C07        -3.8430    4.1110  -19.2970 C.ar      1 9XK        -0.0739
      8 N08        -1.3220    5.7500  -17.0510 N.2       1 9XK        -0.3141
      9 C09        -1.0030    7.0810  -16.9640 C.2       1 9XK         0.2090
     10 N10         0.0400    7.5700  -16.0730 N.am      1 9XK        -0.1897
     11 C11         0.4580    8.9620  -16.0350 C.2       1 9XK         0.2276
     12 O12        -0.0870    9.7670  -16.7140 O.2       1 9XK        -0.3779
     13 C13         1.6260    9.3770  -15.1310 C.3       1 9XK         0.0995
     14 S14         1.2660    9.4540  -13.3500 S.3       1 9XK        -0.0533
     15 C15         0.9490   11.2060  -13.0110 C.3       1 9XK         0.1392
     16 N16         0.9100   12.1320  -14.1790 N.4       1 9XK         0.2632
     17 C17         0.6560   13.5350  -13.9940 C.3       1 9XK         0.0114
     18 C18         0.4260   14.0760  -12.5690 C.3       1 9XK         0.1431
     19 S19         0.1580   15.7410  -12.7000 S.3       1 9XK        -0.1296
     20 C20        -0.1650   15.9970  -14.3270 C.3       1 9XK         0.0017
     21 C21         0.5590   14.7980  -15.0840 C.3       1 9XK         0.0028
     22 C22         0.4660   13.1510  -11.4030 C.2       1 9XK         0.2295
     23 O23         0.2880   13.5660  -10.3080 O.2       1 9XK        -0.3830
     24 N24         0.7210   11.7240  -11.6120 N.am      1 9XK        -0.1670
     25 C25         0.7740   10.8130  -10.4780 C.ar      1 9XK         0.0753
     26 C26        -0.2450    9.9030  -10.2490 C.ar      1 9XK        -0.0408
     27 C27        -0.1710    9.0440   -9.1650 C.ar      1 9XK        -0.0755
     28 C28         0.9190    9.0900   -8.3100 C.ar      1 9XK        -0.0772
     29 C29         1.9390    9.9970   -8.5410 C.ar      1 9XK        -0.0755
     30 C30         1.8660   10.8570   -9.6230 C.ar      1 9XK        -0.0408
     31 S31        -1.9110    7.9290  -18.1020 S.3       1 9XK         0.0270
     32 H1         -5.5922    6.0585  -21.5023 H         1 9XK         0.0375
     33 H2         -6.2711    4.6508  -20.6169 H         1 9XK         0.0375
     34 H3         -4.9906    4.4025  -21.8519 H         1 9XK         0.0375
     35 H4         -4.1220    7.3714  -20.2560 H         1 9XK         0.0491
     36 H5         -2.5120    3.3839  -17.7868 H         1 9XK         0.0517
     37 H6         -4.2554    3.1330  -19.5174 H         1 9XK         0.0492
     38 H7          0.4886    6.9195  -15.4601 H         1 9XK         0.2441
     39 H8          1.9608   10.3750  -15.4503 H         1 9XK         0.0627
     40 H9          2.4402    8.6523  -15.2789 H         1 9XK         0.0627
     41 H10         2.0281   11.3835  -12.8923 H         1 9XK         0.1345
     42 H11         0.1907   11.7879  -14.7956 H         1 9XK         0.2057
     43 H12         1.8062   12.0591  -14.6345 H         1 9XK         0.2057
     44 H13        -0.4133   13.3241  -14.1424 H         1 9XK         0.0889
     45 H14         1.4984   14.2581  -12.4056 H         1 9XK         0.0715
     46 H15         0.2437   16.9642  -14.6549 H         1 9XK         0.0380
     47 H16        -1.2487   15.9743  -14.5144 H         1 9XK         0.0380
     48 H17        -0.0274   14.4956  -15.9642 H         1 9XK         0.0330
     49 H18         1.5668   15.1033  -15.4020 H         1 9XK         0.0330
     50 H19        -1.0982    9.8633  -10.9165 H         1 9XK         0.0502
     51 H20        -0.9689    8.3328   -8.9845 H         1 9XK         0.0577
     52 H21         0.9726    8.4169   -7.4620 H         1 9XK         0.0487
     53 H22         2.7938   10.0336   -7.8753 H         1 9XK         0.0577
     54 H23         2.6647   11.5674   -9.8031 H         1 9XK         0.0502
@<TRIPOS>BOND
     1    1    2 1  
     2    2    3 ar 
     3    2    7 ar 
     4    3    4 ar 
     5    4    5 ar 
     6    4   31 1  
     7    5    6 ar 
     8    5    8 1  
     9    6    7 ar 
    10    8    9 2  
    11    9   10 1  
    12    9   31 1  
    13   10   11 am 
    14   11   12 2  
    15   11   13 1  
    16   13   14 1  
    17   14   15 1  
    18   15   16 1  
    19   15   24 1  
    20   16   17 1  
    21   17   18 1  
    22   17   21 1  
    23   18   19 1  
    24   18   22 1  
    25   19   20 1  
    26   20   21 1  
    27   22   23 2  
    28   22   24 am 
    29   24   25 1  
    30   25   26 ar 
    31   25   30 ar 
    32   26   27 ar 
    33   27   28 ar 
    34   28   29 ar 
    35   29   30 ar 
    36    1   32 1  
    37    1   33 1  
    38    1   34 1  
    39    3   35 1  
    40    6   36 1  
    41    7   37 1  
    42   10   38 1  
    43   13   39 1  
    44   13   40 1  
    45   15   41 1  
    46   16   42 1  
    47   16   43 1  
    48   17   44 1  
    49   18   45 1  
    50   20   46 1  
    51   20   47 1  
    52   21   48 1  
    53   21   49 1  
    54   26   50 1  
    55   27   51 1  
    56   28   52 1  
    57   29   53 1  
    58   30   54 1  
@<TRIPOS>SUBSTRUCTURE
     1 9XK         1

