### 
### Created by X-TOOL on Mon Sep 10 21:13:33 2018
### 

@<TRIPOS>MOLECULE
5oku_ligand
   18    17     1     0     0
SMALL
GAST_HUCK


@<TRIPOS>ATOM
      1 O1         54.2870  355.6900   84.3180 O.co2     1 0L1        -0.5690
      2 C2         53.9170  356.8620   83.9830 C.2       1 0L1         0.0348
      3 O2         52.8960  357.0990   83.2930 O.co2     1 0L1        -0.5690
      4 C3         54.6620  358.0980   84.4690 C.3       1 0L1         0.0003
      5 C4         56.0490  357.7860   85.0660 C.3       1 0L1        -0.0399
      6 C5         56.8890  359.0550   85.3100 C.3       1 0L1        -0.0399
      7 C6         58.3140  358.6990   85.8780 C.3       1 0L1         0.0003
      8 C7         59.2660  359.9210   85.9540 C.2       1 0L1         0.0348
      9 O4         60.0300  360.2090   84.9710 O.co2     1 0L1        -0.5690
     10 O3         59.2570  360.6310   87.0070 O.co2     1 0L1        -0.5690
     11 H1         54.0532  358.5899   85.2419 H         1 0L1         0.0430
     12 H2         54.7954  358.7813   83.6173 H         1 0L1         0.0430
     13 H3         56.5934  357.1319   84.3690 H         1 0L1         0.0284
     14 H4         55.9106  357.2655   86.0251 H         1 0L1         0.0284
     15 H5         56.3655  359.6974   86.0333 H         1 0L1         0.0284
     16 H6         57.0073  359.5946   84.3588 H         1 0L1         0.0284
     17 H7         58.7707  357.9405   85.2253 H         1 0L1         0.0430
     18 H8         58.1934  358.2867   86.8906 H         1 0L1         0.0430
@<TRIPOS>BOND
     1    1    2 ar 
     2    2    3 ar 
     3    2    4 1  
     4    4    5 1  
     5    5    6 1  
     6    6    7 1  
     7    7    8 1  
     8    8    9 ar 
     9    8   10 ar 
    10    4   11 1  
    11    4   12 1  
    12    5   13 1  
    13    5   14 1  
    14    6   15 1  
    15    6   16 1  
    16    7   17 1  
    17    7   18 1  
@<TRIPOS>SUBSTRUCTURE
     1 0L1         1

