### 
### Created by X-TOOL on Wed Jan  1 15:39:35 2020
### 

@<TRIPOS>MOLECULE
5olb_ligand
   54    57     1     0     0
SMALL
GAST_HUCK


@<TRIPOS>ATOM
      1 C7         28.1420   30.1190   26.9620 C.3       1 6ZO         0.1113
      2 C6         27.6100   26.6720   24.4370 C.ar      1 6ZO        -0.0409
      3 C1         27.9620   28.9150   26.0810 C.ar      1 6ZO        -0.0121
      4 C5         26.6850   27.0040   25.4070 C.ar      1 6ZO         0.0344
      5 C4         28.7160   27.4890   24.3080 C.ar      1 6ZO         0.0344
      6 C3         26.8400   28.1060   26.2220 C.ar      1 6ZO        -0.0438
      7 C2         28.9040   28.6020   25.1070 C.ar      1 6ZO        -0.0438
      8 O32        18.2170   39.4550   20.2490 O.2       1 6ZO        -0.3718
      9 C30        19.0770   38.8910   21.0860 C.2       1 6ZO         0.3691
     10 O29        18.5990   38.5100   22.3080 O.3       1 6ZO        -0.1999
     11 C26        19.6800   37.9440   22.9520 C.ar      1 6ZO         0.1527
     12 C24        19.7490   37.4280   24.2280 C.ar      1 6ZO        -0.0219
     13 N31        20.3770   38.6150   20.9150 N.am      1 6ZO        -0.2038
     14 C28        20.7740   38.0330   22.1190 C.ar      1 6ZO         0.1110
     15 C27        22.0080   37.5470   22.5540 C.ar      1 6ZO        -0.0406
     16 C25        22.0960   36.9910   23.8240 C.ar      1 6ZO        -0.0660
     17 C23        20.9760   36.9320   24.6720 C.ar      1 6ZO         0.0096
     18 C21        21.0570   36.3290   26.0350 C.2       1 6ZO         0.1244
     19 O22        20.0680   36.2600   26.7470 O.2       1 6ZO        -0.3860
     20 C20        22.3700   35.7410   26.4990 C.3       1 6ZO         0.0600
     21 C17        22.1720   34.8750   27.7270 C.3       1 6ZO        -0.0167
     22 N16        23.2720   33.8740   27.9710 N.4       1 6ZO         0.2397
     23 C14        24.4770   34.3870   28.6900 C.3       1 6ZO        -0.0108
     24 C12        25.1790   33.1810   29.3170 C.3       1 6ZO         0.0759
     25 C15        23.6710   32.9780   26.8400 C.3       1 6ZO        -0.0108
     26 C13        24.3870   31.7660   27.4490 C.3       1 6ZO         0.0759
     27 N11        25.5220   32.1780   28.2950 N.am      1 6ZO        -0.2386
     28 C9         26.7600   31.6380   28.2130 C.2       1 6ZO         0.3245
     29 O10        27.6770   31.9490   28.9350 O.2       1 6ZO        -0.3773
     30 O8         26.8430   30.7330   27.2150 O.3       1 6ZO        -0.2505
     31 CL19       25.2680   26.0140   25.5950 Cl        1 6ZO        -0.0725
     32 CL18       29.8940   27.1220   23.0820 Cl        1 6ZO        -0.0725
     33 H1         28.7997   30.8449   26.4616 H         1 6ZO         0.0776
     34 H2         28.5944   29.8112   27.9162 H         1 6ZO         0.0776
     35 H3         27.4734   25.8043   23.8018 H         1 6ZO         0.0571
     36 H4         26.0904   28.3403   26.9691 H         1 6ZO         0.0564
     37 H5         29.7801   29.2265   24.9749 H         1 6ZO         0.0564
     38 H6         18.8750   37.4078   24.8689 H         1 6ZO         0.0562
     39 H7         20.9375   38.7877   20.1051 H         1 6ZO         0.2299
     40 H8         22.8807   37.6023   21.9133 H         1 6ZO         0.0492
     41 H9         23.0451   36.5956   24.1674 H         1 6ZO         0.0551
     42 H10        23.0642   36.5585   26.7433 H         1 6ZO         0.0535
     43 H11        22.7954   35.1278   25.6909 H         1 6ZO         0.0535
     44 H12        21.2267   34.3247   27.6104 H         1 6ZO         0.0840
     45 H13        22.1066   35.5342   28.6052 H         1 6ZO         0.0840
     46 H14        22.8478   33.2421   28.6319 H         1 6ZO         0.2036
     47 H15        24.1740   35.0961   29.4744 H         1 6ZO         0.0834
     48 H16        25.1523   34.8897   27.9821 H         1 6ZO         0.0834
     49 H17        24.5105   32.7224   30.0605 H         1 6ZO         0.0575
     50 H18        26.1011   33.5193   29.8123 H         1 6ZO         0.0575
     51 H19        24.3489   33.5120   26.1578 H         1 6ZO         0.0834
     52 H20        22.7786   32.6493   26.2873 H         1 6ZO         0.0834
     53 H21        24.7609   31.1261   26.6362 H         1 6ZO         0.0575
     54 H22        23.6713   31.1990   28.0624 H         1 6ZO         0.0575
@<TRIPOS>BOND
     1    1    3 1  
     2   30    1 1  
     3    4    2 ar 
     4    5    2 ar 
     5    3    6 ar 
     6    3    7 ar 
     7    6    4 ar 
     8    4   31 1  
     9    7    5 ar 
    10    5   32 1  
    11    9    8 2  
    12   10    9 1  
    13   13    9 am 
    14   11   10 1  
    15   12   11 ar 
    16   11   14 ar 
    17   17   12 ar 
    18   14   13 1  
    19   15   14 ar 
    20   16   15 ar 
    21   17   16 ar 
    22   18   17 1  
    23   18   19 2  
    24   20   18 1  
    25   21   20 1  
    26   22   21 1  
    27   23   22 1  
    28   25   22 1  
    29   24   23 1  
    30   27   24 1  
    31   26   25 1  
    32   27   26 1  
    33   28   27 am 
    34   28   29 2  
    35   28   30 1  
    36    1   33 1  
    37    1   34 1  
    38    2   35 1  
    39    6   36 1  
    40    7   37 1  
    41   12   38 1  
    42   13   39 1  
    43   15   40 1  
    44   16   41 1  
    45   20   42 1  
    46   20   43 1  
    47   21   44 1  
    48   21   45 1  
    49   22   46 1  
    50   23   47 1  
    51   23   48 1  
    52   24   49 1  
    53   24   50 1  
    54   25   51 1  
    55   25   52 1  
    56   26   53 1  
    57   26   54 1  
@<TRIPOS>SUBSTRUCTURE
     1 6ZO         1

