### 
### Created by X-TOOL on Wed Jan  1 15:39:35 2020
### 

@<TRIPOS>MOLECULE
5om2_ligand
   57    60     1     0     0
SMALL
GAST_HUCK


@<TRIPOS>ATOM
      1 C1          2.4900  -16.7200  -15.7290 C.2       1 DXT         0.0847
      2 O1          1.3800  -17.2280  -15.6950 O.2       1 DXT        -0.4000
      3 C2          2.9510  -15.8470  -16.7800 C.2       1 DXT         0.0991
      4 O21         2.7960  -15.6090  -19.1690 O.2       1 DXT        -0.4149
      5 C21         2.2770  -15.9480  -18.1140 C.2       1 DXT         0.1693
      6 N21         0.9900  -16.4680  -18.0760 N.am      1 DXT        -0.3091
      7 C3          4.0940  -15.1400  -16.7210 C.2       1 DXT         0.1701
      8 O3          4.7260  -14.6440  -17.7970 O.3       1 DXT        -0.2917
      9 C4          4.9860  -15.1600  -15.5100 C.3       1 DXT         0.0574
     10 N4          4.5100  -14.0630  -14.5120 N.4       1 DXT         0.2547
     11 C41         4.3930  -12.7280  -15.2270 C.3       1 DXT        -0.0405
     12 C42         5.5310  -13.8580  -13.3950 C.3       1 DXT        -0.0405
     13 C4A         4.9290  -16.5750  -14.8730 C.3       1 DXT         0.0456
     14 C5          5.7480  -17.5980  -15.7080 C.3       1 DXT         0.0840
     15 O5          7.0570  -17.1290  -15.8710 O.3       1 DXT        -0.3872
     16 C5A         5.7680  -18.9960  -15.0390 C.3       1 DXT         0.0809
     17 C6          6.3310  -20.1340  -15.9490 C.3       1 DXT         0.0201
     18 C61         7.6900  -19.7630  -16.5360 C.3       1 DXT        -0.0472
     19 C6A         6.3370  -21.4590  -15.2110 C.ar      1 DXT        -0.0232
     20 C7          7.3080  -22.4330  -15.4210 C.ar      1 DXT        -0.0644
     21 C8          7.2820  -23.6430  -14.7380 C.ar      1 DXT        -0.0724
     22 C9          6.2930  -23.9260  -13.8270 C.ar      1 DXT        -0.0336
     23 C10         5.3130  -22.9480  -13.6030 C.ar      1 DXT         0.1030
     24 O10         4.3580  -23.2730  -12.6830 O.3       1 DXT        -0.3291
     25 C6B         5.3330  -21.7340  -14.2860 C.ar      1 DXT         0.0785
     26 C11         4.3010  -20.7690  -13.9970 C.2       1 DXT         0.2108
     27 O11         3.3390  -21.0780  -13.2840 O.2       1 DXT        -0.3411
     28 C5B         4.4150  -19.4020  -14.5250 C.2       1 DXT         0.1144
     29 C12         3.4520  -18.5040  -14.1910 C.2       1 DXT         0.1149
     30 O12         2.3220  -18.7550  -13.5180 O.3       1 DXT        -0.3331
     31 C4B         3.4570  -17.0070  -14.5620 C.3       1 DXT         0.1217
     32 O13         3.0400  -16.2820  -13.4480 O.3       1 DXT        -0.4492
     33 H1          0.4669  -16.5703  -18.9221 H         1 DXT         0.1786
     34 H2          0.5863  -16.7401  -17.2025 H         1 DXT         0.1786
     35 H3          4.9668  -15.3563  -18.3777 H         1 DXT         0.2718
     36 H4          6.0215  -14.9440  -15.8118 H         1 DXT         0.1165
     37 H5          3.6197  -14.3302  -14.1222 H         1 DXT         0.2058
     38 H6          4.0566  -11.9594  -14.5157 H         1 DXT         0.0778
     39 H7          3.6640  -12.8135  -16.0463 H         1 DXT         0.0778
     40 H8          5.3736  -12.4443  -15.6367 H         1 DXT         0.0778
     41 H9          5.6588  -14.7979  -12.8380 H         1 DXT         0.0778
     42 H10         5.1747  -13.0727  -12.7121 H         1 DXT         0.0778
     43 H11         6.4950  -13.5558  -13.8302 H         1 DXT         0.0778
     44 H12         5.4350  -16.5035  -13.8989 H         1 DXT         0.0275
     45 H13         5.2795  -17.6938  -16.6986 H         1 DXT         0.0643
     46 H14         7.5555  -17.7560  -16.3817 H         1 DXT         0.2103
     47 H15         6.4392  -18.9156  -14.1712 H         1 DXT         0.0738
     48 H16         5.6396  -20.2444  -16.7974 H         1 DXT         0.0525
     49 H17         8.0531  -20.5862  -17.1689 H         1 DXT         0.0260
     50 H18         8.4057  -19.5849  -15.7199 H         1 DXT         0.0260
     51 H19         7.5908  -18.8506  -17.1424 H         1 DXT         0.0260
     52 H20         8.1028  -22.2438  -16.1335 H         1 DXT         0.0478
     53 H21         8.0565  -24.3774  -14.9275 H         1 DXT         0.0610
     54 H22         6.2710  -24.8727  -13.2995 H         1 DXT         0.0499
     55 H23         3.7425  -22.5542  -12.5997 H         1 DXT         0.2509
     56 H24         1.8273  -17.9499  -13.4205 H         1 DXT         0.2504
     57 H25         2.1465  -16.5217  -13.2319 H         1 DXT         0.1840
@<TRIPOS>BOND
     1    1    2 2  
     2    1    3 1  
     3    1   31 1  
     4    3    5 1  
     5    3    7 2  
     6    5    4 2  
     7    5    6 am 
     8    7    8 1  
     9    7    9 1  
    10    9   10 1  
    11    9   13 1  
    12   10   11 1  
    13   10   12 1  
    14   13   14 1  
    15   13   31 1  
    16   14   15 1  
    17   14   16 1  
    18   16   17 1  
    19   16   28 1  
    20   17   18 1  
    21   17   19 1  
    22   19   20 ar 
    23   19   25 ar 
    24   20   21 ar 
    25   21   22 ar 
    26   22   23 ar 
    27   23   24 1  
    28   23   25 ar 
    29   25   26 1  
    30   26   27 2  
    31   26   28 1  
    32   28   29 2  
    33   29   30 1  
    34   29   31 1  
    35   31   32 1  
    36    6   33 1  
    37    6   34 1  
    38    8   35 1  
    39    9   36 1  
    40   10   37 1  
    41   11   38 1  
    42   11   39 1  
    43   11   40 1  
    44   12   41 1  
    45   12   42 1  
    46   12   43 1  
    47   13   44 1  
    48   14   45 1  
    49   15   46 1  
    50   16   47 1  
    51   17   48 1  
    52   18   49 1  
    53   18   50 1  
    54   18   51 1  
    55   20   52 1  
    56   21   53 1  
    57   22   54 1  
    58   24   55 1  
    59   30   56 1  
    60   32   57 1  
@<TRIPOS>SUBSTRUCTURE
     1 DXT         1

