### 
### Created by X-TOOL on Wed Jan  1 15:39:36 2020
### 

@<TRIPOS>MOLECULE
5om3_ligand
   59    62     1     0     0
SMALL
GAST_HUCK


@<TRIPOS>ATOM
      1 C1         -2.2350   16.2960  -15.9050 C.2       1 DXT         0.1171
      2 O1         -1.1540   16.8630  -15.8970 O.2       1 DXT        -0.3681
      3 C2         -2.6350   15.3230  -16.9100 C.3       1 DXT         0.1392
      4 O21        -0.6960   15.8140  -18.3020 O.2       1 DXT        -0.3935
      5 C21        -1.7700   15.2330  -18.1410 C.2       1 DXT         0.1956
      6 N21        -2.3130   14.4090  -19.1210 N.am      1 DXT        -0.2987
      7 C3         -3.8360   14.7100  -16.9710 C.3       1 DXT         0.1295
      8 O3         -4.4710   14.4660  -18.1380 O.3       1 DXT        -0.3814
      9 C4         -4.8510   14.7920  -15.8490 C.3       1 DXT         0.0042
     10 N4         -4.8970   13.4560  -14.9910 N.4       1 DXT         0.2344
     11 C41        -3.6670   13.2490  -14.1580 C.3       1 DXT        -0.0430
     12 C42        -5.0070   12.2640  -15.9060 C.3       1 DXT        -0.0430
     13 C4A        -4.7090   16.1440  -15.0380 C.3       1 DXT         0.0282
     14 C5         -5.6230   17.1970  -15.7580 C.3       1 DXT         0.0809
     15 O5         -6.9240   16.6820  -15.8710 O.3       1 DXT        -0.3874
     16 C5A        -5.6150   18.6220  -15.1100 C.3       1 DXT         0.0809
     17 C6         -6.1680   19.7760  -16.0290 C.3       1 DXT         0.0202
     18 C61        -7.5550   19.5120  -16.5630 C.3       1 DXT        -0.0472
     19 C6A        -6.1380   21.1000  -15.3240 C.ar      1 DXT        -0.0232
     20 C7         -7.0950   22.0740  -15.5770 C.ar      1 DXT        -0.0644
     21 C8         -7.0680   23.3110  -14.9280 C.ar      1 DXT        -0.0724
     22 C9         -6.0880   23.6060  -14.0040 C.ar      1 DXT        -0.0336
     23 C10        -5.1150   22.6220  -13.7410 C.ar      1 DXT         0.1030
     24 O10        -4.1780   22.9760  -12.8190 O.3       1 DXT        -0.3291
     25 C6B        -5.1340   21.3760  -14.3950 C.ar      1 DXT         0.0786
     26 C11        -4.1080   20.3770  -14.0960 C.2       1 DXT         0.2111
     27 O11        -3.1300   20.6440  -13.3730 O.2       1 DXT        -0.3409
     28 C5B        -4.2390   19.0230  -14.6620 C.2       1 DXT         0.1149
     29 C12        -3.2070   18.1620  -14.4760 C.2       1 DXT         0.1164
     30 O12        -2.1110   18.4150  -13.7530 O.3       1 DXT        -0.3328
     31 C4B        -3.2190   16.6370  -14.7600 C.3       1 DXT         0.1295
     32 O13        -2.7600   16.0400  -13.5910 O.3       1 DXT        -0.4488
     33 H1         -2.1558   14.4826  -16.3864 H         1 DXT         0.0771
     34 H2         -1.8274   14.2719  -19.9844 H         1 DXT         0.1816
     35 H3         -3.1890   13.9536  -18.9623 H         1 DXT         0.1816
     36 H4         -3.4586   13.6954  -16.7757 H         1 DXT         0.0702
     37 H5         -4.6349   15.2876  -18.5859 H         1 DXT         0.2105
     38 H6         -5.8357   14.8519  -16.3355 H         1 DXT         0.0870
     39 H7         -5.7016   13.4942  -14.3850 H         1 DXT         0.2031
     40 H8         -3.7617   12.3111  -13.5910 H         1 DXT         0.0777
     41 H9         -3.5519   14.0902  -13.4586 H         1 DXT         0.0777
     42 H10        -2.7853   13.1937  -14.8134 H         1 DXT         0.0777
     43 H11        -5.8991   12.3701  -16.5407 H         1 DXT         0.0777
     44 H12        -5.0918   11.3468  -15.3048 H         1 DXT         0.0777
     45 H13        -4.1105   12.2049  -16.5406 H         1 DXT         0.0777
     46 H14        -5.1446   15.9652  -14.0439 H         1 DXT         0.0236
     47 H15        -5.2274   17.3183  -16.7772 H         1 DXT         0.0641
     48 H16        -7.4786   17.3185  -16.3068 H         1 DXT         0.2102
     49 H17        -6.2620   18.5680  -14.2221 H         1 DXT         0.0739
     50 H18        -5.4939   19.8448  -16.8955 H         1 DXT         0.0526
     51 H19        -7.8724   20.3564  -17.1925 H         1 DXT         0.0260
     52 H20        -8.2557   19.3974  -15.7229 H         1 DXT         0.0260
     53 H21        -7.5477   18.5900  -17.1628 H         1 DXT         0.0260
     54 H22        -7.8813   21.8698  -16.2947 H         1 DXT         0.0478
     55 H23        -7.8286   24.0496  -15.1542 H         1 DXT         0.0610
     56 H24        -6.0670   24.5637  -13.4966 H         1 DXT         0.0499
     57 H25        -3.5643   22.2603  -12.7020 H         1 DXT         0.2509
     58 H26        -1.5371   17.6583  -13.7746 H         1 DXT         0.2506
     59 H27        -1.8716   16.3284  -13.4172 H         1 DXT         0.1839
@<TRIPOS>BOND
     1    1    2 2  
     2    1    3 1  
     3    1   31 1  
     4    3    5 1  
     5    3    7 1  
     6    5    4 2  
     7    5    6 am 
     8    7    8 1  
     9    7    9 1  
    10    9   10 1  
    11    9   13 1  
    12   10   11 1  
    13   10   12 1  
    14   13   14 1  
    15   13   31 1  
    16   14   15 1  
    17   14   16 1  
    18   16   17 1  
    19   16   28 1  
    20   17   18 1  
    21   17   19 1  
    22   19   20 ar 
    23   19   25 ar 
    24   20   21 ar 
    25   21   22 ar 
    26   22   23 ar 
    27   23   24 1  
    28   23   25 ar 
    29   25   26 1  
    30   26   27 2  
    31   26   28 1  
    32   28   29 2  
    33   29   30 1  
    34   29   31 1  
    35   31   32 1  
    36    3   33 1  
    37    6   34 1  
    38    6   35 1  
    39    7   36 1  
    40    8   37 1  
    41    9   38 1  
    42   10   39 1  
    43   11   40 1  
    44   11   41 1  
    45   11   42 1  
    46   12   43 1  
    47   12   44 1  
    48   12   45 1  
    49   13   46 1  
    50   14   47 1  
    51   15   48 1  
    52   16   49 1  
    53   17   50 1  
    54   18   51 1  
    55   18   52 1  
    56   18   53 1  
    57   20   54 1  
    58   21   55 1  
    59   22   56 1  
    60   24   57 1  
    61   30   58 1  
    62   32   59 1  
@<TRIPOS>SUBSTRUCTURE
     1 DXT         1

