### 
### Created by X-TOOL on Wed Jan  1 15:39:36 2020
### 

@<TRIPOS>MOLECULE
5om7_ligand
   69    73     1     0     0
SMALL
GAST_HUCK


@<TRIPOS>ATOM
      1 C1        -23.0100    6.0270    2.0460 C.ar      1 DM2        -0.0496
      2 C2        -23.3420    7.2830    2.5210 C.ar      1 DM2        -0.0604
      3 C3        -22.3470    8.1920    2.8210 C.ar      1 DM2        -0.0224
      4 C4        -21.0010    7.8280    2.6520 C.ar      1 DM2         0.1154
      5 O4        -19.9820    8.6880    2.9480 O.3       1 DM2        -0.3146
      6 C5        -20.6520    6.5610    2.2070 C.ar      1 DM2         0.0759
      7 C6        -19.2420    6.1520    1.9920 C.2       1 DM2         0.1471
      8 O6        -18.2930    6.8830    2.2400 O.2       1 DM2        -0.3797
      9 C7        -18.9980    4.7980    1.4520 C.ar      1 DM2         0.0568
     10 C8        -17.6710    4.3700    1.2300 C.ar      1 DM2         0.1006
     11 O8        -16.6530    5.2290    1.5280 O.3       1 DM2        -0.3380
     12 C9        -17.3880    3.0870    0.7310 C.ar      1 DM2         0.0212
     13 C10       -15.9330    2.6830    0.4750 C.3       1 DM2         0.0945
     14 O10       -15.1260    2.6260    1.6560 O.3       1 DM2        -0.3376
     15 C11       -15.8500    1.3830   -0.4300 C.3       1 DM2         0.0174
     16 C12       -16.8570    0.3320    0.0860 C.3       1 DM2         0.1420
     17 O12       -16.5830    0.0860    1.4530 O.3       1 DM2        -0.3840
     18 C13       -16.7270   -0.9940   -0.6510 C.2       1 DM2         0.1854
     19 O13       -16.6340   -1.0680   -1.8510 O.2       1 DM2        -0.3270
     20 C14       -16.7540   -2.2230    0.2220 C.3       1 DM2         0.1214
     21 O14       -17.0400   -3.2780   -0.6510 O.3       1 DM2        -0.3762
     22 C15       -18.2750    0.8670   -0.1370 C.3       1 DM2         0.0125
     23 C16       -18.4470    2.2290    0.4090 C.ar      1 DM2        -0.0032
     24 C17       -19.7730    2.6580    0.6260 C.ar      1 DM2         0.0984
     25 O17       -20.7890    1.7500    0.3020 O.3       1 DM2        -0.3380
     26 C18       -20.0470    3.9370    1.1400 C.ar      1 DM2         0.0586
     27 C19       -21.4330    4.3740    1.3340 C.2       1 DM2         0.1504
     28 O19       -22.3530    3.6240    1.0610 O.2       1 DM2        -0.3730
     29 C20       -21.6980    5.6940    1.8610 C.ar      1 DM2         0.0393
     30 C21       -20.4350   10.0470    3.0820 C.3       1 DM2         0.0613
     31 C1'       -13.9090    3.3430    1.5490 C.3       1 DM2         0.1670
     32 C2'       -13.3180    3.5210    2.9670 C.3       1 DM2         0.0440
     33 C3'       -12.8200    2.1780    3.4970 C.3       1 DM2         0.0093
     34 N3'       -12.1250    2.3870    4.7590 N.4       1 DM2         0.2228
     35 C4'       -11.8440    1.5380    2.4550 C.3       1 DM2         0.1234
     36 O4'       -10.8100    2.4710    2.1920 O.3       1 DM2        -0.3836
     37 C5'       -12.6750    1.3190    1.2100 C.3       1 DM2         0.0900
     38 O5'       -13.0290    2.6020    0.6980 O.3       1 DM2        -0.3452
     39 C6'       -11.9540    0.5450    0.1300 C.3       1 DM2        -0.0359
     40 H1        -23.7895    5.3081    1.8209 H         1 DM2         0.0591
     41 H2        -24.3828    7.5535    2.6576 H         1 DM2         0.0636
     42 H3        -22.6031    9.1805    3.1847 H         1 DM2         0.0591
     43 H4        -16.7445    6.0191    1.0086 H         1 DM2         0.2454
     44 H5        -15.5007    3.4942   -0.1292 H         1 DM2         0.0731
     45 H6        -14.8320    0.9688   -0.3845 H         1 DM2         0.0323
     46 H7        -16.0934    1.6442   -1.4704 H         1 DM2         0.0323
     47 H8        -15.6956   -0.2410    1.5431 H         1 DM2         0.2078
     48 H9        -17.5354   -2.1344    0.9911 H         1 DM2         0.0786
     49 H10       -15.7782   -2.3752    0.7064 H         1 DM2         0.0786
     50 H11       -16.3615   -3.3320   -1.3137 H         1 DM2         0.2129
     51 H12       -18.9902    0.1935    0.3579 H         1 DM2         0.0410
     52 H13       -18.4799    0.8895   -1.2175 H         1 DM2         0.0410
     53 H14       -21.6340    2.1425    0.4875 H         1 DM2         0.2454
     54 H15       -19.5798   10.6968    3.3194 H         1 DM2         0.0581
     55 H16       -21.1775   10.1079    3.8913 H         1 DM2         0.0581
     56 H17       -20.8939   10.3754    2.1378 H         1 DM2         0.0581
     57 H18       -14.0942    4.3330    1.1068 H         1 DM2         0.0913
     58 H19       -14.0956    3.9123    3.6394 H         1 DM2         0.0370
     59 H20       -12.4783    4.2303    2.9254 H         1 DM2         0.0370
     60 H21       -13.6759    1.5059    3.6573 H         1 DM2         0.0878
     61 H22       -11.7950    1.5021    5.1114 H         1 DM2         0.1998
     62 H23       -12.7575    2.7997    5.4266 H         1 DM2         0.1998
     63 H24       -11.3412    3.0038    4.6129 H         1 DM2         0.1998
     64 H25       -11.4249    0.5900    2.8234 H         1 DM2         0.0676
     65 H26       -11.1871    3.2695    1.8415 H         1 DM2         0.2102
     66 H27       -13.5852    0.7664    1.4860 H         1 DM2         0.0622
     67 H28       -12.6167    0.4253   -0.7398 H         1 DM2         0.0255
     68 H29       -11.6720   -0.4460    0.5152 H         1 DM2         0.0255
     69 H30       -11.0488    1.0925   -0.1714 H         1 DM2         0.0255
@<TRIPOS>BOND
     1    1    2 ar 
     2    1   29 ar 
     3    2    3 ar 
     4    3    4 ar 
     5    4    5 1  
     6    4    6 ar 
     7    5   30 1  
     8    6    7 1  
     9    6   29 ar 
    10    7    8 2  
    11    7    9 1  
    12    9   10 ar 
    13    9   26 ar 
    14   10   11 1  
    15   10   12 ar 
    16   12   13 1  
    17   12   23 ar 
    18   13   14 1  
    19   13   15 1  
    20   14   31 1  
    21   15   16 1  
    22   16   17 1  
    23   16   18 1  
    24   16   22 1  
    25   18   19 2  
    26   18   20 1  
    27   20   21 1  
    28   22   23 1  
    29   23   24 ar 
    30   24   25 1  
    31   24   26 ar 
    32   26   27 1  
    33   27   28 2  
    34   27   29 1  
    35   31   32 1  
    36   31   38 1  
    37   32   33 1  
    38   33   34 1  
    39   33   35 1  
    40   35   36 1  
    41   35   37 1  
    42   37   38 1  
    43   37   39 1  
    44    1   40 1  
    45    2   41 1  
    46    3   42 1  
    47   11   43 1  
    48   13   44 1  
    49   15   45 1  
    50   15   46 1  
    51   17   47 1  
    52   20   48 1  
    53   20   49 1  
    54   21   50 1  
    55   22   51 1  
    56   22   52 1  
    57   25   53 1  
    58   30   54 1  
    59   30   55 1  
    60   30   56 1  
    61   31   57 1  
    62   32   58 1  
    63   32   59 1  
    64   33   60 1  
    65   34   61 1  
    66   34   62 1  
    67   34   63 1  
    68   35   64 1  
    69   36   65 1  
    70   37   66 1  
    71   39   67 1  
    72   39   68 1  
    73   39   69 1  
@<TRIPOS>SUBSTRUCTURE
     1 DM2         1

