### 
### Created by X-TOOL on Mon Sep 10 21:13:31 2018
### 

@<TRIPOS>MOLECULE
5om9_ligand
   26    25     1     0     0
SMALL
GAST_HUCK


@<TRIPOS>ATOM
      1 O01        70.6030  -52.1920   11.9450 O.co2     1 O2S        -0.5687
      2 C02        71.3280  -51.2780   12.3360 C.2       1 O2S         0.0389
      3 O03        71.9330  -50.4620   11.5860 O.co2     1 O2S        -0.5687
      4 C04        71.3280  -51.2100   13.8310 C.3       1 O2S         0.0233
      5 C05        72.6730  -51.4540   14.5040 C.3       1 O2S        -0.0353
      6 C06        73.9960  -51.6320   13.7950 C.3       1 O2S        -0.0449
      7 C07        75.1670  -51.6630   14.7950 C.3       1 O2S        -0.0626
      8 C08        74.1570  -52.8210   12.8320 C.3       1 O2S        -0.0626
      9 C09        70.7060  -49.8670   14.3040 C.3       1 O2S         0.0137
     10 S10        69.6030  -49.0060   13.1900 S.3       1 O2S        -0.1731
     11 C11        69.8140  -50.1740   15.5290 C.3       1 O2S        -0.0518
     12 H1         70.6636  -52.0159   14.1761 H         1 O2S         0.0477
     13 H2         72.5375  -52.3697   15.0983 H         1 O2S         0.0288
     14 H3         72.8190  -50.5974   15.1784 H         1 O2S         0.0288
     15 H4         74.1171  -50.7289   13.1788 H         1 O2S         0.0297
     16 H5         76.1126  -51.7933   14.2483 H         1 O2S         0.0232
     17 H6         75.0296  -52.5005   15.4947 H         1 O2S         0.0232
     18 H7         75.1952  -50.7173   15.3561 H         1 O2S         0.0232
     19 H8         73.3301  -52.8198   12.1066 H         1 O2S         0.0232
     20 H9         74.1418  -53.7606   13.4037 H         1 O2S         0.0232
     21 H10        75.1141  -52.7326   12.2971 H         1 O2S         0.0232
     22 H11        71.5291  -49.1904   14.5773 H         1 O2S         0.0427
     23 H12        69.2795  -48.1579   13.6282 H         1 O2S         0.1020
     24 H13        69.3557  -49.2421   15.8916 H         1 O2S         0.0241
     25 H14        70.4276  -50.6158   16.3279 H         1 O2S         0.0241
     26 H15        69.0240  -50.8824   15.2391 H         1 O2S         0.0241
@<TRIPOS>BOND
     1    1    2 ar 
     2    2    3 ar 
     3    2    4 1  
     4    4    5 1  
     5    4    9 1  
     6    5    6 1  
     7    6    7 1  
     8    6    8 1  
     9    9   10 1  
    10    9   11 1  
    11    4   12 1  
    12    5   13 1  
    13    5   14 1  
    14    6   15 1  
    15    7   16 1  
    16    7   17 1  
    17    7   18 1  
    18    8   19 1  
    19    8   20 1  
    20    8   21 1  
    21    9   22 1  
    22   10   23 1  
    23   11   24 1  
    24   11   25 1  
    25   11   26 1  
@<TRIPOS>SUBSTRUCTURE
     1 O2S         1

