### 
### Created by X-TOOL on Mon Sep 10 21:13:33 2018
### 

@<TRIPOS>MOLECULE
5one_ligand
   69    73     1     0     0
SMALL
GAST_HUCK


@<TRIPOS>ATOM
      1 C4         28.4800  -10.4380   -4.8470 C.ar      1 9YQ         0.0789
      2 C5         30.6400   -9.5250   -5.6940 C.3       1 9YQ         0.0363
      3 C6         29.5150   -8.6590   -3.6750 C.ar      1 9YQ         0.1628
      4 N1         30.6820   -8.6720   -3.0130 N.ar      1 9YQ        -0.2484
      5 C7         30.7380   -8.0050   -1.8490 C.ar      1 9YQ         0.1765
      6 C8         33.2070   -8.5700   -1.4160 C.ar      1 9YQ         0.0481
      7 N2         31.9300   -7.9870   -1.1640 N.pl3     1 9YQ        -0.2605
      8 C9         34.2550   -8.3340   -0.5290 C.ar      1 9YQ        -0.0511
      9 C10        35.5020   -8.8980   -0.7520 C.ar      1 9YQ        -0.0498
     10 C11        35.7210   -9.7010   -1.8660 C.ar      1 9YQ         0.0547
     11 C12        38.2070   -9.9450   -1.8400 C.2       1 9YQ         0.2179
     12 N3         36.9470  -10.3650   -2.1260 N.am      1 9YQ        -0.2418
     13 C13        39.2730  -10.9870   -1.9590 C.ar      1 9YQ         0.0393
     14 C14        39.1530  -12.1610   -1.2220 C.ar      1 9YQ        -0.0550
     15 C15        40.0620  -13.1920   -1.3790 C.ar      1 9YQ        -0.0350
     16 N4         42.0220  -14.1370   -2.5260 N.am      1 9YQ        -0.2306
     17 O2         25.3790   -8.6230   -5.0320 O.2       1 9YQ        -0.3768
     18 C27        26.4780   -8.8380   -4.5550 C.2       1 9YQ         0.2259
     19 C3         27.1020  -10.1920   -4.7100 C.ar      1 9YQ         0.0727
     20 C2         26.2180  -11.2760   -4.7470 C.ar      1 9YQ        -0.0494
     21 N6         27.1320   -7.8460   -3.8500 N.am      1 9YQ        -0.2232
     22 C26        26.4290   -6.5630   -3.8000 C.3       1 9YQ         0.0412
     23 C25        28.3790   -7.9700   -3.1690 C.ar      1 9YQ         0.1299
     24 N          29.4270   -9.3730   -4.8840 N.pl3     1 9YQ        -0.2478
     25 C28        28.9340  -11.7510   -4.9750 C.ar      1 9YQ        -0.0386
     26 C29        28.0310  -12.8000   -4.9990 C.ar      1 9YQ        -0.0654
     27 C1         26.6650  -12.5830   -4.9040 C.ar      1 9YQ        -0.0517
     28 C          25.6880  -13.7250   -5.0340 C.3       1 9YQ        -0.0355
     29 C24        28.5650   -7.3430   -1.9370 C.ar      1 9YQ         0.0199
     30 N5         29.7290   -7.3350   -1.2710 N.ar      1 9YQ        -0.2883
     31 C23        33.4340   -9.3680   -2.5330 C.ar      1 9YQ        -0.0511
     32 C22        34.6810   -9.9220   -2.7580 C.ar      1 9YQ        -0.0498
     33 O1         38.4810   -8.7920   -1.5120 O.2       1 9YQ        -0.3820
     34 C21        40.3490  -10.8550   -2.8360 C.ar      1 9YQ        -0.0550
     35 C20        41.2620  -11.8840   -2.9960 C.ar      1 9YQ        -0.0350
     36 C16        41.1140  -13.0720   -2.2830 C.ar      1 9YQ         0.0719
     37 C17        42.0360  -15.3770   -1.9690 C.2       1 9YQ         0.2052
     38 O          41.5990  -15.6370   -0.8490 O.2       1 9YQ        -0.3839
     39 C18        42.6420  -16.4270   -2.8640 C.3       1 9YQ         0.0408
     40 C19        44.1080  -16.7250   -2.5390 C.3       1 9YQ        -0.0477
     41 H1         30.4058  -10.1032   -6.6000 H         1 9YQ         0.0533
     42 H2         31.4073  -10.0539   -5.1096 H         1 9YQ         0.0533
     43 H3         31.0167   -8.5319   -5.9801 H         1 9YQ         0.0533
     44 H4         31.8933   -7.4414   -0.2911 H         1 9YQ         0.2098
     45 H5         34.0948   -7.7062    0.3401 H         1 9YQ         0.0499
     46 H6         36.3104   -8.7119   -0.0542 H         1 9YQ         0.0478
     47 H7         36.8749  -11.2547   -2.5768 H         1 9YQ         0.2212
     48 H8         38.3374  -12.2691   -0.5162 H         1 9YQ         0.0629
     49 H9         39.9545  -14.0987   -0.7947 H         1 9YQ         0.0517
     50 H10        42.7438  -13.9506   -3.1926 H         1 9YQ         0.2281
     51 H11        25.1542  -11.0914   -4.6505 H         1 9YQ         0.0578
     52 H12        25.4918   -6.6360   -4.3712 H         1 9YQ         0.0542
     53 H13        27.0649   -5.7792   -4.2373 H         1 9YQ         0.0542
     54 H14        26.2020   -6.3098   -2.7539 H         1 9YQ         0.0542
     55 H15        29.9965  -11.9502   -5.0559 H         1 9YQ         0.0530
     56 H16        28.4005  -13.8146   -5.0943 H         1 9YQ         0.0566
     57 H17        24.6617  -13.3432   -4.9292 H         1 9YQ         0.0370
     58 H18        25.8851  -14.4676   -4.2468 H         1 9YQ         0.0370
     59 H19        25.8047  -14.1969   -6.0208 H         1 9YQ         0.0370
     60 H20        27.7189   -6.8322   -1.4917 H         1 9YQ         0.0698
     61 H21        32.6274   -9.5569   -3.2321 H         1 9YQ         0.0499
     62 H22        34.8474  -10.5334   -3.6376 H         1 9YQ         0.0478
     63 H23        40.4722   -9.9368   -3.3988 H         1 9YQ         0.0629
     64 H24        42.0954  -11.7647   -3.6789 H         1 9YQ         0.0517
     65 H25        42.5790  -16.0774   -3.9051 H         1 9YQ         0.0505
     66 H26        42.0638  -17.3563   -2.7536 H         1 9YQ         0.0505
     67 H27        44.4864  -17.4961   -3.2261 H         1 9YQ         0.0254
     68 H28        44.1879  -17.0859   -1.5030 H         1 9YQ         0.0254
     69 H29        44.7031  -15.8071   -2.6544 H         1 9YQ         0.0254
@<TRIPOS>BOND
     1   19    1 ar 
     2    1   24 1  
     3    1   25 ar 
     4   24    2 1  
     5    3    4 ar 
     6    3   23 ar 
     7   24    3 1  
     8    4    5 ar 
     9    5    7 1  
    10    5   30 ar 
    11    7    6 1  
    12    6    8 ar 
    13    6   31 ar 
    14    8    9 ar 
    15    9   10 ar 
    16   10   12 1  
    17   10   32 ar 
    18   12   11 am 
    19   11   13 1  
    20   11   33 2  
    21   13   14 ar 
    22   13   34 ar 
    23   14   15 ar 
    24   15   36 ar 
    25   36   16 1  
    26   16   37 am 
    27   18   17 2  
    28   18   19 1  
    29   18   21 am 
    30   19   20 ar 
    31   20   27 ar 
    32   21   22 1  
    33   21   23 1  
    34   23   29 ar 
    35   25   26 ar 
    36   26   27 ar 
    37   27   28 1  
    38   29   30 ar 
    39   31   32 ar 
    40   34   35 ar 
    41   35   36 ar 
    42   37   38 2  
    43   37   39 1  
    44   39   40 1  
    45    2   41 1  
    46    2   42 1  
    47    2   43 1  
    48    7   44 1  
    49    8   45 1  
    50    9   46 1  
    51   12   47 1  
    52   14   48 1  
    53   15   49 1  
    54   16   50 1  
    55   20   51 1  
    56   22   52 1  
    57   22   53 1  
    58   22   54 1  
    59   25   55 1  
    60   26   56 1  
    61   28   57 1  
    62   28   58 1  
    63   28   59 1  
    64   29   60 1  
    65   31   61 1  
    66   32   62 1  
    67   34   63 1  
    68   35   64 1  
    69   39   65 1  
    70   39   66 1  
    71   40   67 1  
    72   40   68 1  
    73   40   69 1  
@<TRIPOS>SUBSTRUCTURE
     1 9YQ         1

