### 
### Created by X-TOOL on Mon Sep 10 21:13:31 2018
### 

@<TRIPOS>MOLECULE
5oot_ligand
   82    87     1     0     0
SMALL
GAST_HUCK


@<TRIPOS>ATOM
      1 C4          4.5650   -4.8070   18.8250 C.ar      1 4K4         0.1645
      2 C5          5.5930   -3.8280   18.9150 C.ar      1 4K4         0.1307
      3 C6          5.3540   -2.6260   19.6050 C.ar      1 4K4         0.0207
      4 N1          4.1580   -2.4810   20.1560 N.ar      1 4K4        -0.2872
      5 N3          3.3970   -4.6060   19.4100 N.ar      1 4K4        -0.2472
      6 CAU        -3.1120  -11.2210   24.1140 C.3       1 4K4         0.0097
      7 CAS        -2.9520  -12.7400   24.4020 C.3       1 4K4         0.0092
      8 NBL        -4.2250  -13.4830   24.2090 N.4       1 4K4         0.2405
      9 CAB        -4.0210  -14.9430   24.3350 C.3       1 4K4        -0.0427
     10 CAT        -4.9300  -13.1520   22.9370 C.3       1 4K4         0.0092
     11 CAV        -5.0090  -11.6320   22.6380 C.3       1 4K4         0.0097
     12 NBN        -3.6830  -11.0060   22.7390 N.4       1 4K4         0.2449
     13 CBK        -3.5350   -9.7150   21.9960 C.3       1 4K4        -0.0167
     14 CAP        -4.7390   -8.7360   22.0750 C.3       1 4K4         0.0107
     15 CAR        -4.5560   -7.5600   21.1550 C.3       1 4K4         0.0382
     16 CAO        -2.3210   -8.9580   22.4890 C.3       1 4K4         0.0107
     17 CAQ        -1.9920   -7.7650   21.6130 C.3       1 4K4         0.0382
     18 NBM        -3.1750   -6.9720   21.1440 N.am      1 4K4        -0.2739
     19 CBA        -2.9970   -5.6990   20.7050 C.2       1 4K4         0.1959
     20 OAE        -3.9760   -4.9940   20.5200 O.2       1 4K4        -0.3902
     21 CBB        -1.7300   -5.0910   20.6340 C.ar      1 4K4         0.0287
     22 CAN        -1.3760   -4.2270   21.6560 C.ar      1 4K4        -0.0230
     23 CBE        -0.1270   -3.6190   21.6340 C.ar      1 4K4         0.1199
     24 OAZ         0.3510   -2.7540   22.5880 O.3       1 4K4        -0.3244
     25 CAA        -0.1200   -2.9400   23.9260 C.3       1 4K4         0.0570
     26 CAI        -0.8250   -5.3330   19.6000 C.ar      1 4K4        -0.0628
     27 CAJ         0.4380   -4.7250   19.5730 C.ar      1 4K4        -0.0406
     28 CBC         0.8010   -3.8470   20.6110 C.ar      1 4K4         0.0980
     29 NAY         2.0090   -3.1440   20.6980 N.pl3     1 4K4        -0.2525
     30 C2          3.2190   -3.4500   20.0660 C.ar      1 4K4         0.1790
     31 NBP         4.7000   -5.9270   18.1610 N.pl3     1 4K4        -0.2441
     32 CAD         3.7930   -7.0180   18.5180 C.3       1 4K4         0.0374
     33 CBH         5.0120   -5.8700   16.7780 C.ar      1 4K4         0.0853
     34 CAL         4.1130   -6.3790   15.8210 C.ar      1 4K4        -0.0326
     35 CAH         4.4240   -6.3690   14.4690 C.ar      1 4K4        -0.0674
     36 CAG         5.6200   -5.8130   14.0190 C.ar      1 4K4        -0.0679
     37 CAK         6.5040   -5.2540   14.9300 C.ar      1 4K4        -0.0510
     38 CBG         6.2050   -5.3090   16.3060 C.ar      1 4K4         0.0789
     39 CBF         7.1880   -4.7340   17.2420 C.2       1 4K4         0.2275
     40 OAF         8.3730   -4.9180   16.9400 O.2       1 4K4        -0.3767
     41 NBO         6.8680   -4.0110   18.3550 N.am      1 4K4        -0.2228
     42 CAC         7.9890   -3.3770   19.0550 C.3       1 4K4         0.0413
     43 H1          6.1121   -1.8551   19.6823 H         1 4K4         0.0700
     44 H2         -2.1277  -10.7342   24.1780 H         1 4K4         0.0868
     45 H3         -3.7886  -10.7797   24.8606 H         1 4K4         0.0868
     46 H4         -2.6194  -12.8707   25.4423 H         1 4K4         0.0868
     47 H5         -2.1938  -13.1524   23.7200 H         1 4K4         0.0868
     48 H6         -4.8372  -13.2031   24.9592 H         1 4K4         0.2035
     49 H7         -4.9799  -15.4613   24.1871 H         1 4K4         0.0778
     50 H8         -3.6304  -15.1735   25.3371 H         1 4K4         0.0778
     51 H9         -3.3012  -15.2797   23.5744 H         1 4K4         0.0778
     52 H10        -5.9550  -13.5467   22.9965 H         1 4K4         0.0868
     53 H11        -4.3965  -13.6404   22.1083 H         1 4K4         0.0868
     54 H12        -5.6869  -11.1575   23.3627 H         1 4K4         0.0868
     55 H13        -5.3994  -11.4853   21.6201 H         1 4K4         0.0868
     56 H14        -3.1011  -11.6110   22.1809 H         1 4K4         0.2040
     57 H15        -3.3850   -9.9716   20.9369 H         1 4K4         0.0852
     58 H16        -4.8346   -8.3700   23.1079 H         1 4K4         0.0339
     59 H17        -5.6556   -9.2732   21.7900 H         1 4K4         0.0339
     60 H18        -5.2596   -6.7727   21.4634 H         1 4K4         0.0523
     61 H19        -4.7961   -7.8862   20.1323 H         1 4K4         0.0523
     62 H20        -1.4579   -9.6399   22.4967 H         1 4K4         0.0339
     63 H21        -2.5168   -8.6028   23.5115 H         1 4K4         0.0339
     64 H22        -1.4550   -8.1319   20.7259 H         1 4K4         0.0523
     65 H23        -1.3370   -7.0923   22.1860 H         1 4K4         0.0523
     66 H24        -2.0674   -4.0265   22.4665 H         1 4K4         0.0553
     67 H25         0.3377   -2.1865   24.5839 H         1 4K4         0.0573
     68 H26         0.1545   -3.9465   24.2748 H         1 4K4         0.0573
     69 H27        -1.2142   -2.8299   23.9482 H         1 4K4         0.0573
     70 H28        -1.1051   -6.0071   18.7986 H         1 4K4         0.0548
     71 H29         1.1272   -4.9290   18.7616 H         1 4K4         0.0514
     72 H30         2.0063   -2.3053   21.2960 H         1 4K4         0.2125
     73 H31         3.6005   -6.9953   19.6008 H         1 4K4         0.0535
     74 H32         4.2524   -7.9802   18.2474 H         1 4K4         0.0535
     75 H33         2.8442   -6.8989   17.9743 H         1 4K4         0.0535
     76 H34         3.1621   -6.7854   16.1462 H         1 4K4         0.0545
     77 H35         3.7297   -6.7980   13.7555 H         1 4K4         0.0622
     78 H36         5.8584   -5.8174   12.9615 H         1 4K4         0.0529
     79 H37         7.4161   -4.7794   14.5868 H         1 4K4         0.0638
     80 H38         7.6112   -2.8264   19.9291 H         1 4K4         0.0542
     81 H39         8.4988   -2.6792   18.3744 H         1 4K4         0.0542
     82 H40         8.6982   -4.1496   19.3869 H         1 4K4         0.0542
@<TRIPOS>BOND
     1    1    2 ar 
     2    5    1 ar 
     3    1   31 1  
     4    3    2 ar 
     5    2   41 1  
     6    4    3 ar 
     7   30    4 ar 
     8   30    5 ar 
     9    6    7 1  
    10   12    6 1  
    11    7    8 1  
    12    8    9 1  
    13   10    8 1  
    14   11   10 1  
    15   12   11 1  
    16   13   12 1  
    17   14   13 1  
    18   16   13 1  
    19   15   14 1  
    20   18   15 1  
    21   17   16 1  
    22   18   17 1  
    23   19   18 am 
    24   19   20 2  
    25   21   19 1  
    26   22   21 ar 
    27   26   21 ar 
    28   23   22 ar 
    29   23   24 1  
    30   28   23 ar 
    31   24   25 1  
    32   27   26 ar 
    33   28   27 ar 
    34   29   28 1  
    35   29   30 1  
    36   31   32 1  
    37   31   33 1  
    38   33   34 ar 
    39   33   38 ar 
    40   34   35 ar 
    41   35   36 ar 
    42   36   37 ar 
    43   37   38 ar 
    44   38   39 1  
    45   39   40 2  
    46   39   41 am 
    47   41   42 1  
    48    3   43 1  
    49    6   44 1  
    50    6   45 1  
    51    7   46 1  
    52    7   47 1  
    53    8   48 1  
    54    9   49 1  
    55    9   50 1  
    56    9   51 1  
    57   10   52 1  
    58   10   53 1  
    59   11   54 1  
    60   11   55 1  
    61   12   56 1  
    62   13   57 1  
    63   14   58 1  
    64   14   59 1  
    65   15   60 1  
    66   15   61 1  
    67   16   62 1  
    68   16   63 1  
    69   17   64 1  
    70   17   65 1  
    71   22   66 1  
    72   25   67 1  
    73   25   68 1  
    74   25   69 1  
    75   26   70 1  
    76   27   71 1  
    77   29   72 1  
    78   32   73 1  
    79   32   74 1  
    80   32   75 1  
    81   34   76 1  
    82   35   77 1  
    83   36   78 1  
    84   37   79 1  
    85   42   80 1  
    86   42   81 1  
    87   42   82 1  
@<TRIPOS>SUBSTRUCTURE
     1 4K4         1

