### 
### Created by X-TOOL on Mon Sep 10 21:13:31 2018
### 

@<TRIPOS>MOLECULE
5op2_ligand
   57    60     1     0     0
SMALL
GAST_HUCK


@<TRIPOS>ATOM
      1 C1          0.9800   -4.6250   19.4520 C.ar      1 A0Q        -0.0321
      2 C2          1.9510   -4.9480   18.5480 C.ar      1 A0Q         0.0740
      3 C3          1.5820   -5.7680   17.4780 C.ar      1 A0Q         0.1028
      4 C4          0.2850   -6.2250   17.3850 C.ar      1 A0Q        -0.0373
      5 C5         -0.7190   -5.8770   18.3160 C.ar      1 A0Q        -0.0476
      6 C6         -0.3400   -5.0610   19.3760 C.ar      1 A0Q         0.0353
      7 O7          2.5390   -6.1030   16.5720 O.3       1 A0Q        -0.3083
      8 C8          2.2380   -7.0360   15.4340 C.3       1 A0Q         0.1033
      9 C9          3.6630   -7.3440   14.8660 C.ar      1 A0Q        -0.0130
     10 N10        -1.2660   -4.7060   20.4420 N.pl3     1 A0Q        -0.3037
     11 C11         3.3490   -4.4430   18.7740 C.2       1 A0Q         0.2259
     12 N12         4.3970   -4.9770   18.0620 N.am      1 A0Q        -0.2282
     13 O13         3.5320   -3.5550   19.6040 O.2       1 A0Q        -0.3783
     14 C14         5.7190   -4.5070   17.8540 C.ar      1 A0Q         0.0937
     15 C15         6.2780   -3.4490   18.4870 C.ar      1 A0Q        -0.0216
     16 C16         7.5570   -3.0130   18.2400 C.ar      1 A0Q        -0.0480
     17 C17         8.3280   -3.6610   17.2830 C.ar      1 A0Q        -0.0050
     18 N18         7.7980   -4.7360   16.6880 N.ar      1 A0Q        -0.3128
     19 C19         6.5350   -5.1420   16.9030 C.ar      1 A0Q         0.0312
     20 C20         4.2110   -6.4640   13.9290 C.ar      1 A0Q        -0.0578
     21 C21         5.5050   -6.6700   13.4170 C.ar      1 A0Q        -0.0685
     22 C22         6.2730   -7.7830   13.8080 C.ar      1 A0Q        -0.0687
     23 C23         5.7020   -8.6610   14.7580 C.ar      1 A0Q        -0.0685
     24 C24         4.4130   -8.4560   15.2710 C.ar      1 A0Q        -0.0578
     25 C25        -0.6780   -4.2200   21.7210 C.3       1 A0Q         0.0649
     26 C26        -1.7180   -3.4430   22.5620 C.3       1 A0Q        -0.0124
     27 N27        -2.9260   -4.2400   22.6730 N.4       1 A0Q         0.2358
     28 C28        -3.5300   -4.4210   21.3400 C.3       1 A0Q        -0.0124
     29 C29        -2.6310   -5.2590   20.4690 C.3       1 A0Q         0.0649
     30 C30        -3.8440   -3.5510   23.6020 C.3       1 A0Q        -0.0430
     31 H1          1.2551   -3.9868   20.2839 H         1 A0Q         0.0536
     32 H2          0.0239   -6.8800   16.5616 H         1 A0Q         0.0525
     33 H3         -1.7383   -6.2300   18.2088 H         1 A0Q         0.0529
     34 H4          1.6047   -6.5496   14.6775 H         1 A0Q         0.0777
     35 H5          1.7451   -7.9525   15.7905 H         1 A0Q         0.0777
     36 H6          4.1918   -5.8468   17.6134 H         1 A0Q         0.2275
     37 H7          5.6869   -2.9195   19.2255 H         1 A0Q         0.0622
     38 H8          7.9617   -2.1696   18.7877 H         1 A0Q         0.0667
     39 H9          9.3211   -3.3091   17.0280 H         1 A0Q         0.0690
     40 H10         6.1389   -5.9743   16.3324 H         1 A0Q         0.0711
     41 H11         3.6317   -5.6118   13.5924 H         1 A0Q         0.0557
     42 H12         5.9176   -5.9598   12.7096 H         1 A0Q         0.0599
     43 H13         7.2608   -7.9596   13.3980 H         1 A0Q         0.0559
     44 H14         6.2758   -9.5152   15.0988 H         1 A0Q         0.0599
     45 H15         3.9960   -9.1595   15.9825 H         1 A0Q         0.0557
     46 H16         0.1686   -3.5549   21.4956 H         1 A0Q         0.0562
     47 H17        -0.3215   -5.0835   22.3018 H         1 A0Q         0.0562
     48 H18        -1.9507   -2.4872   22.0697 H         1 A0Q         0.0834
     49 H19        -1.3106   -3.2491   23.5652 H         1 A0Q         0.0834
     50 H20        -2.6965   -5.1465   23.0494 H         1 A0Q         0.2032
     51 H21        -3.6755   -3.4369   20.8707 H         1 A0Q         0.0834
     52 H22        -4.5026   -4.9235   21.4473 H         1 A0Q         0.0834
     53 H23        -2.5971   -6.2841   20.8665 H         1 A0Q         0.0562
     54 H24        -3.0338   -5.2757   19.4455 H         1 A0Q         0.0562
     55 H25        -3.3566   -3.4364   24.5814 H         1 A0Q         0.0778
     56 H26        -4.7629   -4.1446   23.7170 H         1 A0Q         0.0778
     57 H27        -4.0963   -2.5588   23.1997 H         1 A0Q         0.0778
@<TRIPOS>BOND
     1    1    2 ar 
     2    1    6 ar 
     3    2    3 ar 
     4    2   11 1  
     5    3    4 ar 
     6    3    7 1  
     7    4    5 ar 
     8    5    6 ar 
     9    6   10 1  
    10    7    8 1  
    11    8    9 1  
    12    9   20 ar 
    13    9   24 ar 
    14   10   25 1  
    15   10   29 1  
    16   11   12 am 
    17   11   13 2  
    18   12   14 1  
    19   14   15 ar 
    20   14   19 ar 
    21   15   16 ar 
    22   16   17 ar 
    23   17   18 ar 
    24   18   19 ar 
    25   20   21 ar 
    26   21   22 ar 
    27   22   23 ar 
    28   23   24 ar 
    29   25   26 1  
    30   26   27 1  
    31   27   28 1  
    32   27   30 1  
    33   28   29 1  
    34    1   31 1  
    35    4   32 1  
    36    5   33 1  
    37    8   34 1  
    38    8   35 1  
    39   12   36 1  
    40   15   37 1  
    41   16   38 1  
    42   17   39 1  
    43   19   40 1  
    44   20   41 1  
    45   21   42 1  
    46   22   43 1  
    47   23   44 1  
    48   24   45 1  
    49   25   46 1  
    50   25   47 1  
    51   26   48 1  
    52   26   49 1  
    53   27   50 1  
    54   28   51 1  
    55   28   52 1  
    56   29   53 1  
    57   29   54 1  
    58   30   55 1  
    59   30   56 1  
    60   30   57 1  
@<TRIPOS>SUBSTRUCTURE
     1 A0Q         1

