### 
### Created by X-TOOL on Mon Sep 10 21:13:31 2018
### 

@<TRIPOS>MOLECULE
5op5_ligand
   38    41     1     0     0
SMALL
GAST_HUCK


@<TRIPOS>ATOM
      1 N3          4.1470   -1.7160   20.2460 N.ar      1 3FE        -0.2755
      2 C4          8.0950   -4.5060   16.8190 C.ar      1 3FE        -0.0282
      3 N2          2.8320   -3.4320   19.5530 N.ar      1 3FE        -0.2722
      4 C7          6.2950   -3.3740   18.1030 C.2       1 3FE        -0.0012
      5 C6          5.8540   -4.5800   16.0280 C.ar      1 3FE        -0.0548
      6 C9          5.1880   -2.1410   19.5330 C.ar      1 3FE         0.1397
      7 C13         2.0870   -5.3590   17.8870 C.3       1 3FE         0.0564
      8 C8          7.1060   -2.3280   18.5460 C.2       1 3FE         0.0419
      9 N5         11.0560   -5.7140   15.5820 N.1       1 3FE        -0.3282
     10 C16         4.5390   -6.0590   17.9610 C.3       1 3FE         0.0564
     11 C1          6.2900   -5.3350   14.9150 C.ar      1 3FE        -0.0567
     12 C2          7.6400   -5.6660   14.7530 C.ar      1 3FE        -0.0328
     13 C3          8.5430   -5.2500   15.7220 C.ar      1 3FE         0.0901
     14 C5          6.7680   -4.2520   17.0270 C.ar      1 3FE        -0.0270
     15 N1          6.3980   -1.6130   19.4030 N.pl3     1 3FE        -0.2603
     16 C10         5.0540   -3.2470   18.7210 C.ar      1 3FE         0.0557
     17 C11         3.8140   -3.8850   18.7490 C.ar      1 3FE         0.1227
     18 C12         2.9790   -2.3380   20.2970 C.ar      1 3FE         0.0510
     19 N4          3.4950   -5.0230   18.0810 N.pl3     1 3FE        -0.2834
     20 C14         1.9830   -6.4150   16.7690 C.3       1 3FE         0.0685
     21 O1          2.8020   -7.5060   16.9470 O.3       1 3FE        -0.3757
     22 C15         4.1880   -7.2060   17.0090 C.3       1 3FE         0.0685
     23 C17         9.9310   -5.5290   15.6200 C.1       1 3FE         0.0992
     24 H1          8.8215   -4.1197   17.5247 H         1 3FE         0.0672
     25 H2          4.8210   -4.2602   16.1032 H         1 3FE         0.0638
     26 H3          1.5272   -4.4572   17.5982 H         1 3FE         0.0551
     27 H4          1.6710   -5.7656   18.8206 H         1 3FE         0.0551
     28 H5          8.1338   -2.1361   18.2414 H         1 3FE         0.0995
     29 H6          4.7180   -6.4839   18.9597 H         1 3FE         0.0551
     30 H7          5.4592   -5.5791   17.5963 H         1 3FE         0.0551
     31 H8          5.5677   -5.6624   14.1760 H         1 3FE         0.0625
     32 H9          7.9727   -6.2336   13.8915 H         1 3FE         0.0669
     33 H10         6.7347   -0.7732   19.8953 H         1 3FE         0.2351
     34 H11         2.1728   -1.9700   20.9213 H         1 3FE         0.0982
     35 H12         2.2492   -5.9355   15.8155 H         1 3FE         0.0580
     36 H13         0.9423   -6.7684   16.7238 H         1 3FE         0.0580
     37 H14         4.7217   -8.1078   17.3435 H         1 3FE         0.0580
     38 H15         4.5274   -6.9325   15.9991 H         1 3FE         0.0580
@<TRIPOS>BOND
     1    6    1 ar 
     2   18    1 ar 
     3    2   13 ar 
     4   14    2 ar 
     5   17    3 ar 
     6    3   18 ar 
     7    4    8 2  
     8    4   14 1  
     9   16    4 1  
    10    5   11 ar 
    11   14    5 ar 
    12    6   15 1  
    13   16    6 ar 
    14   19    7 1  
    15    7   20 1  
    16   15    8 1  
    17   23    9 3  
    18   19   10 1  
    19   10   22 1  
    20   11   12 ar 
    21   13   12 ar 
    22   13   23 1  
    23   17   16 ar 
    24   17   19 1  
    25   20   21 1  
    26   21   22 1  
    27    2   24 1  
    28    5   25 1  
    29    7   26 1  
    30    7   27 1  
    31    8   28 1  
    32   10   29 1  
    33   10   30 1  
    34   11   31 1  
    35   12   32 1  
    36   15   33 1  
    37   18   34 1  
    38   20   35 1  
    39   20   36 1  
    40   22   37 1  
    41   22   38 1  
@<TRIPOS>SUBSTRUCTURE
     1 3FE         1

