### 
### Created by X-TOOL on Mon Sep 10 21:13:33 2018
### 

@<TRIPOS>MOLECULE
5op6_ligand
   54    56     1     0     0
SMALL
GAST_HUCK


@<TRIPOS>ATOM
      1 O01       -15.8460   21.4340   -1.1360 O.2       1 A0W        -0.3792
      2 C02       -16.0790   21.5140   -2.3160 C.2       1 A0W         0.3395
      3 N03       -15.8340   20.3530   -3.1740 N.am      1 A0W        -0.1415
      4 C04       -15.3110   19.1580   -2.4950 C.3       1 A0W         0.0833
      5 C05       -16.0400   17.9730   -3.0880 C.3       1 A0W        -0.0218
      6 C06       -15.6830   16.7180   -2.3000 C.3       1 A0W        -0.0503
      7 C07       -14.1900   16.5020   -2.1980 C.3       1 A0W        -0.0529
      8 C08       -13.4190   17.7470   -1.7740 C.3       1 A0W        -0.0503
      9 C09       -13.8210   18.9740   -2.5760 C.3       1 A0W        -0.0218
     10 C10       -16.1030   20.4220   -4.5760 C.2       1 A0W         0.2436
     11 O11       -15.8790   19.3320   -5.4210 O.3       1 A0W        -0.2774
     12 C12       -16.6330   21.6950   -5.1280 C.2       1 A0W         0.1378
     13 C13       -16.9430   21.8800   -6.6230 C.2       1 A0W         0.1626
     14 N14       -17.3080   23.2000   -7.0500 N.am      1 A0W        -0.2855
     15 C15       -17.6130   23.4940   -8.4310 C.3       1 A0W         0.0808
     16 C16       -17.9480   24.9940   -8.5330 C.2       1 A0W         0.0567
     17 O17       -18.5720   25.4460   -9.5410 O.co2     1 A0W        -0.5669
     18 O18       -17.6080   25.7770   -7.6030 O.co2     1 A0W        -0.5669
     19 O19       -16.8710   20.9570   -7.4050 O.2       1 A0W        -0.4247
     20 C20       -16.8680   22.8560   -4.2540 C.2       1 A0W         0.1906
     21 N21       -16.5990   22.7680   -2.8650 N.am      1 A0W        -0.1709
     22 C22       -16.8230   23.8990   -1.9900 C.3       1 A0W         0.0694
     23 C23       -15.4150   24.2870   -1.6050 C.3       1 A0W        -0.0253
     24 C24       -15.3860   25.4110   -0.5890 C.3       1 A0W        -0.0506
     25 C25       -16.2450   25.1100    0.6100 C.3       1 A0W        -0.0529
     26 C26       -17.6510   24.7270    0.2150 C.3       1 A0W        -0.0506
     27 C27       -17.6670   23.5890   -0.7850 C.3       1 A0W        -0.0253
     28 O28       -17.2970   23.8820   -4.7260 O.2       1 A0W        -0.4198
     29 H1        -15.5687   19.2346   -1.4284 H         1 A0W         0.0656
     30 H2        -15.7404   17.8451   -4.1386 H         1 A0W         0.0295
     31 H3        -17.1252   18.1445   -3.0344 H         1 A0W         0.0295
     32 H4        -16.1317   15.8476   -2.8010 H         1 A0W         0.0266
     33 H5        -16.0960   16.8098   -1.2846 H         1 A0W         0.0266
     34 H6        -13.8174   16.1809   -3.1819 H         1 A0W         0.0265
     35 H7        -14.0033   15.7092   -1.4586 H         1 A0W         0.0265
     36 H8        -12.3442   17.5648   -1.9207 H         1 A0W         0.0266
     37 H9        -13.6162   17.9400   -0.7092 H         1 A0W         0.0266
     38 H10       -13.3187   19.8619   -2.1646 H         1 A0W         0.0295
     39 H11       -13.5246   18.8389   -3.6266 H         1 A0W         0.0295
     40 H12       -16.1153   19.5683   -6.3102 H         1 A0W         0.2695
     41 H13       -17.3524   23.9357   -6.3741 H         1 A0W         0.1836
     42 H14       -18.4756   22.8953   -8.7589 H         1 A0W         0.0686
     43 H15       -16.7436   23.2614   -9.0635 H         1 A0W         0.0686
     44 H16       -17.3083   24.7143   -2.5465 H         1 A0W         0.0611
     45 H17       -14.8782   24.6126   -2.5082 H         1 A0W         0.0291
     46 H18       -14.9109   23.4088   -1.1754 H         1 A0W         0.0291
     47 H19       -15.7533   26.3312   -1.0669 H         1 A0W         0.0266
     48 H20       -14.3489   25.5604   -0.2542 H         1 A0W         0.0266
     49 H21       -16.2867   26.0033    1.2506 H         1 A0W         0.0265
     50 H22       -15.7941   24.2777    1.1703 H         1 A0W         0.0265
     51 H23       -18.1450   25.6015   -0.2336 H         1 A0W         0.0266
     52 H24       -18.2013   24.4168    1.1155 H         1 A0W         0.0266
     53 H25       -17.2771   22.6820   -0.2998 H         1 A0W         0.0291
     54 H26       -18.7032   23.4143   -1.1103 H         1 A0W         0.0291
@<TRIPOS>BOND
     1    1    2 2  
     2    2    3 am 
     3    2   21 am 
     4    3    4 1  
     5    3   10 1  
     6    4    5 1  
     7    4    9 1  
     8    5    6 1  
     9    6    7 1  
    10    7    8 1  
    11    8    9 1  
    12   10   11 1  
    13   10   12 2  
    14   12   13 1  
    15   12   20 1  
    16   13   14 am 
    17   13   19 2  
    18   14   15 1  
    19   15   16 1  
    20   16   17 ar 
    21   16   18 ar 
    22   20   21 am 
    23   20   28 2  
    24   21   22 1  
    25   22   23 1  
    26   22   27 1  
    27   23   24 1  
    28   24   25 1  
    29   25   26 1  
    30   26   27 1  
    31    4   29 1  
    32    5   30 1  
    33    5   31 1  
    34    6   32 1  
    35    6   33 1  
    36    7   34 1  
    37    7   35 1  
    38    8   36 1  
    39    8   37 1  
    40    9   38 1  
    41    9   39 1  
    42   11   40 1  
    43   14   41 1  
    44   15   42 1  
    45   15   43 1  
    46   22   44 1  
    47   23   45 1  
    48   23   46 1  
    49   24   47 1  
    50   24   48 1  
    51   25   49 1  
    52   25   50 1  
    53   26   51 1  
    54   26   52 1  
    55   27   53 1  
    56   27   54 1  
@<TRIPOS>SUBSTRUCTURE
     1 A0W         1

