### 
### Created by X-TOOL on Mon Sep 10 21:13:33 2018
### 

@<TRIPOS>MOLECULE
5op8_ligand
   37    40     1     0     0
SMALL
GAST_HUCK


@<TRIPOS>ATOM
      1 O01       -18.9550   22.6330   -6.0910 O.2       1 A1H        -0.3857
      2 C02       -18.3680   22.0660   -6.9370 C.2       1 A1H         0.2721
      3 C03       -18.0820   22.5730   -8.2620 C.2       1 A1H         0.2001
      4 N04       -18.4560   23.8840   -8.8130 N.pl3     1 A1H        -0.1442
      5 C05       -19.1570   24.1010   -9.9580 C.2       1 A1H         0.0771
      6 C06       -19.2840   25.4740  -10.1170 C.2       1 A1H         0.0163
      7 N07       -18.6930   26.0440   -9.1330 N.2       1 A1H        -0.2373
      8 N08       -18.1570   25.0260   -8.2920 N.2       1 A1H        -0.0978
      9 C09       -17.3360   21.5550   -8.9810 C.2       1 A1H         0.0897
     10 N10       -17.1720   20.4500   -8.1080 N.pl3     1 A1H        -0.1885
     11 N11       -17.8090   20.7550   -6.8400 N.am      1 A1H        -0.0946
     12 C12       -17.8370   19.8890   -5.7360 C.ar      1 A1H         0.1695
     13 N13       -17.0940   18.7040   -5.7510 N.ar      1 A1H        -0.2671
     14 C14       -17.1180   17.8890   -4.7160 C.ar      1 A1H         0.0539
     15 N15       -17.8360   18.1630   -3.6210 N.ar      1 A1H        -0.2729
     16 C16       -18.6020   19.3220   -3.5120 C.ar      1 A1H         0.1121
     17 N17       -19.3590   19.5980   -2.3350 N.pl3     1 A1H        -0.2874
     18 C18       -20.4570   18.7770   -2.0300 C.3       1 A1H         0.0548
     19 C19       -20.8340   18.8610   -0.5380 C.3       1 A1H         0.0681
     20 O20       -20.9580   20.2050   -0.0440 O.3       1 A1H        -0.3757
     21 C21       -19.9890   21.1230   -0.4970 C.3       1 A1H         0.0681
     22 C22       -19.5790   20.9380   -1.9880 C.3       1 A1H         0.0548
     23 C23       -18.6150   20.2270   -4.5880 C.ar      1 A1H         0.0261
     24 H1        -19.5476   23.3366  -10.6282 H         1 A1H         0.0984
     25 H2        -19.7962   25.9786  -10.9349 H         1 A1H         0.0525
     26 H3        -16.9695   21.6273  -10.0039 H         1 A1H         0.1066
     27 H4        -16.6810   19.5738   -8.3363 H         1 A1H         0.2235
     28 H5        -16.5407   16.9722   -4.7527 H         1 A1H         0.1036
     29 H6        -20.2024   17.7354   -2.2753 H         1 A1H         0.0546
     30 H7        -21.3192   19.0957   -2.6341 H         1 A1H         0.0546
     31 H8        -20.0554   18.3479    0.0455 H         1 A1H         0.0580
     32 H9        -21.7969   18.3490   -0.3946 H         1 A1H         0.0580
     33 H10       -19.0887   21.0086    0.1246 H         1 A1H         0.0580
     34 H11       -20.3927   22.1388   -0.3742 H         1 A1H         0.0580
     35 H12       -20.3827   21.3371   -2.6242 H         1 A1H         0.0546
     36 H13       -18.6529   21.5033   -2.1692 H         1 A1H         0.0546
     37 H14       -19.1921   21.1437   -4.5474 H         1 A1H         0.0534
@<TRIPOS>BOND
     1    1    2 2  
     2    2    3 1  
     3    2   11 am 
     4    3    4 1  
     5    3    9 2  
     6    4    5 1  
     7    4    8 1  
     8    5    6 2  
     9    6    7 1  
    10    7    8 2  
    11    9   10 1  
    12   10   11 1  
    13   11   12 1  
    14   12   13 ar 
    15   12   23 ar 
    16   13   14 ar 
    17   14   15 ar 
    18   15   16 ar 
    19   16   17 1  
    20   16   23 ar 
    21   17   18 1  
    22   17   22 1  
    23   18   19 1  
    24   19   20 1  
    25   20   21 1  
    26   21   22 1  
    27    5   24 1  
    28    6   25 1  
    29    9   26 1  
    30   10   27 1  
    31   14   28 1  
    32   18   29 1  
    33   18   30 1  
    34   19   31 1  
    35   19   32 1  
    36   21   33 1  
    37   21   34 1  
    38   22   35 1  
    39   22   36 1  
    40   23   37 1  
@<TRIPOS>SUBSTRUCTURE
     1 A1H         1

