### 
### Created by X-TOOL on Mon Sep 10 21:13:31 2018
### 

@<TRIPOS>MOLECULE
5opb_ligand
   51    55     1     0     0
SMALL
GAST_HUCK


@<TRIPOS>ATOM
      1 C1         -4.5210   -6.0110   20.5790 C.3       1 A1N        -0.0367
      2 N1         -0.9130   -5.0000   19.9240 N.pl3     1 A1N        -0.2852
      3 O1         -2.9400   -4.7310   21.7280 O.3       1 A1N        -0.3699
      4 C2         -3.0540   -5.8530   20.8750 C.3       1 A1N         0.0766
      5 N2          2.1090   -5.7110   17.2670 N.ar      1 A1N        -0.2887
      6 O2          6.8180   -6.4000   15.0110 O.3       1 A1N        -0.3652
      7 C3         -2.2020   -5.6330   19.6540 C.3       1 A1N         0.0575
      8 N3         -0.1400   -5.9100   17.9120 N.ar      1 A1N        -0.2636
      9 C4         -0.6830   -4.2680   21.1870 C.3       1 A1N         0.0575
     10 N4          4.0530   -3.5130   19.3480 N.pl3     1 A1N        -0.2136
     11 C5         -1.6370   -4.6330   22.2910 C.3       1 A1N         0.0766
     12 N5          5.3650   -3.2010   19.2000 N.2       1 A1N        -0.2557
     13 C6         -1.6850   -3.6050   23.4000 C.3       1 A1N        -0.0367
     14 C7          0.1280   -5.1500   18.9980 C.ar      1 A1N         0.1204
     15 C8          1.3670   -4.6240   19.1960 C.ar      1 A1N         0.0061
     16 C9          2.3770   -4.9230   18.3120 C.ar      1 A1N         0.0817
     17 C10         0.8810   -6.1130   17.0900 C.ar      1 A1N         0.0597
     18 C11         3.7340   -4.4320   18.4460 C.2       1 A1N         0.1499
     19 C12         5.9270   -3.9300   18.2060 C.ar      1 A1N         0.0144
     20 C13         7.2140   -3.9060   17.6940 C.ar      1 A1N        -0.0602
     21 C14         7.4710   -4.7670   16.6320 C.ar      1 A1N        -0.0342
     22 C15         6.4610   -5.5860   16.1080 C.ar      1 A1N         0.0736
     23 C16         5.7920   -6.8490   14.1340 C.3       1 A1N         0.1213
     24 C17         5.1450   -5.7240   13.3780 C.3       1 A1N        -0.0616
     25 C18         6.1910   -8.1540   13.5850 C.2       1 A1N        -0.0176
     26 C19         5.0020   -8.0570   14.4730 C.2       1 A1N        -0.0176
     27 C20         5.1750   -5.5850   16.5890 C.ar      1 A1N        -0.0221
     28 C21         4.8920   -4.7380   17.6790 C.ar      1 A1N         0.0269
     29 H1         -4.6700   -6.8750   19.9147 H         1 A1N         0.0255
     30 H2         -4.8959   -5.1014   20.0871 H         1 A1N         0.0255
     31 H3         -5.0694   -6.1722   21.5188 H         1 A1N         0.0255
     32 H4         -2.6945   -6.7553   21.3913 H         1 A1N         0.0614
     33 H5         -2.0141   -6.6101   19.1850 H         1 A1N         0.0549
     34 H6         -2.7604   -4.9924   18.9556 H         1 A1N         0.0549
     35 H7         -0.7837   -3.1913   20.9855 H         1 A1N         0.0549
     36 H8          0.3400   -4.4829   21.5294 H         1 A1N         0.0549
     37 H9          3.4123   -3.1050   20.0437 H         1 A1N         0.3008
     38 H10        -1.3371   -5.6023   22.7159 H         1 A1N         0.0614
     39 H11        -0.6878   -3.5088   23.8541 H         1 A1N         0.0255
     40 H12        -2.4072   -3.9249   24.1656 H         1 A1N         0.0255
     41 H13        -1.9949   -2.6339   22.9866 H         1 A1N         0.0255
     42 H14         1.5564   -3.9749   20.0432 H         1 A1N         0.0623
     43 H15         0.6744   -6.6676   16.1818 H         1 A1N         0.1057
     44 H16         7.9785   -3.2525   18.0985 H         1 A1N         0.0595
     45 H17         8.4661   -4.8052   16.2037 H         1 A1N         0.0541
     46 H18         4.3628   -6.1277   12.7183 H         1 A1N         0.0093
     47 H19         5.9030   -5.2050   12.7730 H         1 A1N         0.0093
     48 H20         4.6952   -5.0154   14.0890 H         1 A1N         0.0093
     49 H21         6.8648   -8.7533   12.9744 H         1 A1N         0.1230
     50 H22         4.1669   -8.5268   14.9906 H         1 A1N         0.1230
     51 H23         4.4078   -6.2110   16.1477 H         1 A1N         0.0550
@<TRIPOS>BOND
     1    4    1 1  
     2    2    7 1  
     3    2    9 1  
     4   14    2 1  
     5    4    3 1  
     6   11    3 1  
     7    7    4 1  
     8   16    5 ar 
     9    5   17 ar 
    10   22    6 1  
    11    6   23 1  
    12   14    8 ar 
    13   17    8 ar 
    14    9   11 1  
    15   12   10 1  
    16   18   10 1  
    17   11   13 1  
    18   19   12 2  
    19   15   14 ar 
    20   16   15 ar 
    21   18   16 1  
    22   28   18 2  
    23   20   19 ar 
    24   19   28 ar 
    25   21   20 ar 
    26   21   22 ar 
    27   22   27 ar 
    28   23   24 1  
    29   23   25 1  
    30   23   26 1  
    31   25   26 2  
    32   27   28 ar 
    33    1   29 1  
    34    1   30 1  
    35    1   31 1  
    36    4   32 1  
    37    7   33 1  
    38    7   34 1  
    39    9   35 1  
    40    9   36 1  
    41   10   37 1  
    42   11   38 1  
    43   13   39 1  
    44   13   40 1  
    45   13   41 1  
    46   15   42 1  
    47   17   43 1  
    48   20   44 1  
    49   21   45 1  
    50   24   46 1  
    51   24   47 1  
    52   24   48 1  
    53   25   49 1  
    54   26   50 1  
    55   27   51 1  
@<TRIPOS>SUBSTRUCTURE
     1 A1N         1

