### 
### Created by X-TOOL on Mon Sep 10 21:13:32 2018
### 

@<TRIPOS>MOLECULE
5opc_ligand
   21    21     1     0     0
SMALL
GAST_HUCK


@<TRIPOS>ATOM
      1 O01       -24.0200   20.9030   -5.6670 O.3       1 A1Z        -0.3198
      2 C02       -24.5710   22.2200   -5.8860 C.ar      1 A1Z         0.1372
      3 C03       -25.6050   22.4090   -6.7620 C.ar      1 A1Z         0.1508
      4 C04       -26.1880   21.2210   -7.5240 C.2       1 A1Z         0.2196
      5 N05       -25.6950   19.9250   -7.3220 N.am      1 A1Z        -0.2732
      6 C06       -26.2880   18.7750   -8.0940 C.3       1 A1Z         0.0827
      7 C07       -25.4250   18.4190   -9.2340 C.2       1 A1Z         0.0570
      8 O08       -25.2590   17.2610   -9.5170 O.co2     1 A1Z        -0.5669
      9 O09       -24.8220   19.3830   -9.9260 O.co2     1 A1Z        -0.5669
     10 O10       -27.0520   21.3930   -8.3090 O.2       1 A1Z        -0.3851
     11 N11       -26.1220   23.6190   -6.9720 N.ar      1 A1Z        -0.2870
     12 C12       -25.6520   24.6830   -6.3370 C.ar      1 A1Z         0.0055
     13 C13       -24.6160   24.5780   -5.4420 C.ar      1 A1Z        -0.0382
     14 C21       -24.0480   23.3270   -5.1980 C.ar      1 A1Z        -0.0072
     15 H1        -23.3151   20.9574   -5.0325 H         1 A1Z         0.2535
     16 H2        -24.9543   19.7644   -6.6696 H         1 A1Z         0.1864
     17 H3        -27.2811   19.0641   -8.4683 H         1 A1Z         0.0689
     18 H4        -26.3860   17.9046   -7.4286 H         1 A1Z         0.0689
     19 H5        -26.0937   25.6544   -6.5277 H         1 A1Z         0.0748
     20 H6        -24.2432   25.4579   -4.9302 H         1 A1Z         0.0713
     21 H7        -23.2278   23.2131   -4.4985 H         1 A1Z         0.0676
@<TRIPOS>BOND
     1    1    2 1  
     2    2    3 ar 
     3    2   14 ar 
     4    3    4 1  
     5    3   11 ar 
     6    4    5 am 
     7    4   10 2  
     8    5    6 1  
     9    6    7 1  
    10    7    8 ar 
    11    7    9 ar 
    12   11   12 ar 
    13   12   13 ar 
    14   13   14 ar 
    15    1   15 1  
    16    5   16 1  
    17    6   17 1  
    18    6   18 1  
    19   12   19 1  
    20   13   20 1  
    21   14   21 1  
@<TRIPOS>SUBSTRUCTURE
     1 A1Z         1

