### 
### Created by X-TOOL on Mon Sep 10 21:13:31 2018
### 

@<TRIPOS>MOLECULE
5opr_ligand
   55    58     1     0     0
SMALL
GAST_HUCK


@<TRIPOS>ATOM
      1 O          -3.5200   -8.9590   19.3240 O.3       1 A3E        -0.3693
      2 C1          4.8330   -7.2160   15.0620 C.3       1 A3E        -0.0314
      3 N1          6.1710   -5.3960   16.2120 N.pl3     1 A3E        -0.1662
      4 C2          6.1600   -6.4130   15.1010 C.3       1 A3E         0.0844
      5 N2          6.7790   -3.8270   17.5120 N.2       1 A3E        -0.2181
      6 C3          6.0800   -5.5990   13.8120 C.3       1 A3E        -0.0314
      7 N3          7.1930   -4.6330   16.5470 N.2       1 A3E        -0.0915
      8 C4          5.1100   -5.0550   16.9390 C.2       1 A3E         0.0855
      9 N4          4.1520   -1.6440   20.3140 N.ar      1 A3E        -0.2889
     10 C5          5.5250   -4.1050   17.8380 C.2       1 A3E         0.0714
     11 N5          6.2500   -1.6930   19.4550 N.pl3     1 A3E        -0.3220
     12 C6          4.6410   -3.4250   18.8080 C.ar      1 A3E         0.0277
     13 N6         -3.1130   -6.3040   20.0200 N.4       1 A3E         0.2505
     14 C7          3.3490   -3.8870   18.9370 C.ar      1 A3E        -0.0457
     15 C8          2.4630   -3.1980   19.7730 C.ar      1 A3E        -0.0129
     16 C9          2.8920   -2.0840   20.4540 C.ar      1 A3E        -0.0019
     17 C10         5.0190   -2.2680   19.5230 C.ar      1 A3E         0.1138
     18 C11         1.0570   -3.6440   19.9530 C.ar      1 A3E        -0.0264
     19 C12         0.5840   -4.8170   19.3200 C.ar      1 A3E        -0.0614
     20 C13        -0.7430   -5.2310   19.5160 C.ar      1 A3E        -0.0550
     21 C14        -1.6020   -4.4720   20.3040 C.ar      1 A3E         0.0014
     22 C15        -1.1340   -3.3000   20.8990 C.ar      1 A3E        -0.0550
     23 C16         0.1770   -2.8860   20.7250 C.ar      1 A3E        -0.0614
     24 C17        -3.0520   -4.9130   20.5000 C.3       1 A3E         0.0021
     25 C18        -3.0220   -7.3450   21.0470 C.3       1 A3E        -0.0064
     26 C19        -2.5300   -8.5890   20.3190 C.3       1 A3E         0.0878
     27 C20        -3.7090   -7.9460   18.3090 C.3       1 A3E         0.0878
     28 C21        -4.0800   -6.6060   18.9540 C.3       1 A3E        -0.0064
     29 H1          4.8692   -7.9443   14.2384 H         1 A3E         0.0262
     30 H2          3.9912   -6.5257   14.9043 H         1 A3E         0.0262
     31 H3          4.6978   -7.7474   16.0156 H         1 A3E         0.0262
     32 H4          7.0399   -7.0713   15.1497 H         1 A3E         0.0685
     33 H5          6.9797   -4.9733   13.7171 H         1 A3E         0.0262
     34 H6          5.1876   -4.9564   13.8389 H         1 A3E         0.0262
     35 H7          6.0151   -6.2808   12.9512 H         1 A3E         0.0262
     36 H8          4.1019   -5.4547   16.8393 H         1 A3E         0.1054
     37 H9          6.9824   -2.1124   18.8646 H         1 A3E         0.1774
     38 H10         6.4496   -0.8382   19.9939 H         1 A3E         0.1774
     39 H11        -2.2312   -6.3948   19.5401 H         1 A3E         0.2050
     40 H12         3.0241   -4.7704   18.3993 H         1 A3E         0.0651
     41 H13         2.2076   -1.5570   21.1089 H         1 A3E         0.0742
     42 H14         1.2450   -5.3953   18.6846 H         1 A3E         0.0600
     43 H15        -1.0989   -6.1439   19.0524 H         1 A3E         0.0560
     44 H16        -1.8059   -2.7044   21.5064 H         1 A3E         0.0560
     45 H17         0.5199   -1.9692   21.1909 H         1 A3E         0.0600
     46 H18        -3.3282   -4.8616   21.5635 H         1 A3E         0.0982
     47 H19        -3.7296   -4.2748   19.9139 H         1 A3E         0.0982
     48 H20        -4.0084   -7.5279   21.4981 H         1 A3E         0.0837
     49 H21        -2.3090   -7.0508   21.8312 H         1 A3E         0.0837
     50 H22        -1.5698   -8.3758   19.8264 H         1 A3E         0.0613
     51 H23        -2.3991   -9.4121   21.0369 H         1 A3E         0.0613
     52 H24        -4.5173   -8.2582   17.6314 H         1 A3E         0.0613
     53 H25        -2.7767   -7.8273   17.7374 H         1 A3E         0.0613
     54 H26        -4.0520   -5.8108   18.1945 H         1 A3E         0.0837
     55 H27        -5.0917   -6.6698   19.3810 H         1 A3E         0.0837
@<TRIPOS>BOND
     1   26    1 1  
     2    1   27 1  
     3    4    2 1  
     4    3    4 1  
     5    3    7 1  
     6    8    3 1  
     7    4    6 1  
     8    5    7 2  
     9   10    5 1  
    10   10    8 2  
    11   16    9 ar 
    12    9   17 ar 
    13   12   10 1  
    14   17   11 1  
    15   14   12 ar 
    16   12   17 ar 
    17   13   24 1  
    18   25   13 1  
    19   13   28 1  
    20   15   14 ar 
    21   15   16 ar 
    22   18   15 1  
    23   19   18 ar 
    24   23   18 ar 
    25   20   19 ar 
    26   21   20 ar 
    27   21   22 ar 
    28   24   21 1  
    29   22   23 ar 
    30   25   26 1  
    31   27   28 1  
    32    2   29 1  
    33    2   30 1  
    34    2   31 1  
    35    4   32 1  
    36    6   33 1  
    37    6   34 1  
    38    6   35 1  
    39    8   36 1  
    40   11   37 1  
    41   11   38 1  
    42   13   39 1  
    43   14   40 1  
    44   16   41 1  
    45   19   42 1  
    46   20   43 1  
    47   22   44 1  
    48   23   45 1  
    49   24   46 1  
    50   24   47 1  
    51   25   48 1  
    52   25   49 1  
    53   26   50 1  
    54   26   51 1  
    55   27   52 1  
    56   27   53 1  
    57   28   54 1  
    58   28   55 1  
@<TRIPOS>SUBSTRUCTURE
     1 A3E         1

