### 
### Created by X-TOOL on Mon Sep 10 21:13:31 2018
### 

@<TRIPOS>MOLECULE
5ops_ligand
   27    29     1     0     0
SMALL
GAST_HUCK


@<TRIPOS>ATOM
      1 C1          4.1170   -7.7690   17.4780 C.ar      1 A3Q        -0.0686
      2 C2          4.1400   -6.6160   18.2710 C.ar      1 A3Q        -0.0634
      3 C3          4.6620   -5.4260   17.8010 C.ar      1 A3Q        -0.0234
      4 C4          5.0950   -5.3490   16.4800 C.ar      1 A3Q        -0.0246
      5 C5          5.0530   -6.4880   15.6850 C.ar      1 A3Q         0.0889
      6 C6          4.5510   -7.6810   16.1600 C.ar      1 A3Q        -0.0322
      7 C7          4.6760   -4.2230   18.6140 C.ar      1 A3Q        -0.0110
      8 C8          3.5130   -3.9350   19.2790 C.ar      1 A3Q        -0.0427
      9 C9          3.4030   -2.7710   20.0190 C.ar      1 A3Q        -0.0046
     10 N10         4.4250   -1.9290   20.0810 N.ar      1 A3Q        -0.2844
     11 C11         5.7090   -3.3140   18.6800 C.ar      1 A3Q         0.0403
     12 C12         5.5460   -2.1730   19.4380 C.ar      1 A3Q         0.1466
     13 N13         6.6460   -1.4590   19.3640 N.pl3     1 A3Q        -0.2450
     14 C14         7.5170   -2.0940   18.5890 C.2       1 A3Q         0.0788
     15 C15         6.9710   -3.2170   18.1750 C.2       1 A3Q         0.1072
     16 C16         7.5990   -4.1170   17.3060 C.1       1 A3Q         0.0622
     17 N17         8.1030   -4.8820   16.6360 N.1       1 A3Q        -0.3638
     18 O18         5.4920   -6.3810   14.4210 O.3       1 A3Q        -0.3330
     19 H1          3.7678   -8.7118   17.8833 H         1 A3Q         0.0593
     20 H2          3.7390   -6.6574   19.2773 H         1 A3Q         0.0541
     21 H3          5.4606   -4.4117   16.0764 H         1 A3Q         0.0552
     22 H4          4.4949   -8.5461   15.5092 H         1 A3Q         0.0553
     23 H5          2.6760   -4.6217   19.2251 H         1 A3Q         0.0613
     24 H6          2.4829   -2.5481   20.5470 H         1 A3Q         0.0749
     25 H7          6.8065   -0.5549   19.8306 H         1 A3Q         0.2410
     26 H8          8.5170   -1.7436   18.3378 H         1 A3Q         0.1237
     27 H9          5.8003   -5.4955   14.2679 H         1 A3Q         0.2480
@<TRIPOS>BOND
     1    1    2 ar 
     2    1    6 ar 
     3    2    3 ar 
     4    3    4 ar 
     5    3    7 1  
     6    4    5 ar 
     7    5    6 ar 
     8    5   18 1  
     9    7    8 ar 
    10    7   11 ar 
    11    8    9 ar 
    12    9   10 ar 
    13   10   12 ar 
    14   11   12 ar 
    15   11   15 1  
    16   12   13 1  
    17   13   14 1  
    18   14   15 2  
    19   15   16 1  
    20   16   17 3  
    21    1   19 1  
    22    2   20 1  
    23    4   21 1  
    24    6   22 1  
    25    8   23 1  
    26    9   24 1  
    27   13   25 1  
    28   14   26 1  
    29   18   27 1  
@<TRIPOS>SUBSTRUCTURE
     1 A3Q         1

