### 
### Created by X-TOOL on Mon Sep 10 21:13:31 2018
### 

@<TRIPOS>MOLECULE
5opu_ligand
   31    33     1     0     0
SMALL
GAST_HUCK


@<TRIPOS>ATOM
      1 C01         5.7050   -5.8720   13.8220 C.3       1 A3K        -0.0309
      2 C23         5.2180   -6.0990   15.2860 C.ar      1 A3K        -0.0445
      3 C21         5.1530   -5.0010   16.1750 C.ar      1 A3K        -0.0517
      4 C24         4.8540   -7.3540   15.6610 C.ar      1 A3K        -0.0594
      5 C26         4.4050   -7.6150   16.9940 C.ar      1 A3K        -0.0666
      6 C28         4.3080   -6.5600   17.8440 C.ar      1 A3K        -0.0594
      7 C30         4.7070   -5.2780   17.5350 C.ar      1 A3K        -0.0234
      8 C31         4.6080   -4.0940   18.4130 C.ar      1 A3K        -0.0183
      9 C15         5.6390   -3.1150   18.5890 C.ar      1 A3K         0.0281
     10 C19         3.3790   -3.9080   18.9830 C.ar      1 A3K        -0.0228
     11 C18         3.2710   -2.6950   19.8000 C.ar      1 A3K         0.0926
     12 N05         2.0780   -2.5040   20.3580 N.pl3     1 A3K        -0.3267
     13 N17         4.1950   -1.7720   19.9540 N.ar      1 A3K        -0.2742
     14 C16         5.4200   -1.9770   19.4140 C.ar      1 A3K         0.1300
     15 N13         6.4820   -1.2170   19.3250 N.pl3     1 A3K        -0.2514
     16 C10         7.4650   -1.7860   18.6300 C.2       1 A3K         0.0730
     17 C12         6.9690   -2.9760   18.1750 C.2       1 A3K         0.0992
     18 C09         7.8060   -3.8000   17.2990 C.1       1 A3K         0.0601
     19 N08         8.4700   -4.4910   16.6520 N.1       1 A3K        -0.3641
     20 H1          5.9597   -4.8113   13.6806 H         1 A3K         0.0390
     21 H2          4.9049   -6.1534   13.1216 H         1 A3K         0.0390
     22 H3          6.5940   -6.4911   13.6311 H         1 A3K         0.0390
     23 H4          5.4224   -3.9995   15.8596 H         1 A3K         0.0569
     24 H5          4.9045   -8.1647   14.9431 H         1 A3K         0.0567
     25 H6          4.1512   -8.6190   17.3143 H         1 A3K         0.0603
     26 H7          3.8900   -6.7381   18.8282 H         1 A3K         0.0577
     27 H8          2.5550   -4.5982   18.8429 H         1 A3K         0.0533
     28 H9          1.9123   -1.6767   20.9488 H         1 A3K         0.1754
     29 H10         1.3204   -3.1835   20.1991 H         1 A3K         0.1754
     30 H11         6.5500   -0.2799   19.7470 H         1 A3K         0.2391
     31 H12         8.4627   -1.3845   18.4586 H         1 A3K         0.1187
@<TRIPOS>BOND
     1    1    2 1  
     2    2    3 ar 
     3    2    4 ar 
     4    3    7 ar 
     5    4    5 ar 
     6    5    6 ar 
     7    6    7 ar 
     8    7    8 1  
     9    8    9 ar 
    10    8   10 ar 
    11    9   14 ar 
    12    9   17 1  
    13   10   11 ar 
    14   11   12 1  
    15   11   13 ar 
    16   13   14 ar 
    17   14   15 1  
    18   15   16 1  
    19   16   17 2  
    20   17   18 1  
    21   18   19 3  
    22    1   20 1  
    23    1   21 1  
    24    1   22 1  
    25    3   23 1  
    26    4   24 1  
    27    5   25 1  
    28    6   26 1  
    29   10   27 1  
    30   12   28 1  
    31   12   29 1  
    32   15   30 1  
    33   16   31 1  
@<TRIPOS>SUBSTRUCTURE
     1 A3K         1

