### 
### Created by X-TOOL on Mon Sep 10 21:13:31 2018
### 

@<TRIPOS>MOLECULE
5opv_ligand
   41    44     1     0     0
SMALL
GAST_HUCK


@<TRIPOS>ATOM
      1 N         -18.5160   -2.3200   19.6820 N.ar      1 A3H        -0.2707
      2 C         -19.4060   -4.3630   18.7200 C.ar      1 A3H        -0.0189
      3 C1        -19.5410   -3.1940   19.5000 C.ar      1 A3H         0.1131
      4 N1        -16.2190   -1.7300   19.2070 N.pl3     1 A3H        -0.2512
      5 C2        -18.1260   -4.5760   18.2200 C.ar      1 A3H        -0.0176
      6 N2        -14.4110   -5.2640   16.6230 N.1       1 A3H        -0.3640
      7 C3        -15.2230   -2.3840   18.5560 C.2       1 A3H         0.0732
      8 N3        -20.6730   -2.7570   20.1070 N.pl3     1 A3H        -0.2652
      9 C4        -15.7430   -3.5620   18.0450 C.2       1 A3H         0.0995
     10 N4        -23.3690   -4.9680   20.0760 N.pl3     1 A3H        -0.2246
     11 C5        -17.0850   -3.6460   18.3960 C.ar      1 A3H         0.0287
     12 N5        -22.1250   -4.6590   19.6990 N.2       1 A3H        -0.2141
     13 C6        -17.3080   -2.4980   19.1590 C.ar      1 A3H         0.1308
     14 C7        -15.0030   -4.5100   17.2600 C.1       1 A3H         0.0602
     15 C8        -18.0290   -5.8020   17.3920 C.ar      1 A3H        -0.0234
     16 C9        -18.5270   -7.0520   17.7590 C.ar      1 A3H        -0.0594
     17 C10       -18.4430   -8.1040   16.8470 C.ar      1 A3H        -0.0666
     18 C11       -17.9350   -7.9370   15.5670 C.ar      1 A3H        -0.0594
     19 C12       -17.5090   -6.6980   15.1700 C.ar      1 A3H        -0.0446
     20 C13       -17.5550   -5.6490   16.0920 C.ar      1 A3H        -0.0517
     21 C14       -21.8380   -3.4740   20.2150 C.2       1 A3H         0.1063
     22 C15       -22.9170   -3.0190   20.9520 C.2       1 A3H        -0.0236
     23 C16       -23.8900   -3.9940   20.8620 C.2       1 A3H         0.0435
     24 C17       -24.0960   -6.1770   19.7010 C.3       1 A3H         0.0548
     25 C18       -16.9110   -6.4240   13.7590 C.3       1 A3H        -0.0310
     26 H1        -20.2316   -5.0384   18.5269 H         1 A3H         0.0543
     27 H2        -16.1464   -0.8064   19.6571 H         1 A3H         0.2392
     28 H3        -14.1942   -2.0420   18.4534 H         1 A3H         0.1189
     29 H4        -20.6566   -1.8131   20.5190 H         1 A3H         0.2078
     30 H5        -18.9716   -7.2033   18.7360 H         1 A3H         0.0577
     31 H6        -18.7868   -9.0867   17.1491 H         1 A3H         0.0603
     32 H7        -17.8759   -8.7796   14.8876 H         1 A3H         0.0567
     33 H8        -17.2056   -4.6712   15.7807 H         1 A3H         0.0569
     34 H9        -22.9851   -2.0778   21.4956 H         1 A3H         0.0318
     35 H10       -24.8746   -3.9830   21.3272 H         1 A3H         0.0972
     36 H11       -25.0964   -6.1598   20.1580 H         1 A3H         0.0593
     37 H12       -23.5458   -7.0608   20.0562 H         1 A3H         0.0593
     38 H13       -24.1937   -6.2214   18.6063 H         1 A3H         0.0593
     39 H14       -16.9484   -7.3456   13.1597 H         1 A3H         0.0390
     40 H15       -15.8663   -6.0952   13.8610 H         1 A3H         0.0390
     41 H16       -17.4958   -5.6377   13.2593 H         1 A3H         0.0390
@<TRIPOS>BOND
     1    3    1 ar 
     2    1   13 ar 
     3    3    2 ar 
     4    2    5 ar 
     5    8    3 1  
     6    4    7 1  
     7   13    4 1  
     8    5   11 ar 
     9    5   15 1  
    10   14    6 3  
    11    9    7 2  
    12   21    8 1  
    13   11    9 1  
    14    9   14 1  
    15   12   10 1  
    16   10   23 1  
    17   10   24 1  
    18   13   11 ar 
    19   12   21 2  
    20   15   16 ar 
    21   15   20 ar 
    22   16   17 ar 
    23   17   18 ar 
    24   18   19 ar 
    25   19   20 ar 
    26   19   25 1  
    27   21   22 1  
    28   22   23 2  
    29    2   26 1  
    30    4   27 1  
    31    7   28 1  
    32    8   29 1  
    33   16   30 1  
    34   17   31 1  
    35   18   32 1  
    36   20   33 1  
    37   22   34 1  
    38   23   35 1  
    39   24   36 1  
    40   24   37 1  
    41   24   38 1  
    42   25   39 1  
    43   25   40 1  
    44   25   41 1  
@<TRIPOS>SUBSTRUCTURE
     1 A3H         1

