### 
### Created by X-TOOL on Mon Sep 10 21:13:33 2018
### 

@<TRIPOS>MOLECULE
5oq4_ligand
   49    52     1     0     0
SMALL
GAST_HUCK


@<TRIPOS>ATOM
      1 CAD        45.3060   12.5880   29.5940 C.3       1 A3W         0.0592
      2 CAA        46.1350   12.3170   28.2710 C.3       1 A3W         0.0687
      3 OAB        47.4790   12.4840   28.5640 O.3       1 A3W        -0.3756
      4 CAC        47.7320   13.7680   29.0250 C.3       1 A3W         0.0687
      5 CAF        47.0440   14.1030   30.3950 C.3       1 A3W         0.0592
      6 NAE        45.5960   13.8220   30.3790 N.pl3     1 A3W        -0.2680
      7 CAM        44.6380   14.5750   31.1300 C.ar      1 A3W         0.1904
      8 NAR        43.3830   13.9990   31.3750 N.ar      1 A3W        -0.2361
      9 NAL        45.0220   15.8540   31.4860 N.ar      1 A3W        -0.2162
     10 CAK        44.0890   16.5810   32.1590 C.ar      1 A3W         0.1904
     11 NAJ        44.4940   17.9180   32.5830 N.pl3     1 A3W        -0.2680
     12 CAI        43.8990   18.7300   33.6750 C.3       1 A3W         0.0592
     13 CAH        44.2600   20.2630   33.5650 C.3       1 A3W         0.0687
     14 OAG        45.5740   20.5280   33.0990 O.3       1 A3W        -0.3756
     15 CAN        45.7870   19.8900   31.8700 C.3       1 A3W         0.0687
     16 CAO        45.8520   18.3800   32.1860 C.3       1 A3W         0.0592
     17 NAP        42.8420   16.0780   32.5040 N.ar      1 A3W        -0.2361
     18 CAQ        42.5150   14.7880   32.0980 C.ar      1 A3W         0.1220
     19 CAU        41.0640   14.2480   32.4400 C.ar      1 A3W         0.0598
     20 CAT        40.2760   13.5460   31.4970 C.ar      1 A3W         0.0420
     21 NAY        39.0330   13.0410   31.6280 N.ar      1 A3W        -0.2461
     22 CAZ        38.3380   13.1580   32.8100 C.ar      1 A3W         0.1447
     23 NBC        37.0580   12.6180   32.9510 N.pl3     1 A3W        -0.3139
     24 CBA        39.0180   13.8510   33.8310 C.ar      1 A3W         0.0180
     25 CAV        40.3080   14.3580   33.6330 C.ar      1 A3W         0.0702
     26 CAW        40.9500   15.0680   34.8130 C.3       1 A3W         0.3855
     27 FBB        41.1940   16.3730   34.5920 F         1 A3W        -0.2142
     28 FAS        40.2890   15.1550   35.9440 F         1 A3W        -0.2142
     29 FAX        42.1790   14.5250   35.0400 F         1 A3W        -0.2142
     30 H1         45.4744   11.7313   30.2631 H         1 A3W         0.0554
     31 H2         44.2444   12.6275   29.3088 H         1 A3W         0.0554
     32 H3         45.8326   13.0290   27.4889 H         1 A3W         0.0581
     33 H4         45.9544   11.2898   27.9215 H         1 A3W         0.0581
     34 H5         47.3693   14.4833   28.2721 H         1 A3W         0.0581
     35 H6         48.8191   13.8836   29.1469 H         1 A3W         0.0581
     36 H7         47.1946   15.1703   30.6146 H         1 A3W         0.0554
     37 H8         47.5131   13.4966   31.1838 H         1 A3W         0.0554
     38 H9         44.2706   18.3499   34.6380 H         1 A3W         0.0554
     39 H10        42.8049   18.6231   33.6362 H         1 A3W         0.0554
     40 H11        44.1524   20.7134   34.5628 H         1 A3W         0.0581
     41 H12        43.5483   20.7343   32.8712 H         1 A3W         0.0581
     42 H13        46.7326   20.2285   31.4214 H         1 A3W         0.0581
     43 H14        44.9572   20.1015   31.1796 H         1 A3W         0.0581
     44 H15        46.1847   17.8290   31.2940 H         1 A3W         0.0554
     45 H16        46.5588   18.2042   33.0104 H         1 A3W         0.0554
     46 H17        40.7391   13.3921   30.5291 H         1 A3W         0.0917
     47 H18        36.5533   12.7157   33.8435 H         1 A3W         0.1791
     48 H19        36.6185   12.1220   32.1625 H         1 A3W         0.1791
     49 H20        38.5325   13.9946   34.7895 H         1 A3W         0.0862
@<TRIPOS>BOND
     1    1    2 1  
     2    1    6 1  
     3    2    3 1  
     4    3    4 1  
     5    4    5 1  
     6    5    6 1  
     7    6    7 1  
     8    7    8 ar 
     9    7    9 ar 
    10    8   18 ar 
    11    9   10 ar 
    12   10   11 1  
    13   10   17 ar 
    14   11   12 1  
    15   11   16 1  
    16   12   13 1  
    17   13   14 1  
    18   14   15 1  
    19   15   16 1  
    20   17   18 ar 
    21   18   19 1  
    22   19   20 ar 
    23   19   25 ar 
    24   20   21 ar 
    25   21   22 ar 
    26   22   23 1  
    27   22   24 ar 
    28   24   25 ar 
    29   25   26 1  
    30   26   27 1  
    31   26   28 1  
    32   26   29 1  
    33    1   30 1  
    34    1   31 1  
    35    2   32 1  
    36    2   33 1  
    37    4   34 1  
    38    4   35 1  
    39    5   36 1  
    40    5   37 1  
    41   12   38 1  
    42   12   39 1  
    43   13   40 1  
    44   13   41 1  
    45   15   42 1  
    46   15   43 1  
    47   16   44 1  
    48   16   45 1  
    49   20   46 1  
    50   23   47 1  
    51   23   48 1  
    52   24   49 1  
@<TRIPOS>SUBSTRUCTURE
     1 A3W         1

