### 
### Created by X-TOOL on Mon Sep 10 21:13:31 2018
### 

@<TRIPOS>MOLECULE
5oq5_ligand
   82    87     1     0     0
SMALL
GAST_HUCK


@<TRIPOS>ATOM
      1 C4          4.7250   -5.0490   18.8780 C.ar      1 4K4         0.1645
      2 C5          5.8140   -4.1400   18.9560 C.ar      1 4K4         0.1307
      3 C6          5.5610   -2.9680   19.6580 C.ar      1 4K4         0.0207
      4 N1          4.3370   -2.7080   20.2540 N.ar      1 4K4        -0.2872
      5 N3          3.5700   -4.8080   19.4640 N.ar      1 4K4        -0.2472
      6 CAU        -8.4380   -2.0250   21.5930 C.3       1 4K4         0.0097
      7 CAS        -9.2950   -0.7810   21.9100 C.3       1 4K4         0.0092
      8 NBL        -9.1170    0.2530   20.8380 N.4       1 4K4         0.2405
      9 CAB        -9.8960    1.4750   21.1670 C.3       1 4K4        -0.0427
     10 CAT        -7.6710    0.6050   20.6470 C.3       1 4K4         0.0092
     11 CAV        -6.8550   -0.6660   20.3530 C.3       1 4K4         0.0097
     12 NBN        -7.0260   -1.6000   21.4830 N.4       1 4K4         0.2449
     13 CBK        -6.0090   -2.7450   21.5110 C.3       1 4K4        -0.0167
     14 CAP        -6.5450   -4.0730   20.9890 C.3       1 4K4         0.0107
     15 CAR        -5.5030   -5.2280   21.3350 C.3       1 4K4         0.0382
     16 CAO        -4.8070   -2.4060   20.7520 C.3       1 4K4         0.0107
     17 CAQ        -3.6840   -3.2990   21.2120 C.3       1 4K4         0.0382
     18 NBM        -4.0590   -4.7860   21.0850 N.am      1 4K4        -0.2739
     19 CBA        -3.0210   -5.7680   20.9260 C.2       1 4K4         0.1959
     20 OAE        -3.1830   -6.9940   20.9680 O.2       1 4K4        -0.3902
     21 CBB        -1.5910   -5.2470   20.8270 C.ar      1 4K4         0.0287
     22 CAN        -1.1360   -4.4060   21.8210 C.ar      1 4K4        -0.0230
     23 CBE         0.1120   -3.8210   21.7930 C.ar      1 4K4         0.1199
     24 OAZ         0.6100   -3.0090   22.7700 O.3       1 4K4        -0.3244
     25 CAA        -0.2750   -2.8380   23.9950 C.3       1 4K4         0.0570
     26 CAI        -0.7340   -5.5260   19.7570 C.ar      1 4K4        -0.0628
     27 CAJ         0.5480   -4.9690   19.7420 C.ar      1 4K4        -0.0406
     28 CBC         1.0120   -4.0700   20.7380 C.ar      1 4K4         0.0980
     29 NAY         2.2220   -3.3620   20.7890 N.pl3     1 4K4        -0.2525
     30 C2          3.3960   -3.6100   20.1700 C.ar      1 4K4         0.1790
     31 NBP         4.7390   -6.2010   18.1580 N.pl3     1 4K4        -0.2441
     32 CAD         3.9370   -7.3290   18.5050 C.3       1 4K4         0.0374
     33 CBH         5.1180   -6.0990   16.7490 C.ar      1 4K4         0.0853
     34 CAL         4.1970   -6.6710   15.8450 C.ar      1 4K4        -0.0326
     35 CAH         4.5290   -6.4950   14.4810 C.ar      1 4K4        -0.0674
     36 CAG         5.7060   -5.9580   14.0860 C.ar      1 4K4        -0.0679
     37 CAK         6.6350   -5.3930   14.9560 C.ar      1 4K4        -0.0510
     38 CBG         6.3290   -5.5440   16.3330 C.ar      1 4K4         0.0789
     39 CBF         7.3740   -5.0080   17.2580 C.2       1 4K4         0.2275
     40 OAF         8.5280   -5.0890   16.8850 O.2       1 4K4        -0.3767
     41 NBO         7.0420   -4.3670   18.4770 N.am      1 4K4        -0.2228
     42 CAC         8.2260   -3.7780   19.1320 C.3       1 4K4         0.0413
     43 H1          6.3501   -2.2296   19.7427 H         1 4K4         0.0700
     44 H2         -8.7672   -2.4713   20.6430 H         1 4K4         0.0868
     45 H3         -8.5421   -2.7642   22.4009 H         1 4K4         0.0868
     46 H4         -8.9823   -0.3603   22.8770 H         1 4K4         0.0868
     47 H5        -10.3544   -1.0724   21.9623 H         1 4K4         0.0868
     48 H6         -9.4670   -0.1269   19.9724 H         1 4K4         0.2035
     49 H7         -9.7562    2.2236   20.3733 H         1 4K4         0.0778
     50 H8         -9.5454    1.8865   22.1250 H         1 4K4         0.0778
     51 H9        -10.9630    1.2195   21.2462 H         1 4K4         0.0778
     52 H10        -7.2878    1.0805   21.5619 H         1 4K4         0.0868
     53 H11        -7.5744    1.3034   19.8027 H         1 4K4         0.0868
     54 H12        -5.7916   -0.4076   20.2421 H         1 4K4         0.0868
     55 H13        -7.2173   -1.1341   19.4258 H         1 4K4         0.0868
     56 H14        -6.8368   -1.0628   22.3146 H         1 4K4         0.2040
     57 H15        -5.7207   -2.8933   22.5621 H         1 4K4         0.0852
     58 H16        -6.6798   -4.0130   19.8989 H         1 4K4         0.0339
     59 H17        -7.5112   -4.2935   21.4664 H         1 4K4         0.0339
     60 H18        -5.7209   -6.1039   20.7063 H         1 4K4         0.0523
     61 H19        -5.6131   -5.5009   22.3949 H         1 4K4         0.0523
     62 H20        -4.5406   -1.3536   20.9293 H         1 4K4         0.0339
     63 H21        -4.9895   -2.5623   19.6786 H         1 4K4         0.0339
     64 H22        -3.4582   -3.0759   22.2652 H         1 4K4         0.0523
     65 H23        -2.7943   -3.1008   20.5962 H         1 4K4         0.0523
     66 H24        -1.7882   -4.1958   22.6609 H         1 4K4         0.0553
     67 H25         0.2196   -2.1685   24.7141 H         1 4K4         0.0573
     68 H26        -0.4453   -3.8183   24.4641 H         1 4K4         0.0573
     69 H27        -1.2393   -2.4035   23.6929 H         1 4K4         0.0573
     70 H28        -1.0610   -6.1681   18.9472 H         1 4K4         0.0548
     71 H29         1.2184   -5.2356   18.9330 H         1 4K4         0.0514
     72 H30         2.2135   -2.5257   21.3902 H         1 4K4         0.2125
     73 H31         3.7141   -7.3030   19.5819 H         1 4K4         0.0535
     74 H32         4.4820   -8.2540   18.2656 H         1 4K4         0.0535
     75 H33         2.9966   -7.2995   17.9351 H         1 4K4         0.0535
     76 H34         3.3088   -7.2013   16.1691 H         1 4K4         0.0545
     77 H35         3.8146   -6.8014   13.7255 H         1 4K4         0.0622
     78 H36         5.9403   -5.9681   13.0277 H         1 4K4         0.0529
     79 H37         7.5230   -4.8778   14.6081 H         1 4K4         0.0638
     80 H38         7.9220   -3.2928   20.0712 H         1 4K4         0.0542
     81 H39         8.6811   -3.0316   18.4643 H         1 4K4         0.0542
     82 H40         8.9574   -4.5705   19.3488 H         1 4K4         0.0542
@<TRIPOS>BOND
     1    1    2 ar 
     2    5    1 ar 
     3    1   31 1  
     4    3    2 ar 
     5    2   41 1  
     6    4    3 ar 
     7   30    4 ar 
     8   30    5 ar 
     9    6    7 1  
    10   12    6 1  
    11    7    8 1  
    12    8    9 1  
    13   10    8 1  
    14   11   10 1  
    15   12   11 1  
    16   13   12 1  
    17   14   13 1  
    18   16   13 1  
    19   15   14 1  
    20   18   15 1  
    21   17   16 1  
    22   18   17 1  
    23   19   18 am 
    24   19   20 2  
    25   21   19 1  
    26   22   21 ar 
    27   26   21 ar 
    28   23   22 ar 
    29   23   24 1  
    30   28   23 ar 
    31   24   25 1  
    32   27   26 ar 
    33   28   27 ar 
    34   29   28 1  
    35   29   30 1  
    36   31   32 1  
    37   31   33 1  
    38   33   34 ar 
    39   33   38 ar 
    40   34   35 ar 
    41   35   36 ar 
    42   36   37 ar 
    43   37   38 ar 
    44   38   39 1  
    45   39   40 2  
    46   39   41 am 
    47   41   42 1  
    48    3   43 1  
    49    6   44 1  
    50    6   45 1  
    51    7   46 1  
    52    7   47 1  
    53    8   48 1  
    54    9   49 1  
    55    9   50 1  
    56    9   51 1  
    57   10   52 1  
    58   10   53 1  
    59   11   54 1  
    60   11   55 1  
    61   12   56 1  
    62   13   57 1  
    63   14   58 1  
    64   14   59 1  
    65   15   60 1  
    66   15   61 1  
    67   16   62 1  
    68   16   63 1  
    69   17   64 1  
    70   17   65 1  
    71   22   66 1  
    72   25   67 1  
    73   25   68 1  
    74   25   69 1  
    75   26   70 1  
    76   27   71 1  
    77   29   72 1  
    78   32   73 1  
    79   32   74 1  
    80   32   75 1  
    81   34   76 1  
    82   35   77 1  
    83   36   78 1  
    84   37   79 1  
    85   42   80 1  
    86   42   81 1  
    87   42   82 1  
@<TRIPOS>SUBSTRUCTURE
     1 4K4         1

