### 
### Created by X-TOOL on Mon Sep 10 21:13:31 2018
### 

@<TRIPOS>MOLECULE
5oq6_ligand
   82    87     1     0     0
SMALL
GAST_HUCK


@<TRIPOS>ATOM
      1 C4          4.5930   -4.2880   18.7410 C.ar      1 4K4         0.1645
      2 C5          5.5980   -3.3320   18.7760 C.ar      1 4K4         0.1307
      3 C6          5.4040   -2.1980   19.5250 C.ar      1 4K4         0.0207
      4 N1          4.2290   -2.0190   20.1270 N.ar      1 4K4        -0.2872
      5 N3          3.4260   -4.0950   19.3630 N.ar      1 4K4        -0.2472
      6 CAU        -3.6920  -10.8030   23.9880 C.3       1 4K4         0.0097
      7 CAS        -3.6150  -12.3130   24.2340 C.3       1 4K4         0.0092
      8 NBL        -2.2780  -12.7950   23.8410 N.4       1 4K4         0.2405
      9 CAB        -2.0150  -14.1900   24.2680 C.3       1 4K4        -0.0427
     10 CAT        -2.1000  -12.5550   22.3860 C.3       1 4K4         0.0092
     11 CAV        -2.1470  -11.0450   22.0900 C.3       1 4K4         0.0097
     12 NBN        -3.4140  -10.4380   22.5810 N.4       1 4K4         0.2449
     13 CBK        -3.4200   -8.9560   22.5090 C.3       1 4K4        -0.0167
     14 CAP        -4.3920   -8.4320   21.4440 C.3       1 4K4         0.0107
     15 CAR        -4.4720   -6.8890   21.4760 C.3       1 4K4         0.0382
     16 CAO        -2.0330   -8.3670   22.2240 C.3       1 4K4         0.0107
     17 CAQ        -2.0980   -6.8670   22.4080 C.3       1 4K4         0.0382
     18 NBM        -3.1190   -6.2830   21.4950 N.am      1 4K4        -0.2739
     19 CBA        -2.8610   -5.1850   20.7830 C.2       1 4K4         0.1959
     20 OAE        -3.7550   -4.6680   20.1880 O.2       1 4K4        -0.3902
     21 CBB        -1.5190   -4.4950   20.7590 C.ar      1 4K4         0.0287
     22 CAN        -1.1920   -3.6320   21.7650 C.ar      1 4K4        -0.0230
     23 CBE         0.0620   -3.0330   21.7420 C.ar      1 4K4         0.1199
     24 OAZ         0.4580   -2.1870   22.7280 O.3       1 4K4        -0.3244
     25 CAA        -0.3550   -2.2630   23.9070 C.3       1 4K4         0.0570
     26 CAI        -0.6440   -4.7530   19.7210 C.ar      1 4K4        -0.0628
     27 CAJ         0.6130   -4.1540   19.7040 C.ar      1 4K4        -0.0406
     28 CBC         0.9690   -3.2920   20.7290 C.ar      1 4K4         0.0980
     29 NAY         2.1780   -2.6310   20.7720 N.pl3     1 4K4        -0.2525
     30 C2          3.2880   -2.9560   20.0710 C.ar      1 4K4         0.1790
     31 NBP         4.6740   -5.3700   17.9600 N.pl3     1 4K4        -0.2441
     32 CAD         4.0380   -6.5630   18.4600 C.3       1 4K4         0.0374
     33 CBH         5.0190   -5.3430   16.6470 C.ar      1 4K4         0.0853
     34 CAL         4.1180   -5.8980   15.7080 C.ar      1 4K4        -0.0326
     35 CAH         4.4350   -5.8420   14.3670 C.ar      1 4K4        -0.0674
     36 CAG         5.6230   -5.2680   13.9250 C.ar      1 4K4        -0.0679
     37 CAK         6.4900   -4.6960   14.8590 C.ar      1 4K4        -0.0510
     38 CBG         6.1720   -4.7620   16.2010 C.ar      1 4K4         0.0789
     39 CBF         7.1510   -4.1850   17.1770 C.2       1 4K4         0.2275
     40 OAF         8.3310   -4.2590   16.8360 O.2       1 4K4        -0.3767
     41 NBO         6.8330   -3.5560   18.3190 N.am      1 4K4        -0.2228
     42 CAC         7.9440   -3.0790   19.1030 C.3       1 4K4         0.0413
     43 H1          6.1929   -1.4612   19.6249 H         1 4K4         0.0700
     44 H2         -2.9545  -10.3034   24.6333 H         1 4K4         0.0868
     45 H3         -4.7025  -10.4552   24.2485 H         1 4K4         0.0868
     46 H4         -4.3824  -12.8242   23.6342 H         1 4K4         0.0868
     47 H5         -3.7837  -12.5221   25.3007 H         1 4K4         0.0868
     48 H6         -1.6003  -12.2227   24.3197 H         1 4K4         0.2035
     49 H7         -1.0063  -14.4880   23.9460 H         1 4K4         0.0778
     50 H8         -2.7585  -14.8597   23.8111 H         1 4K4         0.0778
     51 H9         -2.0850  -14.2575   25.3637 H         1 4K4         0.0778
     52 H10        -2.9057  -13.0596   21.8326 H         1 4K4         0.0868
     53 H11        -1.1276  -12.9583   22.0669 H         1 4K4         0.0868
     54 H12        -2.0728  -10.8901   21.0035 H         1 4K4         0.0868
     55 H13        -1.2979  -10.5552   22.5891 H         1 4K4         0.0868
     56 H14        -4.1614  -10.7882   22.0024 H         1 4K4         0.2040
     57 H15        -3.7525   -8.5835   23.4891 H         1 4K4         0.0852
     58 H16        -5.3924   -8.8477   21.6347 H         1 4K4         0.0339
     59 H17        -4.0445   -8.7533   20.4510 H         1 4K4         0.0339
     60 H18        -5.0179   -6.5765   22.3784 H         1 4K4         0.0523
     61 H19        -5.0096   -6.5388   20.5825 H         1 4K4         0.0523
     62 H20        -1.7362   -8.6010   21.1910 H         1 4K4         0.0339
     63 H21        -1.2984   -8.7944   22.9223 H         1 4K4         0.0339
     64 H22        -1.1145   -6.4297   22.1811 H         1 4K4         0.0523
     65 H23        -2.3689   -6.6396   23.4496 H         1 4K4         0.0523
     66 H24        -1.8939   -3.4189   22.5631 H         1 4K4         0.0553
     67 H25         0.0223   -1.5542   24.6588 H         1 4K4         0.0573
     68 H26        -0.3163   -3.2842   24.3139 H         1 4K4         0.0573
     69 H27        -1.3945   -2.0088   23.6526 H         1 4K4         0.0573
     70 H28        -0.9362   -5.4220   18.9197 H         1 4K4         0.0548
     71 H29         1.3064   -4.3600   18.8967 H         1 4K4         0.0514
     72 H30         2.2419   -1.8139   21.3958 H         1 4K4         0.2125
     73 H31         3.8184   -6.4401   19.5308 H         1 4K4         0.0535
     74 H32         4.7095   -7.4228   18.3197 H         1 4K4         0.0535
     75 H33         3.1007   -6.7364   17.9111 H         1 4K4         0.0535
     76 H34         3.1940   -6.3595   16.0371 H         1 4K4         0.0545
     77 H35         3.7434   -6.2543   13.6412 H         1 4K4         0.0622
     78 H36         5.8723   -5.2648   12.8701 H         1 4K4         0.0529
     79 H37         7.4010   -4.2064   14.5343 H         1 4K4         0.0638
     80 H38         7.5669   -2.5837   20.0099 H         1 4K4         0.0542
     81 H39         8.5299   -2.3613   18.5100 H         1 4K4         0.0542
     82 H40         8.5832   -3.9278   19.3876 H         1 4K4         0.0542
@<TRIPOS>BOND
     1    1    2 ar 
     2    5    1 ar 
     3    1   31 1  
     4    3    2 ar 
     5    2   41 1  
     6    4    3 ar 
     7   30    4 ar 
     8   30    5 ar 
     9    6    7 1  
    10   12    6 1  
    11    7    8 1  
    12    8    9 1  
    13   10    8 1  
    14   11   10 1  
    15   12   11 1  
    16   13   12 1  
    17   14   13 1  
    18   16   13 1  
    19   15   14 1  
    20   18   15 1  
    21   17   16 1  
    22   18   17 1  
    23   19   18 am 
    24   19   20 2  
    25   21   19 1  
    26   22   21 ar 
    27   26   21 ar 
    28   23   22 ar 
    29   23   24 1  
    30   28   23 ar 
    31   24   25 1  
    32   27   26 ar 
    33   28   27 ar 
    34   29   28 1  
    35   29   30 1  
    36   31   32 1  
    37   31   33 1  
    38   33   34 ar 
    39   33   38 ar 
    40   34   35 ar 
    41   35   36 ar 
    42   36   37 ar 
    43   37   38 ar 
    44   38   39 1  
    45   39   40 2  
    46   39   41 am 
    47   41   42 1  
    48    3   43 1  
    49    6   44 1  
    50    6   45 1  
    51    7   46 1  
    52    7   47 1  
    53    8   48 1  
    54    9   49 1  
    55    9   50 1  
    56    9   51 1  
    57   10   52 1  
    58   10   53 1  
    59   11   54 1  
    60   11   55 1  
    61   12   56 1  
    62   13   57 1  
    63   14   58 1  
    64   14   59 1  
    65   15   60 1  
    66   15   61 1  
    67   16   62 1  
    68   16   63 1  
    69   17   64 1  
    70   17   65 1  
    71   22   66 1  
    72   25   67 1  
    73   25   68 1  
    74   25   69 1  
    75   26   70 1  
    76   27   71 1  
    77   29   72 1  
    78   32   73 1  
    79   32   74 1  
    80   32   75 1  
    81   34   76 1  
    82   35   77 1  
    83   36   78 1  
    84   37   79 1  
    85   42   80 1  
    86   42   81 1  
    87   42   82 1  
@<TRIPOS>SUBSTRUCTURE
     1 4K4         1

