### 
### Created by X-TOOL on Mon Sep 10 21:13:34 2018
### 

@<TRIPOS>MOLECULE
5oq7_ligand
   57    60     1     0     0
SMALL
GAST_HUCK


@<TRIPOS>ATOM
      1 C1          0.8780   -4.5700   19.7330 C.ar      1 A0Q        -0.0321
      2 C2          1.7990   -4.9680   18.7650 C.ar      1 A0Q         0.0740
      3 C3          1.3610   -5.8220   17.7330 C.ar      1 A0Q         0.1028
      4 C4          0.0240   -6.2260   17.6830 C.ar      1 A0Q        -0.0373
      5 C5         -0.8850   -5.8140   18.6630 C.ar      1 A0Q        -0.0476
      6 C6         -0.4660   -4.9840   19.7210 C.ar      1 A0Q         0.0353
      7 O7          2.2610   -6.2140   16.7710 O.3       1 A0Q        -0.3083
      8 C8          1.9890   -7.3930   15.9540 C.3       1 A0Q         0.1033
      9 C9          3.2630   -7.7100   15.1450 C.ar      1 A0Q        -0.0130
     10 N10        -1.4060   -4.5460   20.7420 N.pl3     1 A0Q        -0.3037
     11 C11         3.2940   -4.4930   18.8390 C.2       1 A0Q         0.2259
     12 N12         4.2650   -5.1770   18.1690 N.am      1 A0Q        -0.2282
     13 O13         3.5960   -3.5340   19.5450 O.2       1 A0Q        -0.3783
     14 C14         5.5920   -4.7490   17.8920 C.ar      1 A0Q         0.0937
     15 C15         6.1640   -3.6090   18.4060 C.ar      1 A0Q        -0.0216
     16 C16         7.4550   -3.2660   18.0870 C.ar      1 A0Q        -0.0480
     17 C17         8.1910   -4.0990   17.2480 C.ar      1 A0Q        -0.0050
     18 N18         7.6150   -5.1860   16.7350 N.ar      1 A0Q        -0.3128
     19 C19         6.3680   -5.5230   17.0370 C.ar      1 A0Q         0.0312
     20 C20         3.8480   -6.7410   14.3360 C.ar      1 A0Q        -0.0578
     21 C21         5.0160   -6.9880   13.6210 C.ar      1 A0Q        -0.0685
     22 C22         5.6010   -8.2290   13.7020 C.ar      1 A0Q        -0.0687
     23 C23         4.9990   -9.2010   14.4960 C.ar      1 A0Q        -0.0685
     24 C24         3.8490   -8.9590   15.2340 C.ar      1 A0Q        -0.0578
     25 C25        -0.9120   -3.9240   21.9890 C.3       1 A0Q         0.0649
     26 C26        -1.8700   -4.1750   23.1900 C.3       1 A0Q        -0.0124
     27 N27        -3.2840   -3.9910   22.8230 N.4       1 A0Q         0.2358
     28 C28        -3.6800   -4.9600   21.7900 C.3       1 A0Q        -0.0124
     29 C29        -2.9000   -4.6660   20.5070 C.3       1 A0Q         0.0649
     30 C30        -4.1630   -4.0360   24.0100 C.3       1 A0Q        -0.0430
     31 H1          1.2119   -3.9137   20.5285 H         1 A0Q         0.0536
     32 H2         -0.3124   -6.8660   16.8754 H         1 A0Q         0.0525
     33 H3         -1.9187   -6.1356   18.6079 H         1 A0Q         0.0529
     34 H4          1.1523   -7.1891   15.2697 H         1 A0Q         0.0777
     35 H5          1.7345   -8.2457   16.6006 H         1 A0Q         0.0777
     36 H6          4.0145   -6.0851   17.8336 H         1 A0Q         0.2275
     37 H7          5.5894   -2.9739   19.0705 H         1 A0Q         0.0622
     38 H8          7.8956   -2.3583   18.4833 H         1 A0Q         0.0667
     39 H9          9.2234   -3.8654   17.0142 H         1 A0Q         0.0690
     40 H10         5.9441   -6.4232   16.6069 H         1 A0Q         0.0711
     41 H11         3.3806   -5.7658   14.2605 H         1 A0Q         0.0557
     42 H12         5.4588   -6.2114   13.0079 H         1 A0Q         0.0599
     43 H13         6.5132   -8.4466   13.1583 H         1 A0Q         0.0559
     44 H14         5.4468  -10.1872   14.5396 H         1 A0Q         0.0599
     45 H15         3.4209   -9.7299   15.8644 H         1 A0Q         0.0557
     46 H16        -0.8183   -2.8394   21.8311 H         1 A0Q         0.0562
     47 H17         0.0750   -4.3462   22.2288 H         1 A0Q         0.0562
     48 H18        -1.6190   -3.4702   23.9964 H         1 A0Q         0.0834
     49 H19        -1.7281   -5.2059   23.5466 H         1 A0Q         0.0834
     50 H20        -3.3755   -3.0710   22.4214 H         1 A0Q         0.2032
     51 H21        -4.7588   -4.8707   21.5945 H         1 A0Q         0.0834
     52 H22        -3.4529   -5.9797   22.1343 H         1 A0Q         0.0834
     53 H23        -3.0789   -5.4825   19.7920 H         1 A0Q         0.0562
     54 H24        -3.2661   -3.7197   20.0821 H         1 A0Q         0.0562
     55 H25        -3.8221   -3.2940   24.7470 H         1 A0Q         0.0778
     56 H26        -4.1250   -5.0405   24.4566 H         1 A0Q         0.0778
     57 H27        -5.1962   -3.8069   23.7101 H         1 A0Q         0.0778
@<TRIPOS>BOND
     1    1    2 ar 
     2    1    6 ar 
     3    2    3 ar 
     4    2   11 1  
     5    3    4 ar 
     6    3    7 1  
     7    4    5 ar 
     8    5    6 ar 
     9    6   10 1  
    10    7    8 1  
    11    8    9 1  
    12    9   20 ar 
    13    9   24 ar 
    14   10   25 1  
    15   10   29 1  
    16   11   12 am 
    17   11   13 2  
    18   12   14 1  
    19   14   15 ar 
    20   14   19 ar 
    21   15   16 ar 
    22   16   17 ar 
    23   17   18 ar 
    24   18   19 ar 
    25   20   21 ar 
    26   21   22 ar 
    27   22   23 ar 
    28   23   24 ar 
    29   25   26 1  
    30   26   27 1  
    31   27   28 1  
    32   27   30 1  
    33   28   29 1  
    34    1   31 1  
    35    4   32 1  
    36    5   33 1  
    37    8   34 1  
    38    8   35 1  
    39   12   36 1  
    40   15   37 1  
    41   16   38 1  
    42   17   39 1  
    43   19   40 1  
    44   20   41 1  
    45   21   42 1  
    46   22   43 1  
    47   23   44 1  
    48   24   45 1  
    49   25   46 1  
    50   25   47 1  
    51   26   48 1  
    52   26   49 1  
    53   27   50 1  
    54   28   51 1  
    55   28   52 1  
    56   29   53 1  
    57   29   54 1  
    58   30   55 1  
    59   30   56 1  
    60   30   57 1  
@<TRIPOS>SUBSTRUCTURE
     1 A0Q         1

