### 
### Created by X-TOOL on Mon Sep 10 21:13:31 2018
### 

@<TRIPOS>MOLECULE
5oq8_ligand
   57    60     1     0     0
SMALL
GAST_HUCK


@<TRIPOS>ATOM
      1 C1          1.2770   -4.5730   19.3420 C.ar      1 A0Q        -0.0321
      2 C2          2.2450   -4.9610   18.4740 C.ar      1 A0Q         0.0740
      3 C3          1.9490   -5.7690   17.4010 C.ar      1 A0Q         0.1028
      4 C4          0.6760   -6.2870   17.2190 C.ar      1 A0Q        -0.0373
      5 C5         -0.3010   -5.9230   18.1120 C.ar      1 A0Q        -0.0476
      6 C6          0.0180   -5.0620   19.1800 C.ar      1 A0Q         0.0353
      7 O7          2.9880   -6.0730   16.5880 O.3       1 A0Q        -0.3083
      8 C8          2.6800   -6.9370   15.4720 C.3       1 A0Q         0.1033
      9 C9          4.0310   -7.2090   14.7480 C.ar      1 A0Q        -0.0130
     10 N10        -0.9270   -4.7120   20.1330 N.pl3     1 A0Q        -0.3037
     11 C11         3.6230   -4.4510   18.6540 C.2       1 A0Q         0.2259
     12 N12         4.6140   -4.9930   17.9320 N.am      1 A0Q        -0.2282
     13 O13         3.8300   -3.5600   19.4690 O.2       1 A0Q        -0.3783
     14 C14         5.8850   -4.4760   17.7490 C.ar      1 A0Q         0.0937
     15 C15         6.3510   -3.3980   18.4180 C.ar      1 A0Q        -0.0216
     16 C16         7.6200   -2.9570   18.1750 C.ar      1 A0Q        -0.0480
     17 C17         8.3740   -3.5980   17.2130 C.ar      1 A0Q        -0.0050
     18 N18         7.8910   -4.6330   16.5630 N.ar      1 A0Q        -0.3128
     19 C19         6.6790   -5.1030   16.8120 C.ar      1 A0Q         0.0312
     20 C20         4.4680   -6.3640   13.7220 C.ar      1 A0Q        -0.0578
     21 C21         5.6950   -6.5680   13.1220 C.ar      1 A0Q        -0.0685
     22 C22         6.5020   -7.6400   13.4980 C.ar      1 A0Q        -0.0687
     23 C23         6.0590   -8.4770   14.5050 C.ar      1 A0Q        -0.0685
     24 C24         4.8390   -8.2690   15.1410 C.ar      1 A0Q        -0.0578
     25 C25        -0.3700   -4.3150   21.4480 C.3       1 A0Q         0.0649
     26 C26        -1.4010   -3.6730   22.3300 C.3       1 A0Q        -0.0124
     27 N27        -2.6480   -4.4540   22.2340 N.4       1 A0Q         0.2358
     28 C28        -3.2230   -4.4720   20.8660 C.3       1 A0Q        -0.0124
     29 C29        -2.2960   -5.2550   19.9770 C.3       1 A0Q         0.0649
     30 C30        -3.6560   -3.8320   23.1010 C.3       1 A0Q        -0.0430
     31 H1          1.5027   -3.8861   20.1496 H         1 A0Q         0.0536
     32 H2          0.4587   -6.9590   16.3966 H         1 A0Q         0.0525
     33 H3         -1.3121   -6.2961   17.9958 H         1 A0Q         0.0529
     34 H4          1.9745   -6.4411   14.7891 H         1 A0Q         0.0777
     35 H5          2.2423   -7.8806   15.8297 H         1 A0Q         0.0777
     36 H6          4.4142   -5.8614   17.4783 H         1 A0Q         0.2275
     37 H7          5.7234   -2.8886   19.1403 H         1 A0Q         0.0622
     38 H8          8.0280   -2.1185   18.7277 H         1 A0Q         0.0667
     39 H9          9.3744   -3.2443   16.9914 H         1 A0Q         0.0690
     40 H10         6.3129   -5.9753   16.2827 H         1 A0Q         0.0711
     41 H11         3.8391   -5.5435   13.3958 H         1 A0Q         0.0557
     42 H12         6.0341   -5.8867   12.3500 H         1 A0Q         0.0599
     43 H13         7.4553   -7.8136   13.0120 H         1 A0Q         0.0559
     44 H14         6.6767   -9.3153   14.8063 H         1 A0Q         0.0599
     45 H15         4.5206   -8.9303   15.9387 H         1 A0Q         0.0557
     46 H16         0.4503   -3.6007   21.2842 H         1 A0Q         0.0562
     47 H17         0.0195   -5.2113   21.9529 H         1 A0Q         0.0562
     48 H18        -1.5831   -2.6404   21.9976 H         1 A0Q         0.0834
     49 H19        -1.0465   -3.6659   23.3713 H         1 A0Q         0.0834
     50 H20        -2.4658   -5.3995   22.5321 H         1 A0Q         0.2032
     51 H21        -3.3196   -3.4431   20.4891 H         1 A0Q         0.0834
     52 H22        -4.2134   -4.9503   20.8846 H         1 A0Q         0.0834
     53 H23        -2.3102   -6.3156   20.2683 H         1 A0Q         0.0562
     54 H24        -2.6167   -5.1582   18.9293 H         1 A0Q         0.0562
     55 H25        -3.2782   -3.7935   24.1334 H         1 A0Q         0.0778
     56 H26        -4.5817   -4.4254   23.0713 H         1 A0Q         0.0778
     57 H27        -3.8634   -2.8110   22.7482 H         1 A0Q         0.0778
@<TRIPOS>BOND
     1    1    2 ar 
     2    1    6 ar 
     3    2    3 ar 
     4    2   11 1  
     5    3    4 ar 
     6    3    7 1  
     7    4    5 ar 
     8    5    6 ar 
     9    6   10 1  
    10    7    8 1  
    11    8    9 1  
    12    9   20 ar 
    13    9   24 ar 
    14   10   25 1  
    15   10   29 1  
    16   11   12 am 
    17   11   13 2  
    18   12   14 1  
    19   14   15 ar 
    20   14   19 ar 
    21   15   16 ar 
    22   16   17 ar 
    23   17   18 ar 
    24   18   19 ar 
    25   20   21 ar 
    26   21   22 ar 
    27   22   23 ar 
    28   23   24 ar 
    29   25   26 1  
    30   26   27 1  
    31   27   28 1  
    32   27   30 1  
    33   28   29 1  
    34    1   31 1  
    35    4   32 1  
    36    5   33 1  
    37    8   34 1  
    38    8   35 1  
    39   12   36 1  
    40   15   37 1  
    41   16   38 1  
    42   17   39 1  
    43   19   40 1  
    44   20   41 1  
    45   21   42 1  
    46   22   43 1  
    47   23   44 1  
    48   24   45 1  
    49   25   46 1  
    50   25   47 1  
    51   26   48 1  
    52   26   49 1  
    53   27   50 1  
    54   28   51 1  
    55   28   52 1  
    56   29   53 1  
    57   29   54 1  
    58   30   55 1  
    59   30   56 1  
    60   30   57 1  
@<TRIPOS>SUBSTRUCTURE
     1 A0Q         1

