### 
### Created by X-TOOL on Wed Jan  1 15:39:38 2020
### 

@<TRIPOS>MOLECULE
5oqu_ligand
   32    33     1     0     0
SMALL
GAST_HUCK


@<TRIPOS>ATOM
      1 C4          4.4090  143.8390  350.8820 C.ar      1 A4B        -0.0728
      2 C11         5.1120  136.1340  352.8250 C.3       1 A4B        -0.0019
      3 C3          4.9710  144.1370  349.6630 C.ar      1 A4B        -0.0710
      4 C2          5.5590  143.1410  348.9050 C.ar      1 A4B        -0.0323
      5 C1          5.5780  141.8400  349.3830 C.ar      1 A4B         0.0997
      6 C13         4.1840  139.1160  350.6830 C.ar      1 A4B         0.0396
      7 CL          3.0770  139.4420  349.3890 Cl        1 A4B        -0.0728
      8 C12         4.2110  137.8400  351.2090 C.ar      1 A4B        -0.0420
      9 C10         5.0790  137.5260  352.2460 C.ar      1 A4B         0.0010
     10 N           6.0380  135.2140  352.1730 N.4       1 A4B         0.2308
     11 C9          5.9100  138.5210  352.7330 C.ar      1 A4B        -0.0556
     12 C8          5.8830  139.7990  352.2050 C.ar      1 A4B        -0.0622
     13 C7          5.0160  140.1240  351.1650 C.ar      1 A4B        -0.0140
     14 C6          5.0120  141.5150  350.6190 C.ar      1 A4B         0.0090
     15 O           6.1390  140.8000  348.6960 O.3       1 A4B        -0.3192
     16 C           6.6700  141.0770  347.4030 C.3       1 A4B         0.0601
     17 C5          4.4270  142.5410  351.3600 C.ar      1 A4B        -0.0633
     18 H1          3.9498  144.6247  351.4710 H         1 A4B         0.0524
     19 H2          4.1001  135.7094  352.7493 H         1 A4B         0.0979
     20 H3          5.3986  136.2122  353.8841 H         1 A4B         0.0979
     21 H4          4.9531  145.1564  349.2948 H         1 A4B         0.0585
     22 H5          6.0019  143.3760  347.9439 H         1 A4B         0.0540
     23 H6          3.5505  137.0787  350.8100 H         1 A4B         0.0563
     24 H7          5.9915  134.3142  352.6249 H         1 A4B         0.2008
     25 H8          6.9760  135.5765  352.2418 H         1 A4B         0.2008
     26 H9          5.7861  135.1157  351.2019 H         1 A4B         0.2008
     27 H10         6.5940  138.2941  353.5427 H         1 A4B         0.0559
     28 H11         6.5454  140.5576  352.6060 H         1 A4B         0.0593
     29 H12         7.0855  140.1542  346.9719 H         1 A4B         0.0579
     30 H13         7.4649  141.8326  347.4872 H         1 A4B         0.0579
     31 H14         5.8695  141.4579  346.7517 H         1 A4B         0.0579
     32 H15         3.9808  142.3188  352.3226 H         1 A4B         0.0586
@<TRIPOS>BOND
     1    3    1 ar 
     2    1   17 ar 
     3    9    2 1  
     4    2   10 1  
     5    4    3 ar 
     6    5    4 ar 
     7   14    5 ar 
     8    5   15 1  
     9    6    7 1  
    10    6    8 ar 
    11   13    6 ar 
    12    8    9 ar 
    13   11    9 ar 
    14   12   11 ar 
    15   13   12 ar 
    16   13   14 1  
    17   14   17 ar 
    18   15   16 1  
    19    1   18 1  
    20    2   19 1  
    21    2   20 1  
    22    3   21 1  
    23    4   22 1  
    24    8   23 1  
    25   10   24 1  
    26   10   25 1  
    27   10   26 1  
    28   11   27 1  
    29   12   28 1  
    30   16   29 1  
    31   16   30 1  
    32   16   31 1  
    33   17   32 1  
@<TRIPOS>SUBSTRUCTURE
     1 A4B         1

