### 
### Created by X-TOOL on Wed Jan  1 15:39:38 2020
### 

@<TRIPOS>MOLECULE
5oqw_ligand
   84    88     1     0     0
SMALL
GAST_HUCK


@<TRIPOS>ATOM
      1 C1         25.6450   -3.2750  -26.3450 C.3       1 A4E        -0.0167
      2 C2         24.9790   -1.9700  -25.9320 C.3       1 A4E         0.0157
      3 C3         24.9370   -1.7980  -24.4160 C.3       1 A4E         0.0144
      4 N4         24.1090   -0.6610  -23.9910 N.4       1 A4E         0.2663
      5 C5         24.2320   -0.4320  -22.5440 C.3       1 A4E         0.0695
      6 C6         23.5120   -1.4380  -21.6600 C.2       1 A4E         0.2703
      7 C10        24.1870   -0.2820  -18.2110 C.3       1 A4E        -0.0286
      8 C11        25.6090   -0.7290  -17.8700 C.3       1 A4E        -0.0961
      9 C12        23.8000    0.9180  -17.3300 C.3       1 A4E        -0.0961
     10 C13        23.1680   -1.3930  -18.0490 C.ar      1 A4E         0.0200
     11 C15        21.8100   -2.8480  -16.9430 C.ar      1 A4E         0.0767
     12 C16        21.3540   -3.3080  -15.5830 C.3       1 A4E         0.0971
     13 O17        22.1450   -4.3900  -15.1080 O.3       1 A4E        -0.3799
     14 C19        20.3060   -4.5280  -18.2470 C.3       1 A4E         0.0282
     15 C21        20.3720   -6.8120  -17.1960 C.ar      1 A4E        -0.0587
     16 C22        20.8530   -8.1040  -17.1310 C.ar      1 A4E        -0.0339
     17 C23        21.7820   -8.5050  -18.0410 C.ar      1 A4E         0.1257
     18 C25        22.2570   -7.6830  -19.0130 C.ar      1 A4E        -0.0339
     19 C26        21.7820   -6.3880  -19.0870 C.ar      1 A4E        -0.0587
     20 C27        21.8380   -2.8860  -19.3790 C.ar      1 A4E         0.0137
     21 C28        22.7660   -1.8680  -19.2900 C.ar      1 A4E         0.1179
     22 C35        20.0840    1.6110  -20.9280 C.3       1 A4E         0.0903
     23 C36        20.7890    1.8080  -22.2720 C.3       1 A4E         0.0004
     24 C37        21.8600    2.8890  -22.1410 C.3       1 A4E        -0.0194
     25 C38        22.8370   -0.7080  -26.0740 C.3       1 A4E         0.0159
     26 O7         23.0160   -2.4540  -22.1340 O.2       1 A4E        -0.3675
     27 N8         23.4460   -1.1530  -20.3060 N.am      1 A4E        -0.1974
     28 C9         24.0450    0.0660  -19.7090 C.3       1 A4E         0.0380
     29 N14        22.7140   -1.8580  -16.9220 N.ar      1 A4E        -0.2961
     30 C18        21.3280   -3.4120  -18.1890 C.ar      1 A4E         0.0232
     31 C20        20.8330   -5.9380  -18.1770 C.ar      1 A4E        -0.0302
     32 F24        22.2540   -9.7790  -17.9740 F         1 A4E        -0.1886
     33 C29        22.7370   -0.6050  -24.5550 C.3       1 A4E         0.0626
     34 C30        21.8920    0.6140  -24.1480 C.3       1 A4E         0.0177
     35 N31        21.2720    0.5100  -22.8140 N.4       1 A4E         0.2445
     36 C32        20.2360   -0.5320  -22.7900 C.3       1 A4E        -0.0074
     37 C33        19.5920   -0.6250  -21.4200 C.3       1 A4E         0.0878
     38 O34        19.0440    0.6350  -21.0240 O.3       1 A4E        -0.3690
     39 N39        23.5750   -1.9370  -26.4650 N.4       1 A4E         0.2368
     40 H1         26.6734   -3.3011  -25.9556 H         1 A4E         0.0286
     41 H2         25.6667   -3.3443  -27.4426 H         1 A4E         0.0286
     42 H3         25.0762   -4.1227  -25.9353 H         1 A4E         0.0286
     43 H4         25.5493   -1.1346  -26.3643 H         1 A4E         0.0901
     44 H5         25.9630   -1.6399  -24.0524 H         1 A4E         0.0871
     45 H6         24.5273   -2.7163  -23.9700 H         1 A4E         0.0871
     46 H7         24.5591    0.1401  -24.4053 H         1 A4E         0.2063
     47 H8         23.8255    0.5659  -22.3227 H         1 A4E         0.1073
     48 H9         25.3010   -0.4580  -22.2861 H         1 A4E         0.1073
     49 H10        26.3011    0.1152  -18.0055 H         1 A4E         0.0089
     50 H11        25.9032   -1.5546  -18.5347 H         1 A4E         0.0089
     51 H12        25.6457   -1.0691  -16.8245 H         1 A4E         0.0089
     52 H13        22.7770    1.2387  -17.5761 H         1 A4E         0.0089
     53 H14        24.4984    1.7478  -17.5132 H         1 A4E         0.0089
     54 H15        23.8477    0.6257  -16.2706 H         1 A4E         0.0089
     55 H16        20.3053   -3.6334  -15.6485 H         1 A4E         0.0751
     56 H17        21.4342   -2.4690  -14.8761 H         1 A4E         0.0751
     57 H18        23.0518   -4.1140  -15.0447 H         1 A4E         0.2130
     58 H19        19.7551   -4.4256  -19.1936 H         1 A4E         0.0643
     59 H20        19.6141   -4.3894  -17.4032 H         1 A4E         0.0643
     60 H21        19.6313   -6.4758  -16.4794 H         1 A4E         0.0556
     61 H22        20.4970   -8.7873  -16.3685 H         1 A4E         0.0589
     62 H23        22.9979   -8.0382  -19.7201 H         1 A4E         0.0589
     63 H24        22.1507   -5.7206  -19.8575 H         1 A4E         0.0556
     64 H25        21.5150   -3.2655  -20.3417 H         1 A4E         0.0648
     65 H26        19.6477    2.5689  -20.6086 H         1 A4E         0.0616
     66 H27        20.8208    1.2770  -20.1827 H         1 A4E         0.0616
     67 H28        20.0423    2.1865  -22.9856 H         1 A4E         0.0871
     68 H29        22.3630    3.0261  -23.1096 H         1 A4E         0.0285
     69 H30        22.5981    2.5842  -21.3845 H         1 A4E         0.0285
     70 H31        21.3903    3.8353  -21.8346 H         1 A4E         0.0285
     71 H32        23.3694    0.1728  -26.4623 H         1 A4E         0.0872
     72 H33        21.8242   -0.7424  -26.5019 H         1 A4E         0.0872
     73 H34        25.0275    0.2778  -20.1560 H         1 A4E         0.0483
     74 H35        23.3842    0.9343  -19.8477 H         1 A4E         0.0483
     75 H36        22.2022   -1.4933  -24.1878 H         1 A4E         0.0959
     76 H37        21.0903    0.7398  -24.8906 H         1 A4E         0.0873
     77 H38        22.5422    1.5012  -24.1564 H         1 A4E         0.0873
     78 H39        22.0004    0.2029  -22.1885 H         1 A4E         0.2040
     79 H40        20.6939   -1.5007  -23.0389 H         1 A4E         0.0837
     80 H41        19.4639   -0.2892  -23.5349 H         1 A4E         0.0837
     81 H42        20.3510   -0.9336  -20.6861 H         1 A4E         0.0613
     82 H43        18.7865   -1.3735  -21.4513 H         1 A4E         0.0613
     83 H44        23.0770   -2.7380  -26.1094 H         1 A4E         0.2020
     84 H45        23.6117   -1.9837  -27.4712 H         1 A4E         0.2020
@<TRIPOS>BOND
     1    2    1 1  
     2    3    2 1  
     3   39    2 1  
     4    4    3 1  
     5    4    5 1  
     6   33    4 1  
     7    5    6 1  
     8    6   26 2  
     9    6   27 am 
    10    7    8 1  
    11    7    9 1  
    12    7   10 1  
    13   28    7 1  
    14   21   10 ar 
    15   10   29 ar 
    16   11   12 1  
    17   29   11 ar 
    18   30   11 ar 
    19   12   13 1  
    20   30   14 1  
    21   14   31 1  
    22   15   16 ar 
    23   31   15 ar 
    24   16   17 ar 
    25   18   17 ar 
    26   17   32 1  
    27   19   18 ar 
    28   31   19 ar 
    29   21   20 ar 
    30   20   30 ar 
    31   27   21 1  
    32   23   22 1  
    33   22   38 1  
    34   23   24 1  
    35   35   23 1  
    36   33   25 1  
    37   25   39 1  
    38   27   28 1  
    39   34   33 1  
    40   34   35 1  
    41   35   36 1  
    42   36   37 1  
    43   37   38 1  
    44    1   40 1  
    45    1   41 1  
    46    1   42 1  
    47    2   43 1  
    48    3   44 1  
    49    3   45 1  
    50    4   46 1  
    51    5   47 1  
    52    5   48 1  
    53    8   49 1  
    54    8   50 1  
    55    8   51 1  
    56    9   52 1  
    57    9   53 1  
    58    9   54 1  
    59   12   55 1  
    60   12   56 1  
    61   13   57 1  
    62   14   58 1  
    63   14   59 1  
    64   15   60 1  
    65   16   61 1  
    66   18   62 1  
    67   19   63 1  
    68   20   64 1  
    69   22   65 1  
    70   22   66 1  
    71   23   67 1  
    72   24   68 1  
    73   24   69 1  
    74   24   70 1  
    75   25   71 1  
    76   25   72 1  
    77   28   73 1  
    78   28   74 1  
    79   33   75 1  
    80   34   76 1  
    81   34   77 1  
    82   35   78 1  
    83   36   79 1  
    84   36   80 1  
    85   37   81 1  
    86   37   82 1  
    87   39   83 1  
    88   39   84 1  
@<TRIPOS>SUBSTRUCTURE
     1 A4E         1

