### 
### Created by X-TOOL on Mon Sep 10 21:13:32 2018
### 

@<TRIPOS>MOLECULE
5or9_ligand
   48    51     1     0     0
SMALL
GAST_HUCK


@<TRIPOS>ATOM
      1 C01        24.7100   11.3480    0.4990 C.3       1 JR5         0.0517
      2 C04        25.7020    7.8550    0.9280 C.2       1 JR5        -0.0146
      3 C05        26.9280    8.4230    0.5470 C.2       1 JR5        -0.0137
      4 C06        26.6970    9.7710    0.3670 C.2       1 JR5         0.1761
      5 C08        28.8400   10.6100   -0.8640 C.2       1 JR5         0.2279
      6 C10        29.6640   11.8300   -1.3110 C.3       1 JR5         0.1354
      7 C11        29.3670   12.0560   -2.5390 C.3       1 JR5        -0.0137
      8 C12        30.7120   12.1980   -3.3340 C.3       1 JR5        -0.0318
      9 C13        31.8170   11.6920   -2.3960 C.3       1 JR5         0.0327
     10 C18        33.1810   12.5600    0.6710 C.ar      1 JR5         0.1044
     11 C19        34.3930   12.2830    1.3040 C.ar      1 JR5        -0.0370
     12 C20        35.2570   13.3310    1.6400 C.ar      1 JR5        -0.0263
     13 C21        34.9030   14.6690    1.3340 C.ar      1 JR5         0.1325
     14 C23        33.6830   14.9450    0.6890 C.ar      1 JR5        -0.0263
     15 C24        32.8190   13.9020    0.3600 C.ar      1 JR5        -0.0370
     16 C25        28.0110    7.3490    0.5300 C.3       1 JR5        -0.0412
     17 C26        27.4070    6.1490    1.2280 C.3       1 JR5        -0.0440
     18 C27        25.9020    6.3590    1.1690 C.3       1 JR5        -0.0222
     19 F22        35.7660   15.7020    1.6710 F         1 JR5        -0.1834
     20 N02        25.3590   10.0050    0.5930 N.pl3     1 JR5        -0.2095
     21 N03        24.7610    8.8590    0.9360 N.2       1 JR5        -0.2618
     22 N07        27.6540   10.8750   -0.0740 N.am      1 JR5        -0.2105
     23 N14        31.2630   11.4900   -1.2260 N.am      1 JR5        -0.2122
     24 O09        29.1360    9.5210   -1.1760 O.2       1 JR5        -0.3825
     25 O16        31.0380   10.9250    1.2640 O.2       1 JR5        -0.1505
     26 O17        32.7340    9.8540    0.1540 O.2       1 JR5        -0.1505
     27 S15        32.0340   11.1650    0.2280 S.o2      1 JR5         0.0710
     28 H1         23.6380   11.2539    0.7267 H         1 JR5         0.0575
     29 H2         24.8350   11.7452   -0.5191 H         1 JR5         0.0575
     30 H3         25.1792   12.0333    1.2202 H         1 JR5         0.0575
     31 H4         29.4277   12.7030   -0.6849 H         1 JR5         0.0761
     32 H5         28.7841   12.9854   -2.6190 H         1 JR5         0.0309
     33 H6         28.7792   11.2186   -2.9430 H         1 JR5         0.0309
     34 H7         30.8892   13.2507   -3.5995 H         1 JR5         0.0283
     35 H8         30.6803   11.5892   -4.2496 H         1 JR5         0.0283
     36 H9         32.6148   12.4446   -2.3114 H         1 JR5         0.0480
     37 H10        32.2389   10.7521   -2.7816 H         1 JR5         0.0480
     38 H11        34.6644   11.2592    1.5348 H         1 JR5         0.0627
     39 H12        36.1980   13.1195    2.1348 H         1 JR5         0.0604
     40 H13        33.4156   15.9676    0.4484 H         1 JR5         0.0604
     41 H14        31.8753   14.1113   -0.1306 H         1 JR5         0.0627
     42 H15        28.9048    7.6966    1.0688 H         1 JR5         0.0302
     43 H16        28.2827    7.0943   -0.5050 H         1 JR5         0.0302
     44 H17        27.7476    6.1004    2.2728 H         1 JR5         0.0292
     45 H18        27.6862    5.2209    0.7077 H         1 JR5         0.0292
     46 H19        25.4655    5.7760    0.3446 H         1 JR5         0.0400
     47 H20        25.4353    6.0577    2.1184 H         1 JR5         0.0400
     48 H21        27.4550   11.8181    0.1925 H         1 JR5         0.2292
@<TRIPOS>BOND
     1   20    1 1  
     2    3    2 1  
     3    2   18 1  
     4   21    2 2  
     5    4    3 2  
     6    3   16 1  
     7    4   20 1  
     8   22    4 1  
     9    6    5 1  
    10    5   22 am 
    11    5   24 2  
    12    6    7 1  
    13   23    6 1  
    14    8    7 1  
    15    9    8 1  
    16   23    9 1  
    17   10   11 ar 
    18   10   15 ar 
    19   27   10 1  
    20   11   12 ar 
    21   12   13 ar 
    22   14   13 ar 
    23   13   19 1  
    24   15   14 ar 
    25   16   17 1  
    26   17   18 1  
    27   20   21 1  
    28   23   27 am 
    29   27   25 2  
    30   27   26 2  
    31    1   28 1  
    32    1   29 1  
    33    1   30 1  
    34    6   31 1  
    35    7   32 1  
    36    7   33 1  
    37    8   34 1  
    38    8   35 1  
    39    9   36 1  
    40    9   37 1  
    41   11   38 1  
    42   12   39 1  
    43   14   40 1  
    44   15   41 1  
    45   16   42 1  
    46   16   43 1  
    47   17   44 1  
    48   17   45 1  
    49   18   46 1  
    50   18   47 1  
    51   22   48 1  
@<TRIPOS>SUBSTRUCTURE
     1 JR5         1

