### 
### Created by X-TOOL on Mon Sep 10 21:13:32 2018
### 

@<TRIPOS>MOLECULE
5orb_ligand
   41    43     1     0     0
SMALL
GAST_HUCK


@<TRIPOS>ATOM
      1 C01       -35.3050   -7.2600    0.3030 C.3       1 JR6         0.0579
      2 C03       -33.3090   -8.3890    0.8790 C.ar      1 JR6         0.0837
      3 C04       -32.4560   -8.8680    1.8660 C.ar      1 JR6        -0.0388
      4 C05       -31.5670   -9.8890    1.5770 C.ar      1 JR6        -0.0581
      5 C06       -31.5310  -10.4350    0.3010 C.ar      1 JR6         0.0067
      6 C08       -29.3520  -11.3410   -1.5260 C.3       1 JR6         0.1008
      7 C09       -28.3320  -10.2920   -1.0930 C.2       1 JR6         0.2179
      8 C12       -26.4450   -9.5740    0.4590 C.2       1 JR6         0.1761
      9 C13       -26.6970   -8.2260    0.6950 C.2       1 JR6        -0.0137
     10 C14       -27.8030   -7.1620    0.6690 C.3       1 JR6        -0.0412
     11 C15       -27.2590   -5.9650    1.4080 C.3       1 JR6        -0.0440
     12 C16       -25.7460   -6.1390    1.3780 C.3       1 JR6        -0.0222
     13 C17       -25.4970   -7.6430    1.1020 C.2       1 JR6        -0.0146
     14 C20       -24.4800  -11.0610    0.5960 C.3       1 JR6         0.0517
     15 C21       -32.3810   -9.9590   -0.6830 C.ar      1 JR6        -0.0581
     16 C22       -33.2680   -8.9360   -0.3940 C.ar      1 JR6        -0.0388
     17 N11       -27.4250  -10.5620    0.0150 N.am      1 JR6        -0.2113
     18 N18       -24.5490   -8.6140    1.1180 N.2       1 JR6        -0.2618
     19 N19       -25.1600   -9.7810    0.7140 N.pl3     1 JR6        -0.2095
     20 O02       -34.2060   -7.3550    1.1700 O.3       1 JR6        -0.3257
     21 O10       -28.2910   -9.2600   -1.6640 O.2       1 JR6        -0.3836
     22 S07       -30.3660  -11.7750   -0.0830 S.3       1 JR6        -0.0878
     23 H1        -35.9461   -6.4221    0.6142 H         1 JR6         0.0575
     24 H2        -35.8819   -8.1959    0.3384 H         1 JR6         0.0575
     25 H3        -34.9486   -7.0875   -0.7233 H         1 JR6         0.0575
     26 H4        -32.4868   -8.4421    2.8623 H         1 JR6         0.0526
     27 H5        -30.8999  -10.2617    2.3459 H         1 JR6         0.0538
     28 H6        -28.8312  -12.2357   -1.8979 H         1 JR6         0.0645
     29 H7        -29.9921  -10.9320   -2.3216 H         1 JR6         0.0645
     30 H8        -28.7065   -7.5400    1.1698 H         1 JR6         0.0302
     31 H9        -28.0455   -6.8904   -0.3690 H         1 JR6         0.0302
     32 H10       -27.6262   -5.9507    2.4448 H         1 JR6         0.0292
     33 H11       -27.5512   -5.0327    0.9026 H         1 JR6         0.0292
     34 H12       -25.3083   -5.8499    2.3449 H         1 JR6         0.0400
     35 H13       -25.3060   -5.5253    0.5781 H         1 JR6         0.0400
     36 H14       -23.4213  -10.9403    0.8690 H         1 JR6         0.0575
     37 H15       -24.5525  -11.4205   -0.4411 H         1 JR6         0.0575
     38 H16       -24.9518  -11.7904    1.2708 H         1 JR6         0.0575
     39 H17       -32.3520  -10.3869   -1.6786 H         1 JR6         0.0538
     40 H18       -33.9319   -8.5620   -1.1650 H         1 JR6         0.0526
     41 H19       -27.4746  -11.4446    0.4825 H         1 JR6         0.2292
@<TRIPOS>BOND
     1   20    1 1  
     2    3    2 ar 
     3    2   16 ar 
     4    2   20 1  
     5    4    3 ar 
     6    5    4 ar 
     7    5   15 ar 
     8   22    5 1  
     9    7    6 1  
    10    6   22 1  
    11   17    7 am 
    12    7   21 2  
    13    8    9 2  
    14    8   17 1  
    15    8   19 1  
    16    9   10 1  
    17    9   13 1  
    18   10   11 1  
    19   11   12 1  
    20   12   13 1  
    21   13   18 2  
    22   19   14 1  
    23   15   16 ar 
    24   18   19 1  
    25    1   23 1  
    26    1   24 1  
    27    1   25 1  
    28    3   26 1  
    29    4   27 1  
    30    6   28 1  
    31    6   29 1  
    32   10   30 1  
    33   10   31 1  
    34   11   32 1  
    35   11   33 1  
    36   12   34 1  
    37   12   35 1  
    38   14   36 1  
    39   14   37 1  
    40   14   38 1  
    41   15   39 1  
    42   16   40 1  
    43   17   41 1  
@<TRIPOS>SUBSTRUCTURE
     1 JR6         1

