### 
### Created by X-TOOL on Mon Sep 10 21:13:33 2018
### 

@<TRIPOS>MOLECULE
5org_ligand
   35    34     1     0     0
SMALL
GAST_HUCK


@<TRIPOS>ATOM
      1 O         -14.3800  -27.6770   26.0950 O.co2     1 6DB        -0.5643
      2 C         -15.3270  -26.8830   25.8000 C.2       1 6DB         0.0842
      3 CA        -16.0230  -27.1240   24.5330 C.3       1 6DB         0.0288
      4 CB        -16.8040  -28.4490   24.6310 C.3       1 6DB        -0.0094
      5 N         -16.9010  -26.0430   24.1110 N.4       1 6DB         0.2545
      6 CAI       -16.2550  -24.8030   23.6250 C.3       1 6DB         0.0318
      7 CAE       -17.3160  -23.7670   23.3810 C.2       1 6DB         0.0845
      8 OAB       -16.9810  -22.5450   23.2640 O.co2     1 6DB        -0.5643
      9 OAF       -18.5280  -24.1010   23.2650 O.co2     1 6DB        -0.5643
     10 CAK       -15.3900  -24.9460   22.3610 C.3       1 6DB         0.0057
     11 CAL       -16.1620  -25.6040   21.1740 C.3       1 6DB        -0.0131
     12 CAM       -15.6500  -25.2720   19.7760 C.3       1 6DB         0.0628
     13 NAN       -16.3090  -26.2400   18.9600 N.pl3     1 6DB        -0.2723
     14 CAP       -15.9520  -26.5410   17.6600 C.cat     1 6DB         0.2882
     15 NAO       -16.6710  -27.4130   16.9890 N.pl3     1 6DB        -0.2849
     16 NAQ       -14.9090  -25.9500   17.1620 N.pl3     1 6DB        -0.2849
     17 OXT       -15.6520  -25.9470   26.5850 O.co2     1 6DB        -0.5643
     18 H1        -15.2546  -27.2372   23.7541 H         1 6DB         0.1022
     19 H2        -17.3291  -28.6361   23.6827 H         1 6DB         0.0303
     20 H3        -17.5366  -28.3832   25.4489 H         1 6DB         0.0303
     21 H4        -16.1038  -29.2734   24.8312 H         1 6DB         0.0303
     22 H5        -17.4793  -25.7959   24.8988 H         1 6DB         0.2047
     23 H6        -17.4810  -26.3957   23.3659 H         1 6DB         0.2047
     24 H7        -15.5954  -24.4446   24.4290 H         1 6DB         0.1025
     25 H8        -14.5162  -25.5695   22.6012 H         1 6DB         0.0340
     26 H9        -15.0528  -23.9461   22.0503 H         1 6DB         0.0340
     27 H10       -17.2112  -25.2791   21.2338 H         1 6DB         0.0302
     28 H11       -16.1082  -26.6953   21.3015 H         1 6DB         0.0302
     29 H12       -14.5571  -25.3826   19.7176 H         1 6DB         0.0689
     30 H13       -15.9313  -24.2496   19.4834 H         1 6DB         0.0689
     31 H14       -17.1056  -26.7492   19.3686 H         1 6DB         0.2642
     32 H15       -16.4197  -27.6497   16.0186 H         1 6DB         0.2615
     33 H16       -17.4857  -27.8596   17.4336 H         1 6DB         0.2615
     34 H17       -14.3797  -25.2738   17.7307 H         1 6DB         0.2615
     35 H18       -14.6108  -26.1573   16.1981 H         1 6DB         0.2615
@<TRIPOS>BOND
     1    1    2 ar 
     2    2    3 1  
     3    2   17 ar 
     4    3    4 1  
     5    3    5 1  
     6    5    6 1  
     7    6    7 1  
     8    6   10 1  
     9    7    8 ar 
    10    7    9 ar 
    11   10   11 1  
    12   11   12 1  
    13   12   13 1  
    14   13   14 ar 
    15   14   15 ar 
    16   14   16 ar 
    17    3   18 1  
    18    4   19 1  
    19    4   20 1  
    20    4   21 1  
    21    5   22 1  
    22    5   23 1  
    23    6   24 1  
    24   10   25 1  
    25   10   26 1  
    26   11   27 1  
    27   11   28 1  
    28   12   29 1  
    29   12   30 1  
    30   13   31 1  
    31   15   32 1  
    32   15   33 1  
    33   16   34 1  
    34   16   35 1  
@<TRIPOS>SUBSTRUCTURE
     1 6DB         1

