### 
### Created by X-TOOL on Wed Jan  1 15:39:37 2020
### 

@<TRIPOS>MOLECULE
5orj_ligand
   34    35     1     0     0
SMALL
GAST_HUCK


@<TRIPOS>ATOM
      1 C7         -5.4540  166.7130  399.6210 C.ar      1 A4Q        -0.0190
      2 C8         -4.0080  166.5270  399.2980 C.ar      1 A4Q        -0.0140
      3 C12         0.2070  166.0080  398.4790 C.3       1 A4Q        -0.0016
      4 C11        -1.2660  166.1940  398.7560 C.ar      1 A4Q         0.0017
      5 C10        -1.6930  166.9780  399.8150 C.ar      1 A4Q        -0.0549
      6 C9         -3.0400  167.1450  400.0860 C.ar      1 A4Q        -0.0612
      7 N           0.5100  165.4240  397.1770 N.4       1 A4Q         0.2309
      8 C2         -6.1190  165.9280  400.5750 C.ar      1 A4Q        -0.0356
      9 C3         -7.4770  166.1350  400.7930 C.ar      1 A4Q        -0.0600
     10 C4         -8.1710  167.1000  400.0880 C.ar      1 A4Q        -0.0691
     11 C5         -7.5190  167.8740  399.1580 C.ar      1 A4Q        -0.0689
     12 C6         -6.1690  167.6860  398.9230 C.ar      1 A4Q        -0.0617
     13 C1         -5.3990  164.8630  401.3690 C.3       1 A4Q        -0.0211
     14 C          -4.3880  165.3970  402.3450 C.3       1 A4Q        -0.0552
     15 CL         -4.7130  164.9530  397.2050 Cl        1 A4Q        -0.0721
     16 C14        -3.5670  165.7460  398.2340 C.ar      1 A4Q         0.0406
     17 C13        -2.2240  165.5780  397.9630 C.ar      1 A4Q        -0.0413
     18 H1          0.6219  165.3489  399.2558 H         1 A4Q         0.0980
     19 H2          0.6939  166.9927  398.5352 H         1 A4Q         0.0980
     20 H3         -0.9589  167.4697  400.4430 H         1 A4Q         0.0561
     21 H4         -3.3453  167.7643  400.9217 H         1 A4Q         0.0599
     22 H5          1.5086  165.3347  397.0730 H         1 A4Q         0.2008
     23 H6          0.1484  166.0201  396.4490 H         1 A4Q         0.2008
     24 H7          0.0824  164.5137  397.1093 H         1 A4Q         0.2008
     25 H8         -7.9985  165.5307  401.5264 H         1 A4Q         0.0554
     26 H9         -9.2298  167.2465  400.2685 H         1 A4Q         0.0594
     27 H10        -8.0636  168.6329  398.6079 H         1 A4Q         0.0559
     28 H11        -5.6615  168.3012  398.1888 H         1 A4Q         0.0597
     29 H12        -4.8789  164.1992  400.6627 H         1 A4Q         0.0427
     30 H13        -6.1485  164.2860  401.9305 H         1 A4Q         0.0427
     31 H14        -3.9140  164.5591  402.8771 H         1 A4Q         0.0252
     32 H15        -4.8899  166.0547  403.0699 H         1 A4Q         0.0252
     33 H16        -3.6203  165.9679  401.8022 H         1 A4Q         0.0252
     34 H17        -1.9159  164.9616  397.1262 H         1 A4Q         0.0564
@<TRIPOS>BOND
     1    2    1 1  
     2    1    8 ar 
     3    1   12 ar 
     4    6    2 ar 
     5    2   16 ar 
     6    4    3 1  
     7    3    7 1  
     8    5    4 ar 
     9    4   17 ar 
    10    5    6 ar 
    11    8    9 ar 
    12    8   13 1  
    13    9   10 ar 
    14   10   11 ar 
    15   11   12 ar 
    16   13   14 1  
    17   16   15 1  
    18   16   17 ar 
    19    3   18 1  
    20    3   19 1  
    21    5   20 1  
    22    6   21 1  
    23    7   22 1  
    24    7   23 1  
    25    7   24 1  
    26    9   25 1  
    27   10   26 1  
    28   11   27 1  
    29   12   28 1  
    30   13   29 1  
    31   13   30 1  
    32   14   31 1  
    33   14   32 1  
    34   14   33 1  
    35   17   34 1  
@<TRIPOS>SUBSTRUCTURE
     1 A4Q         1

