### 
### Created by X-TOOL on Wed Jan  1 15:39:38 2020
### 

@<TRIPOS>MOLECULE
5ork_ligand
   28    29     1     0     0
SMALL
GAST_HUCK


@<TRIPOS>ATOM
      1 C1         70.1780  139.6210  350.6580 C.ar      1 A4T         0.0021
      2 C2         69.2390  140.0590  349.7390 C.ar      1 A4T        -0.0545
      3 C3         69.0320  141.4100  349.5140 C.ar      1 A4T        -0.0604
      4 C4         69.7540  142.3700  350.2250 C.ar      1 A4T        -0.0104
      5 C5         69.5030  143.8240  349.9920 C.ar      1 A4T         0.0125
      6 C6         68.3360  144.4220  350.4640 C.ar      1 A4T        -0.0571
      7 C8         69.0980  146.5840  349.7700 C.ar      1 A4T        -0.0643
      8 C9         70.2640  146.0250  349.2840 C.ar      1 A4T        -0.0281
      9 C11        70.6800  141.9160  351.1560 C.ar      1 A4T         0.0414
     10 C12        70.8880  140.5720  351.3790 C.ar      1 A4T        -0.0408
     11 CL         71.5980  143.0510  352.0840 Cl        1 A4T        -0.0716
     12 C          70.5580  138.1640  350.8460 C.3       1 A4T        -0.0014
     13 N          70.7030  137.7250  352.2170 N.4       1 A4T         0.2310
     14 C10        70.4320  144.6640  349.3880 C.ar      1 A4T         0.1396
     15 F          71.5130  144.1140  348.7930 F         1 A4T        -0.1823
     16 C7         68.1290  145.7850  350.3350 C.ar      1 A4T        -0.0661
     17 H1         68.6557  139.3317  349.1860 H         1 A4T         0.0562
     18 H2         68.3014  141.7252  348.7778 H         1 A4T         0.0603
     19 H3         67.5781  143.8102  350.9398 H         1 A4T         0.0604
     20 H4         68.9452  147.6553  349.7064 H         1 A4T         0.0601
     21 H5         71.0291  146.6450  348.8310 H         1 A4T         0.0601
     22 H6         71.6107  140.2551  352.1222 H         1 A4T         0.0566
     23 H7         71.5171  137.9962  350.3343 H         1 A4T         0.0981
     24 H8         69.7782  137.5478  350.3746 H         1 A4T         0.0981
     25 H9         70.9550  136.7491  352.2324 H         1 A4T         0.2008
     26 H10        69.8308  137.8545  352.7053 H         1 A4T         0.2008
     27 H11        71.4243  138.2654  352.6684 H         1 A4T         0.2008
     28 H12        67.2004  146.2250  350.6802 H         1 A4T         0.0582
@<TRIPOS>BOND
     1    2    1 ar 
     2    1   10 ar 
     3    1   12 1  
     4    3    2 ar 
     5    4    3 ar 
     6    5    4 1  
     7    4    9 ar 
     8    6    5 ar 
     9    5   14 ar 
    10   16    6 ar 
    11    7    8 ar 
    12    7   16 ar 
    13    8   14 ar 
    14    9   10 ar 
    15    9   11 1  
    16   12   13 1  
    17   14   15 1  
    18    2   17 1  
    19    3   18 1  
    20    6   19 1  
    21    7   20 1  
    22    8   21 1  
    23   10   22 1  
    24   12   23 1  
    25   12   24 1  
    26   13   25 1  
    27   13   26 1  
    28   13   27 1  
    29   16   28 1  
@<TRIPOS>SUBSTRUCTURE
     1 A4T         1

