### 
### Created by X-TOOL on Mon Sep 10 21:13:33 2018
### 

@<TRIPOS>MOLECULE
5orl_ligand
   23    23     1     0     0
SMALL
GAST_HUCK


@<TRIPOS>ATOM
      1 C10       -18.5220   28.1590  -24.8670 C.ar      1 A4W        -0.0425
      2 C13       -20.4280   26.2420  -24.3570 C.ar      1 A4W         0.0602
      3 F01       -21.8970   27.8790  -23.5330 F         1 A4W        -0.1930
      4 C02       -20.7020   27.5620  -24.0650 C.ar      1 A4W         0.1655
      5 C03       -19.7490   28.5300  -24.3350 C.ar      1 A4W         0.1007
      6 N04       -19.9750   29.9030  -24.0450 N.am      1 A4W        -0.2333
      7 C05       -20.3850   30.2760  -22.7300 C.2       1 A4W         0.2034
      8 C06       -20.5790   31.7420  -22.4290 C.3       1 A4W         0.0517
      9 C07       -20.3190   32.2450  -21.1970 C.3       1 A4W         0.0080
     10 S08       -20.6920   31.3420  -19.7100 S.3       1 A4W        -0.1758
     11 O09       -20.5880   29.4300  -21.8630 O.2       1 A4W        -0.3853
     12 C11       -18.2520   26.8360  -25.1500 C.ar      1 A4W        -0.0790
     13 C12       -19.2020   25.8720  -24.8940 C.ar      1 A4W        -0.0651
     14 CL1       -21.6550   25.0600  -24.0000 Cl        1 A4W        -0.0765
     15 H1        -17.7698   28.9148  -25.0617 H         1 A4W         0.0491
     16 H2        -19.8484   30.5980  -24.7527 H         1 A4W         0.2245
     17 H3        -21.6344   31.9673  -22.6417 H         1 A4W         0.0515
     18 H4        -19.9375   32.2927  -23.1327 H         1 A4W         0.0515
     19 H5        -20.8732   33.1927  -21.1285 H         1 A4W         0.0399
     20 H6        -19.2385   32.4492  -21.1699 H         1 A4W         0.0399
     21 H7        -20.4222   31.8906  -18.9086 H         1 A4W         0.1018
     22 H8        -17.2941   26.5557  -25.5730 H         1 A4W         0.0544
     23 H9        -18.9938   24.8304  -25.1105 H         1 A4W         0.0484
@<TRIPOS>BOND
     1    5    1 ar 
     2    1   12 ar 
     3    4    2 ar 
     4    2   13 ar 
     5    2   14 1  
     6    4    3 1  
     7    4    5 ar 
     8    5    6 1  
     9    6    7 am 
    10    7    8 1  
    11    7   11 2  
    12    8    9 1  
    13    9   10 1  
    14   12   13 ar 
    15    1   15 1  
    16    6   16 1  
    17    8   17 1  
    18    8   18 1  
    19    9   19 1  
    20    9   20 1  
    21   10   21 1  
    22   12   22 1  
    23   13   23 1  
@<TRIPOS>SUBSTRUCTURE
     1 A4W         1

