### 
### Created by X-TOOL on Mon Sep 10 21:13:33 2018
### 

@<TRIPOS>MOLECULE
5orr_ligand
   22    23     1     0     0
SMALL
GAST_HUCK


@<TRIPOS>ATOM
      1 C8        -11.4080   16.2060  -18.7050 C.3       1 A5Q         0.3439
      2 C7        -12.2310   14.0770  -15.7080 C.ar      1 A5Q        -0.0361
      3 C4        -10.6670   13.9410  -17.9800 C.ar      1 A5Q        -0.0459
      4 C5        -11.4300   15.0650  -17.7370 C.ar      1 A5Q         0.0172
      5 C6        -12.2120   15.1350  -16.6030 C.ar      1 A5Q        -0.0459
      6 C3        -10.6820   12.8790  -17.0900 C.ar      1 A5Q        -0.0361
      7 C2        -11.4710   12.9380  -15.9360 C.ar      1 A5Q         0.0135
      8 C1        -11.4930   11.8110  -14.9790 C.2       1 A5Q         0.1457
      9 F2        -11.1830   15.8170  -19.9660 F         1 A5Q        -0.2509
     10 F         -10.4600   17.1110  -18.4210 F         1 A5Q        -0.2509
     11 F1        -12.5660   16.8860  -18.7310 F         1 A5Q        -0.2509
     12 C         -10.8520   10.5820  -15.0110 C.2       1 A5Q         0.1956
     13 N         -10.0380   10.1310  -15.9660 N.pl3     1 A5Q        -0.2828
     14 N2        -12.2230   11.8910  -13.8570 N.2       1 A5Q        -0.1849
     15 N1        -12.0690   10.7000  -13.1280 N.2       1 A5Q        -0.1387
     16 S         -11.2110    9.8050  -13.7910 S.3       1 A5Q         0.1136
     17 H1        -12.8473   14.1397  -14.8184 H         1 A5Q         0.0639
     18 H2        -10.0528   13.8886  -18.8717 H         1 A5Q         0.0793
     19 H3        -12.8117   16.0175  -16.4118 H         1 A5Q         0.0793
     20 H4        -10.0803   11.9994  -17.2885 H         1 A5Q         0.0639
     21 H5         -9.6157    9.1952  -15.8832 H         1 A5Q         0.2036
     22 H6         -9.8315   10.7184  -16.7865 H         1 A5Q         0.2036
@<TRIPOS>BOND
     1    4    1 1  
     2    1    9 1  
     3    1   10 1  
     4    1   11 1  
     5    5    2 ar 
     6    2    7 ar 
     7    4    3 ar 
     8    3    6 ar 
     9    4    5 ar 
    10    6    7 ar 
    11    7    8 1  
    12    8   12 2  
    13    8   14 1  
    14   12   13 1  
    15   12   16 1  
    16   14   15 2  
    17   15   16 1  
    18    2   17 1  
    19    3   18 1  
    20    5   19 1  
    21    6   20 1  
    22   13   21 1  
    23   13   22 1  
@<TRIPOS>SUBSTRUCTURE
     1 A5Q         1

