### 
### Created by X-TOOL on Mon Sep 10 21:13:33 2018
### 

@<TRIPOS>MOLECULE
5ort_ligand
   25    26     1     0     0
SMALL
GAST_HUCK


@<TRIPOS>ATOM
      1 C10       -10.4630   12.9540  -17.7580 C.ar      1 A5Z         0.0466
      2 C9        -10.2250   11.7900  -17.0530 C.ar      1 A5Z        -0.0487
      3 C8        -11.1190   11.3670  -16.1040 C.ar      1 A5Z        -0.0622
      4 C7        -12.2520   12.0970  -15.8390 C.ar      1 A5Z        -0.0487
      5 C4        -11.7730   14.3290  -20.7710 C.3       1 A5Z         0.0636
      6 C5        -11.5980   13.7200  -17.4950 C.ar      1 A5Z         0.0115
      7 C6        -12.4810   13.2770  -16.5220 C.ar      1 A5Z         0.0466
      8 C3        -11.9420   15.2530  -19.6150 C.2       1 A5Z         0.0160
      9 C2        -11.8750   14.9800  -18.2230 C.2       1 A5Z         0.0507
     10 C1        -12.2420   16.5620  -19.6720 C.2       1 A5Z         0.1350
     11 CL1        -9.3180   13.4910  -18.9330 Cl        1 A5Z        -0.0709
     12 CL        -13.9130   14.1880  -16.1910 Cl        1 A5Z        -0.0709
     13 N         -12.1220   16.0650  -17.5220 N.2       1 A5Z        -0.1562
     14 O         -12.3380   17.0630  -18.4120 O.3       1 A5Z        -0.1762
     15 O1        -13.0270   13.7440  -21.1130 O.3       1 A5Z        -0.3897
     16 C         -12.4690   17.5210  -20.7760 C.3       1 A5Z         0.0039
     17 H1         -9.3304   11.2106  -17.2505 H         1 A5Z         0.0621
     18 H2        -10.9305   10.4494  -15.5585 H         1 A5Z         0.0606
     19 H3        -12.9630   11.7496  -15.0981 H         1 A5Z         0.0621
     20 H4        -11.0615   13.5345  -20.5017 H         1 A5Z         0.0633
     21 H5        -11.3857   14.8912  -21.6335 H         1 A5Z         0.0633
     22 H6        -12.9105   13.1566  -21.8505 H         1 A5Z         0.2113
     23 H7        -12.6934   18.5138  -20.3589 H         1 A5Z         0.0423
     24 H8        -13.3167   17.1807  -21.3889 H         1 A5Z         0.0423
     25 H9        -11.5657   17.5815  -21.4008 H         1 A5Z         0.0423
@<TRIPOS>BOND
     1    1    2 ar 
     2    6    1 ar 
     3    1   11 1  
     4    2    3 ar 
     5    4    3 ar 
     6    7    4 ar 
     7    8    5 1  
     8    5   15 1  
     9    6    7 ar 
    10    9    6 1  
    11    7   12 1  
    12    8    9 1  
    13    8   10 2  
    14    9   13 2  
    15   10   14 1  
    16   10   16 1  
    17   13   14 1  
    18    2   17 1  
    19    3   18 1  
    20    4   19 1  
    21    5   20 1  
    22    5   21 1  
    23   15   22 1  
    24   16   23 1  
    25   16   24 1  
    26   16   25 1  
@<TRIPOS>SUBSTRUCTURE
     1 A5Z         1

