### 
### Created by X-TOOL on Mon Sep 10 21:13:33 2018
### 

@<TRIPOS>MOLECULE
5orv_ligand
   20    20     1     0     0
SMALL
GAST_HUCK


@<TRIPOS>ATOM
      1 C4        -10.8550   13.2890  -17.2190 C.2       1 A65         0.0358
      2 C5         -9.6260   12.7210  -17.8180 C.3       1 A65         0.0696
      3 C3        -10.2090   10.7170  -15.3290 C.3       1 A65         0.0013
      4 C2        -11.7890   12.9030  -16.1590 C.2       1 A65         0.0974
      5 C1        -11.4820   14.5720  -17.6660 C.2       1 A65         0.0672
      6 O          -9.9380   11.9400  -18.9740 O.3       1 A65        -0.3893
      7 S2        -11.7920   11.4920  -15.0990 S.3       1 A65        -0.0740
      8 S1        -12.8610   13.8480  -15.9740 S.3       1 A65        -0.0001
      9 N         -12.6240   14.8860  -16.9490 N.2       1 A65        -0.2887
     10 S         -10.7810   15.4880  -18.9360 S.3       1 A65        -0.0817
     11 C         -11.9120   16.8720  -19.0310 C.3       1 A65         0.0000
     12 H1         -9.1252   12.0820  -17.0757 H         1 A65         0.0636
     13 H2         -8.9538   13.5419  -18.1083 H         1 A65         0.0636
     14 H3        -10.1427    9.8226  -14.6921 H         1 A65         0.0375
     15 H4         -9.4116   11.4230  -15.0538 H         1 A65         0.0375
     16 H5        -10.0931   10.4257  -16.3834 H         1 A65         0.0375
     17 H6         -9.1366   11.5860  -19.3414 H         1 A65         0.2112
     18 H7        -11.5822   17.5614  -19.8222 H         1 A65         0.0372
     19 H8        -11.9263   17.4007  -18.0665 H         1 A65         0.0372
     20 H9        -12.9225   16.5045  -19.2628 H         1 A65         0.0372
@<TRIPOS>BOND
     1    1    2 1  
     2    4    1 2  
     3    1    5 1  
     4    2    6 1  
     5    7    3 1  
     6    4    7 1  
     7    4    8 1  
     8    5    9 2  
     9    5   10 1  
    10    8    9 1  
    11   10   11 1  
    12    2   12 1  
    13    2   13 1  
    14    3   14 1  
    15    3   15 1  
    16    3   16 1  
    17    6   17 1  
    18   11   18 1  
    19   11   19 1  
    20   11   20 1  
@<TRIPOS>SUBSTRUCTURE
     1 A65         1

