### 
### Created by X-TOOL on Mon Sep 10 21:13:34 2018
### 

@<TRIPOS>MOLECULE
5orw_ligand
   34    35     1     0     0
SMALL
GAST_HUCK


@<TRIPOS>ATOM
      1 C12       -12.0350   15.5280  -20.1940 C.ar      1 A6E        -0.0370
      2 C11       -11.1170   14.5230  -19.9480 C.ar      1 A6E        -0.0347
      3 C10       -11.7940   12.9300  -16.7270 C.3       1 A6E         0.0429
      4 C9        -13.1290   12.7980  -16.0350 C.3       1 A6E         0.0142
      5 C8        -11.8400   11.4800  -14.1210 C.3       1 A6E         0.0142
      6 C7        -10.5890   11.6850  -14.9450 C.3       1 A6E         0.0429
      7 C4         -9.3410   12.3730  -19.3280 C.3       1 A6E         0.0862
      8 C5        -10.4850   11.5210  -18.7610 C.3       1 A6E         0.0650
      9 C6        -10.2540   11.1210  -17.3370 C.2       1 A6E         0.1811
     10 C3        -10.2550   14.6250  -18.8780 C.ar      1 A6E         0.0873
     11 C2        -10.3000   15.7240  -18.0490 C.ar      1 A6E        -0.0347
     12 C1        -11.2170   16.7340  -18.2880 C.ar      1 A6E        -0.0370
     13 O1         -9.4760   10.2050  -17.0450 O.2       1 A6E        -0.3968
     14 N         -10.8740   11.8340  -16.3760 N.am      1 A6E        -0.2716
     15 S         -12.9700   12.8710  -14.2490 S.3       1 A6E        -0.1568
     16 O          -9.3090   13.5910  -18.5690 O.3       1 A6E        -0.3182
     17 C         -12.0560   16.6040  -19.3570 C.ar      1 A6E         0.1203
     18 F         -12.9470   17.5880  -19.5960 F         1 A6E        -0.1929
     19 H1        -12.7204   15.4618  -21.0312 H         1 A6E         0.0577
     20 H2        -11.0758   13.6555  -20.5968 H         1 A6E         0.0533
     21 H3        -11.3353   13.8854  -16.4325 H         1 A6E         0.0530
     22 H4        -11.9565   12.9212  -17.8149 H         1 A6E         0.0530
     23 H5        -13.5791   11.8334  -16.3124 H         1 A6E         0.0396
     24 H6        -13.7838   13.6171  -16.3670 H         1 A6E         0.0396
     25 H7        -11.5532   11.3521  -13.0668 H         1 A6E         0.0396
     26 H8        -12.3526   10.5731  -14.4742 H         1 A6E         0.0396
     27 H9         -9.9292   10.8159  -14.8059 H         1 A6E         0.0530
     28 H10       -10.0789   12.5930  -14.5911 H         1 A6E         0.0530
     29 H11        -9.5250   12.5942  -20.3897 H         1 A6E         0.0637
     30 H12        -8.3851   11.8386  -19.2251 H         1 A6E         0.0637
     31 H13       -10.5823   10.6109  -19.3711 H         1 A6E         0.0529
     32 H14       -11.4177   12.1014  -18.8169 H         1 A6E         0.0529
     33 H15        -9.6179   15.7984  -17.2098 H         1 A6E         0.0533
     34 H16       -11.2672   17.6042  -17.6436 H         1 A6E         0.0577
@<TRIPOS>BOND
     1    2    1 ar 
     2    1   17 ar 
     3   10    2 ar 
     4    3    4 1  
     5   14    3 1  
     6    4   15 1  
     7    6    5 1  
     8    5   15 1  
     9   14    6 1  
    10    7    8 1  
    11   16    7 1  
    12    8    9 1  
    13    9   13 2  
    14    9   14 am 
    15   10   11 ar 
    16   10   16 1  
    17   11   12 ar 
    18   12   17 ar 
    19   17   18 1  
    20    1   19 1  
    21    2   20 1  
    22    3   21 1  
    23    3   22 1  
    24    4   23 1  
    25    4   24 1  
    26    5   25 1  
    27    5   26 1  
    28    6   27 1  
    29    6   28 1  
    30    7   29 1  
    31    7   30 1  
    32    8   31 1  
    33    8   32 1  
    34   11   33 1  
    35   12   34 1  
@<TRIPOS>SUBSTRUCTURE
     1 A6E         1

