### 
### Created by X-TOOL on Mon Sep 10 21:13:34 2018
### 

@<TRIPOS>MOLECULE
5orx_ligand
   24    25     1     0     0
SMALL
GAST_HUCK


@<TRIPOS>ATOM
      1 C10       -12.6910   15.4900  -20.6800 C.ar      1 A6H         0.0172
      2 C9        -12.3450   13.4120  -16.3120 C.ar      1 A6H         0.0733
      3 C8        -12.2530   12.0740  -15.9820 C.ar      1 A6H        -0.0554
      4 C7        -11.1550   11.3520  -16.3970 C.ar      1 A6H        -0.0711
      5 C4        -11.3660   14.0400  -17.0580 C.ar      1 A6H         0.1455
      6 C5        -10.2740   13.2920  -17.4590 C.ar      1 A6H         0.0733
      7 C6        -10.1600   11.9530  -17.1350 C.ar      1 A6H        -0.0554
      8 C3        -11.9250   15.8840  -18.5760 C.ar      1 A6H         0.1769
      9 C2        -12.0110   17.2600  -18.7410 C.ar      1 A6H        -0.0104
     10 C1        -12.4640   17.7440  -19.9340 C.ar      1 A6H        -0.0316
     11 CL1       -13.7170   14.3250  -15.7980 Cl        1 A6H        -0.0777
     12 CL         -9.0260   14.0480  -18.3870 Cl        1 A6H        -0.0777
     13 O         -11.4850   15.4290  -17.3650 O.3       1 A6H        -0.2454
     14 N1        -12.2540   15.0140  -19.5110 N.ar      1 A6H        -0.2838
     15 C         -12.8130   16.8420  -20.9270 C.ar      1 A6H         0.0527
     16 N         -13.2690   17.2580  -22.1220 N.pl3     1 A6H        -0.3363
     17 H1        -12.9593   14.7893  -21.4624 H         1 A6H         0.0684
     18 H2        -13.0357   11.5972  -15.4031 H         1 A6H         0.0598
     19 H3        -11.0740   10.3020  -16.1402 H         1 A6H         0.0529
     20 H4         -9.2969   11.3825  -17.4583 H         1 A6H         0.0598
     21 H5        -11.7252   17.9337  -17.9413 H         1 A6H         0.0618
     22 H6        -12.5491   18.8116  -20.1015 H         1 A6H         0.0613
     23 H7        -13.5223   16.5693  -22.8448 H         1 A6H         0.1710
     24 H8        -13.3650   18.2653  -22.3144 H         1 A6H         0.1710
@<TRIPOS>BOND
     1   14    1 ar 
     2    1   15 ar 
     3    2    3 ar 
     4    5    2 ar 
     5    2   11 1  
     6    3    4 ar 
     7    7    4 ar 
     8    5    6 ar 
     9   13    5 1  
    10    6    7 ar 
    11    6   12 1  
    12    8    9 ar 
    13    8   13 1  
    14    8   14 ar 
    15    9   10 ar 
    16   10   15 ar 
    17   15   16 1  
    18    1   17 1  
    19    3   18 1  
    20    4   19 1  
    21    7   20 1  
    22    9   21 1  
    23   10   22 1  
    24   16   23 1  
    25   16   24 1  
@<TRIPOS>SUBSTRUCTURE
     1 A6H         1

