### 
### Created by X-TOOL on Mon Sep 10 21:13:33 2018
### 

@<TRIPOS>MOLECULE
5ory_ligand
   20    21     1     0     0
SMALL
GAST_HUCK


@<TRIPOS>ATOM
      1 N1        -11.6840   11.2840  -15.1560 N.pl3     1 AY4        -0.2233
      2 C4        -11.4420   14.1710  -17.3760 C.ar      1 AY4         0.0127
      3 C5        -12.2300   15.3050  -17.5340 C.ar      1 AY4        -0.0332
      4 C6        -11.8920   16.2540  -18.4710 C.ar      1 AY4         0.1188
      5 C7        -10.7730   16.1200  -19.2800 C.ar      1 AY4        -0.0034
      6 C8         -9.9970   15.0040  -19.1230 C.ar      1 AY4         0.1589
      7 C1        -12.8690   13.1410  -15.4970 C.2       1 AY4        -0.0436
      8 C2        -12.7530   11.9700  -14.7700 C.2       1 AY4         0.0467
      9 N2        -11.1150   12.0280  -16.1390 N.2       1 AY4        -0.2189
     10 C3        -11.8110   13.1620  -16.3710 C.2       1 AY4         0.0298
     11 C9        -10.3060   14.0270  -18.1900 C.ar      1 AY4         0.1268
     12 O1         -9.4950   12.9400  -18.0830 O.3       1 AY4        -0.3333
     13 F1         -8.8940   14.8480  -19.9040 F         1 AY4        -0.1913
     14 F2        -12.6710   17.3520  -18.6130 F         1 AY4        -0.1938
     15 H1        -11.3560   10.3796  -14.7880 H         1 AY4         0.2574
     16 H2        -13.1117   15.4418  -16.9184 H         1 AY4         0.0539
     17 H3        -10.5210   16.8765  -20.0143 H         1 AY4         0.0561
     18 H4        -13.6463   13.8970  -15.3959 H         1 AY4         0.0342
     19 H5        -13.4432   11.6544  -13.9890 H         1 AY4         0.0987
     20 H6         -9.8300   12.3615  -17.4080 H         1 AY4         0.2469
@<TRIPOS>BOND
     1    8    1 1  
     2    1    9 1  
     3    2    3 ar 
     4   10    2 1  
     5    2   11 ar 
     6    3    4 ar 
     7    4    5 ar 
     8    4   14 1  
     9    6    5 ar 
    10   11    6 ar 
    11    6   13 1  
    12    7    8 2  
    13    7   10 1  
    14    9   10 2  
    15   11   12 1  
    16    1   15 1  
    17    3   16 1  
    18    5   17 1  
    19    7   18 1  
    20    8   19 1  
    21   12   20 1  
@<TRIPOS>SUBSTRUCTURE
     1 AY4         1

