### 
### Created by X-TOOL on Mon Sep 10 21:13:33 2018
### 

@<TRIPOS>MOLECULE
5orz_ligand
   24    25     1     0     0
SMALL
GAST_HUCK


@<TRIPOS>ATOM
      1 C10       -11.0350   16.3500  -18.4700 C.2       1 A6W        -0.0036
      2 C9        -11.8340   16.4880  -17.3440 C.2       1 A6W        -0.0711
      3 C8        -11.8150   15.3600  -16.5070 C.2       1 A6W        -0.0648
      4 C7        -11.0120   14.3180  -16.9450 C.2       1 A6W         0.0474
      5 C4         -9.9290   10.9180  -15.9900 C.2       1 A6W         0.0408
      6 C5         -9.9540   12.0460  -16.8250 C.2       1 A6W        -0.0354
      7 C6        -10.7620   13.0760  -16.3730 C.2       1 A6W         0.0432
      8 C3        -10.7280   11.0380  -14.8490 C.2       1 A6W         0.1121
      9 C2        -10.9700   10.1060  -13.7500 C.2       1 A6W         0.2421
     10 C1        -10.4670    7.9860  -12.8560 C.3       1 A6W         0.0632
     11 O1        -10.2930    8.9680  -13.9020 O.3       1 A6W        -0.2880
     12 O2        -11.6970   10.3440  -12.8150 O.2       1 A6W        -0.3816
     13 S1        -11.4800   12.5840  -14.8820 S.3       1 A6W        -0.0443
     14 S2        -10.2940   14.8160  -18.4330 S.3       1 A6W        -0.0370
     15 N1         -9.1710    9.7970  -16.2950 N.pl3     1 A6W        -0.3426
     16 H1        -10.9031   17.0991  -19.2494 H         1 A6W         0.0765
     17 H2        -12.4179   17.3821  -17.1303 H         1 A6W         0.0435
     18 H3        -12.3884   15.3078  -15.5827 H         1 A6W         0.0463
     19 H4         -9.3851   12.1063  -17.7516 H         1 A6W         0.0417
     20 H5         -9.8651    7.0945  -13.0862 H         1 A6W         0.0573
     21 H6        -11.5284    7.7047  -12.7900 H         1 A6W         0.0573
     22 H7        -10.1399    8.4112  -11.8957 H         1 A6W         0.0573
     23 H8         -8.6041    9.7769  -17.1547 H         1 A6W         0.1698
     24 H9         -9.1750    8.9847  -15.6617 H         1 A6W         0.1698
@<TRIPOS>BOND
     1    1    2 2  
     2   14    1 1  
     3    3    2 1  
     4    4    3 2  
     5    7    4 1  
     6    4   14 1  
     7    6    5 1  
     8    5    8 2  
     9    5   15 1  
    10    6    7 2  
    11    7   13 1  
    12    8    9 1  
    13    8   13 1  
    14    9   11 1  
    15    9   12 2  
    16   11   10 1  
    17    1   16 1  
    18    2   17 1  
    19    3   18 1  
    20    6   19 1  
    21   10   20 1  
    22   10   21 1  
    23   10   22 1  
    24   15   23 1  
    25   15   24 1  
@<TRIPOS>SUBSTRUCTURE
     1 A6W         1

