### 
### Created by X-TOOL on Mon Sep 10 21:13:34 2018
### 

@<TRIPOS>MOLECULE
5os0_ligand
   31    32     1     0     0
SMALL
GAST_HUCK


@<TRIPOS>ATOM
      1 C12       -11.6610   10.3880  -13.4770 C.1       1 A6Z         0.1407
      2 C11       -11.7190   10.2120  -15.0080 C.3       1 A6Z         0.0927
      3 C10       -12.9270   13.2850  -16.6920 C.3       1 A6Z         0.0670
      4 C9        -12.8350   12.0170  -15.8380 C.3       1 A6Z        -0.0097
      5 C8        -10.7150   11.4220  -16.7010 C.3       1 A6Z        -0.0097
      6 C7        -10.5990   12.6990  -17.4770 C.3       1 A6Z         0.0670
      7 C4        -10.0160   15.1770  -18.1980 C.ar      1 A6Z        -0.0306
      8 C5         -9.6670   16.3630  -18.8010 C.ar      1 A6Z         0.0288
      9 C6        -10.7590   17.3570  -19.2430 C.ar      1 A6Z        -0.0612
     10 C3        -11.4740   14.8460  -17.9560 C.ar      1 A6Z         0.0410
     11 C2        -12.4680   15.7230  -18.3600 C.ar      1 A6Z        -0.0442
     12 C1        -12.0860   17.0530  -19.0330 C.ar      1 A6Z        -0.0731
     13 CL1        -7.9860   16.6230  -19.0110 Cl        1 A6Z        -0.0742
     14 N1        -11.7130   13.5950  -17.3400 N.pl3     1 A6Z        -0.2987
     15 N2        -11.5430   11.5300  -15.5640 N.4       1 A6Z         0.2570
     16 N3        -11.7340   10.4770  -12.3340 N.1       1 A6Z        -0.2979
     17 H1        -12.6921    9.7967  -15.3088 H         1 A6Z         0.1130
     18 H2        -10.9142    9.5431  -15.3470 H         1 A6Z         0.1130
     19 H3        -13.2038   14.1279  -16.0416 H         1 A6Z         0.0567
     20 H4        -13.7058   13.1395  -17.4551 H         1 A6Z         0.0567
     21 H5        -13.3863   11.2221  -16.3616 H         1 A6Z         0.0835
     22 H6        -13.3225   12.2281  -14.8748 H         1 A6Z         0.0835
     23 H7         -9.7093   11.1212  -16.3724 H         1 A6Z         0.0835
     24 H8        -11.1312   10.6484  -17.3630 H         1 A6Z         0.0835
     25 H9        -10.4956   12.4432  -18.5418 H         1 A6Z         0.0567
     26 H10        -9.6945   13.2244  -17.1366 H         1 A6Z         0.0567
     27 H11        -9.2454   14.4773  -17.8952 H         1 A6Z         0.0520
     28 H12       -10.4837   18.2920  -19.7174 H         1 A6Z         0.0511
     29 H13       -13.5109   15.4730  -18.2025 H         1 A6Z         0.0517
     30 H14       -12.8585   17.7483  -19.3408 H         1 A6Z         0.0583
     31 H15       -11.0963   12.1364  -14.8941 H         1 A6Z         0.2057
@<TRIPOS>BOND
     1    2    1 1  
     2    1   16 3  
     3   15    2 1  
     4    3    4 1  
     5   14    3 1  
     6    4   15 1  
     7    6    5 1  
     8    5   15 1  
     9   14    6 1  
    10    7    8 ar 
    11   10    7 ar 
    12    8    9 ar 
    13    8   13 1  
    14    9   12 ar 
    15   10   11 ar 
    16   10   14 1  
    17   11   12 ar 
    18    2   17 1  
    19    2   18 1  
    20    3   19 1  
    21    3   20 1  
    22    4   21 1  
    23    4   22 1  
    24    5   23 1  
    25    5   24 1  
    26    6   25 1  
    27    6   26 1  
    28    7   27 1  
    29    9   28 1  
    30   11   29 1  
    31   12   30 1  
    32   15   31 1  
@<TRIPOS>SUBSTRUCTURE
     1 A6Z         1

