### 
### Created by X-TOOL on Mon Sep 10 21:13:33 2018
### 

@<TRIPOS>MOLECULE
5os1_ligand
   24    25     1     0     0
SMALL
GAST_HUCK


@<TRIPOS>ATOM
      1 C10       -11.2190   10.0500  -13.1900 C.3       1 A7H         0.0087
      2 C9        -11.3320   11.1150  -14.2150 C.2       1 A7H         0.0899
      3 C8        -12.4660   14.2030  -16.2890 C.ar      1 A7H        -0.0219
      4 C7        -11.9750   13.0870  -15.6330 C.ar      1 A7H         0.0443
      5 C4        -10.7080   13.9280  -17.9270 C.ar      1 A7H        -0.0423
      6 C5        -10.2160   12.8170  -17.2750 C.ar      1 A7H        -0.0651
      7 C6        -10.8550   12.3840  -16.1070 C.ar      1 A7H         0.0125
      8 C3        -11.8260   14.6260  -17.4420 C.ar      1 A7H         0.0816
      9 C2        -11.6190   16.1040  -19.3220 C.3       1 A7H         0.0664
     10 C1        -12.2220   17.4090  -19.7810 C.3       1 A7H        -0.0373
     11 O1        -12.2850   15.7220  -18.1140 O.3       1 A7H        -0.3229
     12 S1        -12.5430   12.3350  -14.1970 S.3       1 A7H         0.0020
     13 N1        -10.5450   11.2990  -15.2800 N.2       1 A7H        -0.3158
     14 H1        -10.3648    9.3997  -13.4296 H         1 A7H         0.0500
     15 H2        -12.1426    9.4527  -13.1784 H         1 A7H         0.0500
     16 H3        -11.0656   10.5073  -12.2014 H         1 A7H         0.0500
     17 H4        -13.3315   14.7335  -15.9088 H         1 A7H         0.0481
     18 H5        -10.2214   14.2699  -18.8333 H         1 A7H         0.0493
     19 H6         -9.3509   12.2889  -17.6595 H         1 A7H         0.0540
     20 H7        -10.5432   16.2337  -19.1325 H         1 A7H         0.0609
     21 H8        -11.7653   15.3317  -20.0915 H         1 A7H         0.0609
     22 H9        -11.7313   17.7327  -20.7108 H         1 A7H         0.0255
     23 H10       -12.0761   18.1738  -19.0040 H         1 A7H         0.0255
     24 H11       -13.2981   17.2718  -19.9630 H         1 A7H         0.0255
@<TRIPOS>BOND
     1    2    1 1  
     2   12    2 1  
     3   13    2 2  
     4    3    4 ar 
     5    8    3 ar 
     6    4    7 ar 
     7    4   12 1  
     8    5    6 ar 
     9    8    5 ar 
    10    6    7 ar 
    11    7   13 1  
    12   11    8 1  
    13    9   10 1  
    14    9   11 1  
    15    1   14 1  
    16    1   15 1  
    17    1   16 1  
    18    3   17 1  
    19    5   18 1  
    20    6   19 1  
    21    9   20 1  
    22    9   21 1  
    23   10   22 1  
    24   10   23 1  
    25   10   24 1  
@<TRIPOS>SUBSTRUCTURE
     1 A7H         1

