### 
### Created by X-TOOL on Mon Sep 10 21:13:33 2018
### 

@<TRIPOS>MOLECULE
5os3_ligand
   28    28     1     0     0
SMALL
GAST_HUCK


@<TRIPOS>ATOM
      1 C10       -11.0690   10.3730  -13.4230 C.3       1 A7N        -0.0131
      2 C9        -10.5530   10.4050  -14.8580 C.3       1 A7N         0.0016
      3 C8        -12.8400   13.1470  -16.1920 C.ar      1 A7N        -0.0394
      4 C7        -12.3590   12.0830  -15.4490 C.ar      1 A7N        -0.0635
      5 C4        -10.7750   13.2170  -17.4120 C.ar      1 A7N        -0.0394
      6 C5        -10.3010   12.1530  -16.6650 C.ar      1 A7N        -0.0635
      7 C6        -11.0810   11.5650  -15.6690 C.ar      1 A7N        -0.0067
      8 C3        -12.0480   13.7190  -17.1810 C.ar      1 A7N         0.0840
      9 C2        -11.6430   15.3460  -18.9060 C.3       1 A7N         0.0661
     10 C1        -12.2520   16.6570  -19.3420 C.3       1 A7N        -0.0374
     11 O1        -12.5140   14.7790  -17.9180 O.3       1 A7N        -0.3227
     12 N1        -10.8900    9.1040  -15.5220 N.4       1 A7N         0.2313
     13 H1        -10.6425    9.5048  -12.8993 H         1 A7N         0.0304
     14 H2        -12.1662   10.2946  -13.4295 H         1 A7N         0.0304
     15 H3        -10.7704   11.2965  -12.9053 H         1 A7N         0.0304
     16 H4         -9.4580   10.5017  -14.8188 H         1 A7N         0.0990
     17 H5        -13.8346   13.5344  -16.0027 H         1 A7N         0.0525
     18 H6        -12.9862   11.6435  -14.6818 H         1 A7N         0.0532
     19 H7        -10.1504   13.6595  -18.1795 H         1 A7N         0.0525
     20 H8         -9.3055   11.7694  -16.8572 H         1 A7N         0.0532
     21 H9        -10.6462   15.5191  -18.4742 H         1 A7N         0.0608
     22 H10       -11.5569   14.6662  -19.7665 H         1 A7N         0.0608
     23 H11       -11.6099   17.1244  -20.1030 H         1 A7N         0.0255
     24 H12       -12.3395   17.3273  -18.4742 H         1 A7N         0.0255
     25 H13       -13.2502   16.4744  -19.7665 H         1 A7N         0.0255
     26 H14       -10.5531    9.1145  -16.4720 H         1 A7N         0.2009
     27 H15       -11.8898    8.9755  -15.5215 H         1 A7N         0.2009
     28 H16       -10.4537    8.3472  -15.0191 H         1 A7N         0.2009
@<TRIPOS>BOND
     1    2    1 1  
     2    7    2 1  
     3    2   12 1  
     4    3    4 ar 
     5    8    3 ar 
     6    4    7 ar 
     7    5    6 ar 
     8    8    5 ar 
     9    6    7 ar 
    10   11    8 1  
    11    9   10 1  
    12    9   11 1  
    13    1   13 1  
    14    1   14 1  
    15    1   15 1  
    16    2   16 1  
    17    3   17 1  
    18    4   18 1  
    19    5   19 1  
    20    6   20 1  
    21    9   21 1  
    22    9   22 1  
    23   10   23 1  
    24   10   24 1  
    25   10   25 1  
    26   12   26 1  
    27   12   27 1  
    28   12   28 1  
@<TRIPOS>SUBSTRUCTURE
     1 A7N         1

