### 
### Created by X-TOOL on Mon Sep 10 21:13:33 2018
### 

@<TRIPOS>MOLECULE
5os4_ligand
   32    34     1     0     0
SMALL
GAST_HUCK


@<TRIPOS>ATOM
      1 C12       -11.9510   16.1970  -20.2300 C.ar      1 A8H        -0.0686
      2 C13       -11.7980   14.8790  -19.8270 C.ar      1 A8H        -0.0601
      3 C11       -11.9430   17.2080  -19.2970 C.ar      1 A8H        -0.0687
      4 C10       -11.7870   16.9040  -17.9630 C.ar      1 A8H        -0.0686
      5 C9        -11.6460   15.5830  -17.5610 C.ar      1 A8H        -0.0601
      6 C8        -11.6440   14.5480  -18.4880 C.ar      1 A8H        -0.0398
      7 C7        -10.2250   11.4940  -15.8260 C.3       1 A8H         0.0741
      8 C4        -11.4910   13.1000  -18.0590 C.3       1 A8H        -0.0047
      9 C5        -10.0320   12.6320  -17.9950 C.3       1 A8H        -0.0378
     10 C6         -9.9150   11.2810  -17.3040 C.3       1 A8H        -0.0283
     11 C3        -12.2880   12.7470  -16.7900 C.3       1 A8H        -0.0178
     12 C2        -11.3150   12.5430  -15.6130 C.3       1 A8H         0.0758
     13 C1        -12.0070   12.0890  -14.3620 C.2       1 A8H         0.2103
     14 O1        -12.8480   12.6840  -13.7460 O.2       1 A8H        -0.3858
     15 N         -11.5300   10.8720  -14.0210 N.am      1 A8H        -0.1990
     16 C         -10.5820   10.4030  -14.8570 C.2       1 A8H         0.2101
     17 O         -10.0640    9.3220  -14.7620 O.2       1 A8H        -0.3858
     18 H1        -12.0770   16.4309  -21.2810 H         1 A8H         0.0599
     19 H2        -11.7987   14.0919  -20.5723 H         1 A8H         0.0557
     20 H3        -12.0590   18.2392  -19.6105 H         1 A8H         0.0559
     21 H4        -11.7743   17.6981  -17.2252 H         1 A8H         0.0599
     22 H5        -11.5357   15.3551  -16.5070 H         1 A8H         0.0557
     23 H6         -9.2876   11.9154  -15.4340 H         1 A8H         0.0571
     24 H7        -11.9511   12.5098  -18.8652 H         1 A8H         0.0463
     25 H8         -9.4421   13.3730  -17.4355 H         1 A8H         0.0291
     26 H9         -9.6378   12.5464  -19.0184 H         1 A8H         0.0291
     27 H10       -10.6344   10.5724  -17.7404 H         1 A8H         0.0296
     28 H11        -8.8948   10.8865  -17.4208 H         1 A8H         0.0296
     29 H12       -12.8571   11.8211  -16.9600 H         1 A8H         0.0319
     30 H13       -12.9828   13.5663  -16.5536 H         1 A8H         0.0319
     31 H14       -10.8333   13.5142  -15.4267 H         1 A8H         0.0573
     32 H15       -11.8510   10.3650  -13.2210 H         1 A8H         0.2256
@<TRIPOS>BOND
     1    2    1 ar 
     2    1    3 ar 
     3    6    2 ar 
     4    4    3 ar 
     5    5    4 ar 
     6    6    5 ar 
     7    8    6 1  
     8   10    7 1  
     9    7   12 1  
    10    7   16 1  
    11    9    8 1  
    12    8   11 1  
    13    9   10 1  
    14   11   12 1  
    15   12   13 1  
    16   13   14 2  
    17   13   15 am 
    18   15   16 am 
    19   16   17 2  
    20    1   18 1  
    21    2   19 1  
    22    3   20 1  
    23    4   21 1  
    24    5   22 1  
    25    7   23 1  
    26    8   24 1  
    27    9   25 1  
    28    9   26 1  
    29   10   27 1  
    30   10   28 1  
    31   11   29 1  
    32   11   30 1  
    33   12   31 1  
    34   15   32 1  
@<TRIPOS>SUBSTRUCTURE
     1 A8H         1

