### 
### Created by X-TOOL on Mon Sep 10 21:13:33 2018
### 

@<TRIPOS>MOLECULE
5os5_ligand
   25    26     1     0     0
SMALL
GAST_HUCK


@<TRIPOS>ATOM
      1 C11       -13.4480   14.1570  -16.2650 C.ar      1 A8K        -0.0387
      2 C10       -12.9850   15.1510  -17.1080 C.ar      1 A8K        -0.0563
      3 C9        -12.6240   18.0780  -20.0870 C.ar      1 A8K        -0.0563
      4 C8        -13.5780   18.2850  -21.0650 C.ar      1 A8K        -0.0387
      5 C7        -14.1760   17.2060  -21.7000 C.ar      1 A8K         0.0808
      6 C4        -12.2670   16.7920  -19.7100 C.ar      1 A8K         0.0171
      7 C5        -12.8620   15.7140  -20.3510 C.ar      1 A8K        -0.0563
      8 C6        -13.8080   15.9180  -21.3370 C.ar      1 A8K        -0.0387
      9 C3        -11.6330   15.2550  -17.3920 C.ar      1 A8K         0.0171
     10 C2        -10.7470   14.3620  -16.8090 C.ar      1 A8K        -0.0563
     11 C1        -11.2110   13.3620  -15.9750 C.ar      1 A8K        -0.0387
     12 O1        -15.1310   17.4270  -22.6810 O.3       1 A8K        -0.3374
     13 S         -11.0290   16.5540  -18.4550 S.3       1 A8K        -0.0597
     14 C         -12.5650   13.2530  -15.6950 C.ar      1 A8K         0.0808
     15 O         -13.0270   12.2550  -14.8580 O.3       1 A8K        -0.3374
     16 H1        -14.5077   14.0844  -16.0487 H         1 A8K         0.0526
     17 H2        -13.6839   15.8526  -17.5489 H         1 A8K         0.0542
     18 H3        -12.1504   18.9285  -19.6101 H         1 A8K         0.0542
     19 H4        -13.8606   19.2954  -21.3375 H         1 A8K         0.0526
     20 H5        -12.5820   14.7036  -20.0756 H         1 A8K         0.0542
     21 H6        -14.2652   15.0676  -21.8297 H         1 A8K         0.0526
     22 H7         -9.6850   14.4484  -17.0082 H         1 A8K         0.0542
     23 H8        -10.5122   12.6585  -15.5370 H         1 A8K         0.0526
     24 H9        -15.2544   18.3619  -22.7964 H         1 A8K         0.2459
     25 H10       -13.9708   12.3245  -14.7751 H         1 A8K         0.2459
@<TRIPOS>BOND
     1    2    1 ar 
     2    1   14 ar 
     3    9    2 ar 
     4    3    4 ar 
     5    6    3 ar 
     6    4    5 ar 
     7    8    5 ar 
     8    5   12 1  
     9    6    7 ar 
    10   13    6 1  
    11    7    8 ar 
    12    9   10 ar 
    13    9   13 1  
    14   10   11 ar 
    15   11   14 ar 
    16   14   15 1  
    17    1   16 1  
    18    2   17 1  
    19    3   18 1  
    20    4   19 1  
    21    7   20 1  
    22    8   21 1  
    23   10   22 1  
    24   11   23 1  
    25   12   24 1  
    26   15   25 1  
@<TRIPOS>SUBSTRUCTURE
     1 A8K         1

