### 
### Created by X-TOOL on Wed Jan  1 15:39:38 2020
### 

@<TRIPOS>MOLECULE
5os7_ligand
   37    38     1     0     0
SMALL
GAST_HUCK


@<TRIPOS>ATOM
      1 C1         -6.4570  168.1480  398.0600 C.3       1 A8Q        -0.0121
      2 C7         -4.9170  166.0710  400.8600 C.ar      1 A8Q        -0.0617
      3 C8         -5.0250  166.8770  399.7190 C.ar      1 A8Q        -0.0188
      4 C9         -3.8110  167.0560  398.8630 C.ar      1 A8Q        -0.0140
      5 C10        -3.4970  166.0500  397.9470 C.ar      1 A8Q        -0.0612
      6 C11        -2.3330  166.1150  397.2020 C.ar      1 A8Q        -0.0549
      7 C12        -1.4500  167.1790  397.3300 C.ar      1 A8Q         0.0017
      8 C13        -0.1740  167.2740  396.5150 C.3       1 A8Q        -0.0016
      9 C2         -7.4190  167.4780  397.0800 C.3       1 A8Q        -0.0526
     10 C3         -6.2970  167.3460  399.3400 C.ar      1 A8Q        -0.0328
     11 C4         -7.4180  167.0040  400.0970 C.ar      1 A8Q        -0.0598
     12 C5         -7.2910  166.1900  401.2080 C.ar      1 A8Q        -0.0691
     13 C6         -6.0430  165.7240  401.5890 C.ar      1 A8Q        -0.0689
     14 CL         -3.3110  169.5370  399.9290 Cl        1 A8Q        -0.0721
     15 C15        -2.9240  168.1450  398.9650 C.ar      1 A8Q         0.0406
     16 C14        -1.7570  168.1940  398.2300 C.ar      1 A8Q        -0.0413
     17 N           0.6080  166.0460  396.4670 N.4       1 A8Q         0.2309
     18 C          -6.8400  169.6060  398.3200 C.3       1 A8Q        -0.0526
     19 H1         -5.4700  168.1638  397.5747 H         1 A8Q         0.0460
     20 H2         -3.9428  165.7154  401.1755 H         1 A8Q         0.0597
     21 H3         -4.1711  165.2108  397.8185 H         1 A8Q         0.0599
     22 H4         -2.1054  165.3181  396.5033 H         1 A8Q         0.0561
     23 H5          0.4544  168.0639  396.9523 H         1 A8Q         0.0980
     24 H6         -0.4446  167.5488  395.4848 H         1 A8Q         0.0980
     25 H7         -7.5033  168.0921  396.1713 H         1 A8Q         0.0255
     26 H8         -8.4093  167.3784  397.5484 H         1 A8Q         0.0255
     27 H9         -7.0369  166.4812  396.8147 H         1 A8Q         0.0255
     28 H10        -8.3947  167.3786  399.8126 H         1 A8Q         0.0554
     29 H11        -8.1692  165.9162  401.7815 H         1 A8Q         0.0594
     30 H12        -5.9473  165.0860  402.4601 H         1 A8Q         0.0559
     31 H13        -1.0759  169.0281  398.3548 H         1 A8Q         0.0564
     32 H14         1.4339  166.1952  395.9087 H         1 A8Q         0.2008
     33 H15         0.0538  165.3105  396.0572 H         1 A8Q         0.2008
     34 H16         0.8775  165.7825  397.4019 H         1 A8Q         0.2008
     35 H17        -6.1260  170.0520  399.0280 H         1 A8Q         0.0255
     36 H18        -7.8534  169.6486  398.7456 H         1 A8Q         0.0255
     37 H19        -6.8159  170.1659  397.3735 H         1 A8Q         0.0255
@<TRIPOS>BOND
     1    1    9 1  
     2   10    1 1  
     3    1   18 1  
     4    3    2 ar 
     5    2   13 ar 
     6    3    4 1  
     7    3   10 ar 
     8    4    5 ar 
     9    4   15 ar 
    10    5    6 ar 
    11    6    7 ar 
    12    7    8 1  
    13    7   16 ar 
    14    8   17 1  
    15   10   11 ar 
    16   11   12 ar 
    17   12   13 ar 
    18   15   14 1  
    19   15   16 ar 
    20    1   19 1  
    21    2   20 1  
    22    5   21 1  
    23    6   22 1  
    24    8   23 1  
    25    8   24 1  
    26    9   25 1  
    27    9   26 1  
    28    9   27 1  
    29   11   28 1  
    30   12   29 1  
    31   13   30 1  
    32   16   31 1  
    33   17   32 1  
    34   17   33 1  
    35   17   34 1  
    36   18   35 1  
    37   18   36 1  
    38   18   37 1  
@<TRIPOS>SUBSTRUCTURE
     1 A8Q         1

