### 
### Created by X-TOOL on Wed Jan  1 15:39:35 2020
### 

@<TRIPOS>MOLECULE
5os8_ligand
   31    32     1     0     0
SMALL
GAST_HUCK


@<TRIPOS>ATOM
      1 CL       -135.2640 -185.2240  298.9190 Cl        1 J27        -0.0726
      2 C13      -136.8190 -184.5160  298.6050 C.ar      1 J27         0.0397
      3 C12      -137.3190 -183.6330  299.5410 C.ar      1 J27        -0.0419
      4 C10      -138.6040 -183.1190  299.4040 C.ar      1 J27         0.0011
      5 C11      -139.2200 -182.3830  300.5180 C.3       1 J27        -0.0019
      6 N        -139.8230 -183.3650  301.3920 N.4       1 J27         0.2308
      7 C9       -139.3460 -183.4680  298.2830 C.ar      1 J27        -0.0555
      8 C8       -138.8400 -184.3310  297.3250 C.ar      1 J27        -0.0621
      9 C7       -137.5600 -184.8780  297.4650 C.ar      1 J27        -0.0164
     10 C6       -137.0400 -185.7780  296.3890 C.ar      1 J27        -0.0229
     11 C1       -135.9910 -185.3910  295.5250 C.ar      1 J27        -0.0398
     12 C        -135.3640 -184.0190  295.5730 C.3       1 J27        -0.0310
     13 C5       -137.6770 -187.0100  296.1920 C.ar      1 J27        -0.0630
     14 C4       -137.3020 -187.8430  295.1520 C.ar      1 J27        -0.0348
     15 C3       -136.2560 -187.4510  294.3510 C.ar      1 J27         0.1259
     16 F        -135.8550 -188.2820  293.3450 F         1 J27        -0.1851
     17 C2       -135.5880 -186.2630  294.5180 C.ar      1 J27        -0.0265
     18 H1       -136.7074 -183.3390  300.3864 H         1 J27         0.0563
     19 H2       -139.9883 -181.6943  300.1367 H         1 J27         0.0979
     20 H3       -138.4538 -181.8121  301.0631 H         1 J27         0.0979
     21 H4       -140.2582 -182.8982  302.1722 H         1 J27         0.2008
     22 H5       -139.1125 -183.9946  301.7309 H         1 J27         0.2008
     23 H6       -140.5186 -183.8866  300.8821 H         1 J27         0.2008
     24 H7       -140.3408 -183.0568  298.1553 H         1 J27         0.0560
     25 H8       -139.4410 -184.5847  296.4593 H         1 J27         0.0594
     26 H9       -134.5733 -183.9504  294.8114 H         1 J27         0.0395
     27 H10      -134.9293 -183.8491  296.5691 H         1 J27         0.0395
     28 H11      -136.1323 -183.2575  295.3735 H         1 J27         0.0395
     29 H12      -138.4730 -187.3146  296.8619 H         1 J27         0.0589
     30 H13      -137.8191 -188.7789  294.9741 H         1 J27         0.0548
     31 H14      -134.7557 -186.0071  293.8724 H         1 J27         0.0541
@<TRIPOS>BOND
     1    1    2 1  
     2    2    3 ar 
     3    2    9 ar 
     4    3    4 ar 
     5    4    5 1  
     6    4    7 ar 
     7    5    6 1  
     8    7    8 ar 
     9    8    9 ar 
    10    9   10 1  
    11   10   11 ar 
    12   10   13 ar 
    13   11   12 1  
    14   11   17 ar 
    15   13   14 ar 
    16   14   15 ar 
    17   15   16 1  
    18   15   17 ar 
    19    3   18 1  
    20    5   19 1  
    21    5   20 1  
    22    6   21 1  
    23    6   22 1  
    24    6   23 1  
    25    7   24 1  
    26    8   25 1  
    27   12   26 1  
    28   12   27 1  
    29   12   28 1  
    30   13   29 1  
    31   14   30 1  
    32   17   31 1  
@<TRIPOS>SUBSTRUCTURE
     1 J27         1

