### 
### Created by X-TOOL on Mon Sep 10 21:13:33 2018
### 

@<TRIPOS>MOLECULE
5osd_ligand
   26    27     1     0     0
SMALL
GAST_HUCK


@<TRIPOS>ATOM
      1 C11        -4.5990   29.8230  -26.0760 C.2       1 A9B         0.2677
      2 C10        -3.4600   30.2200  -25.2440 C.2       1 A9B         0.1916
      3 C9         -2.8670   31.3930  -24.9290 C.2       1 A9B        -0.0377
      4 C8         -1.8150   31.0880  -24.0800 C.2       1 A9B        -0.0445
      5 C7         -1.7870   29.7420  -23.8950 C.2       1 A9B         0.1279
      6 C4         -0.4030   26.5950  -22.4130 C.ar      1 A9B        -0.0490
      7 C5         -1.1950   27.4590  -23.1420 C.ar      1 A9B        -0.0526
      8 C6         -0.9470   28.8320  -23.1290 C.ar      1 A9B         0.0138
      9 C3          0.6410   27.0990  -21.6670 C.ar      1 A9B         0.0388
     10 C2          0.9080   28.4560  -21.6340 C.ar      1 A9B        -0.0490
     11 C1          0.1120   29.3160  -22.3640 C.ar      1 A9B        -0.0526
     12 O1         -2.8070   29.1830  -24.6170 O.3       1 A9B        -0.2432
     13 O2         -4.8810   28.6380  -26.2550 O.2       1 A9B        -0.3836
     14 N1         -5.3110   30.8210  -26.6230 N.am      1 A9B        -0.2568
     15 N2         -5.0860   32.1700  -26.3180 N.4       1 A9B         0.3581
     16 CL1         1.6430   26.0120  -20.7480 Cl        1 A9B        -0.0717
     17 H1         -3.1587   32.3836  -25.2746 H         1 A9B         0.0456
     18 H2         -1.1269   31.8058  -23.6360 H         1 A9B         0.0410
     19 H3         -0.6003   25.5292  -22.4270 H         1 A9B         0.0619
     20 H4         -2.0171   27.0673  -23.7300 H         1 A9B         0.0611
     21 H5          1.7317   28.8392  -21.0425 H         1 A9B         0.0619
     22 H6          0.3135   30.3809  -22.3417 H         1 A9B         0.0611
     23 H7         -6.0328   30.5919  -27.2761 H         1 A9B         0.2366
     24 H8         -5.7302   32.7442  -26.8390 H         1 A9B         0.2245
     25 H9         -4.1404   32.4171  -26.5647 H         1 A9B         0.2245
     26 H10        -5.2256   32.3192  -25.3309 H         1 A9B         0.2245
@<TRIPOS>BOND
     1    2    1 1  
     2    1   13 2  
     3    1   14 am 
     4    2    3 2  
     5   12    2 1  
     6    4    3 1  
     7    5    4 2  
     8    8    5 1  
     9    5   12 1  
    10    7    6 ar 
    11    6    9 ar 
    12    7    8 ar 
    13    8   11 ar 
    14    9   10 ar 
    15    9   16 1  
    16   10   11 ar 
    17   14   15 1  
    18    3   17 1  
    19    4   18 1  
    20    6   19 1  
    21    7   20 1  
    22   10   21 1  
    23   11   22 1  
    24   14   23 1  
    25   15   24 1  
    26   15   25 1  
    27   15   26 1  
@<TRIPOS>SUBSTRUCTURE
     1 A9B         1

