### 
### Created by X-TOOL on Mon Sep 10 21:13:32 2018
### 

@<TRIPOS>MOLECULE
5ose_ligand
   22    22     1     0     0
SMALL
GAST_HUCK


@<TRIPOS>ATOM
      1 C4         -2.3970   30.2350  -24.4400 C.2       1 A98         0.2191
      2 C5         -3.1840   32.4970  -24.7900 C.2       1 A98         0.3607
      3 C6         -4.4430   34.4520  -25.1590 C.3       1 A98         0.0670
      4 C3         -1.0240   28.9250  -22.8140 C.2       1 A98         0.1594
      5 C2          0.7800   27.0410  -21.9610 C.3       1 A98         0.0109
      6 C1          1.8530   26.7210  -20.9540 C.3       1 A98        -0.0534
      7 S1         -0.0520   28.5540  -21.4220 S.3       1 A98        -0.0567
      8 N1         -1.4360   28.2090  -23.8540 N.2       1 A98        -0.2787
      9 N2         -2.2350   28.9590  -24.7850 N.2       1 A98        -0.2755
     10 S2         -1.5880   30.5280  -22.9600 S.3       1 A98         0.0741
     11 N3         -3.1170   31.1830  -25.1460 N.am      1 A98        -0.1700
     12 O1         -2.5040   33.0390  -23.9490 O.2       1 A98        -0.3632
     13 O2         -4.1460   33.0870  -25.5110 O.3       1 A98        -0.2607
     14 H1         -5.2425   34.8332  -25.8113 H         1 A98         0.0575
     15 H2         -3.5408   35.0682  -25.2865 H         1 A98         0.0575
     16 H3         -4.7726   34.4969  -24.1105 H         1 A98         0.0575
     17 H4          0.0564   26.2141  -22.0121 H         1 A98         0.0407
     18 H5          1.2313   27.1951  -22.9523 H         1 A98         0.0407
     19 H6          2.3776   25.8027  -21.2565 H         1 A98         0.0240
     20 H7          1.3951   26.5727  -19.9649 H         1 A98         0.0240
     21 H8          2.5700   27.5537  -20.9050 H         1 A98         0.0240
     22 H9         -3.6150   30.8879  -25.9614 H         1 A98         0.2412
@<TRIPOS>BOND
     1    1    9 2  
     2   10    1 1  
     3    1   11 1  
     4   11    2 am 
     5    2   12 2  
     6    2   13 1  
     7   13    3 1  
     8    7    4 1  
     9    4    8 2  
    10    4   10 1  
    11    5    6 1  
    12    5    7 1  
    13    8    9 1  
    14    3   14 1  
    15    3   15 1  
    16    3   16 1  
    17    5   17 1  
    18    5   18 1  
    19    6   19 1  
    20    6   20 1  
    21    6   21 1  
    22   11   22 1  
@<TRIPOS>SUBSTRUCTURE
     1 A98         1

