### 
### Created by X-TOOL on Mon Sep 10 21:13:33 2018
### 

@<TRIPOS>MOLECULE
5osk_ligand
   50    52     1     0     0
SMALL
GAST_HUCK


@<TRIPOS>ATOM
      1 C4         18.4750   66.9690   44.8170 C.ar      1 A9Q         0.0518
      2 C14        16.1910   66.6640   39.0120 C.ar      1 A9Q         0.0829
      3 C5         17.9390   65.8630   44.1390 C.ar      1 A9Q        -0.0180
      4 C6         17.4250   64.8020   44.8980 C.ar      1 A9Q        -0.0499
      5 C11        18.0930   67.2750   40.5600 C.3       1 A9Q         0.0660
      6 C8         18.8930   68.1490   42.6550 C.2       1 A9Q         0.2880
      7 C10        17.9190   65.8060   42.6370 C.3       1 A9Q         0.0594
      8 C12        16.6340   67.1270   40.2600 C.ar      1 A9Q         0.0002
      9 C13        15.6980   67.4390   41.2340 C.ar      1 A9Q        -0.0380
     10 C3         18.4930   67.0180   46.2200 C.ar      1 A9Q        -0.0243
     11 C1         17.4390   64.8410   46.3080 C.ar      1 A9Q         0.1002
     12 C15        14.8280   66.5160   38.7320 C.ar      1 A9Q        -0.0479
     13 C16        13.9000   66.8330   39.7110 C.ar      1 A9Q        -0.0486
     14 C17        14.3400   67.2920   40.9580 C.ar      1 A9Q         0.0729
     15 C2         17.9710   65.9660   46.9780 C.ar      1 A9Q         0.1334
     16 C20        12.1280   67.1070   41.8210 C.3       1 A9Q         0.0568
     17 C21        16.8380   66.8160   36.7150 C.3       1 A9Q         0.0553
     18 C28        16.7290   62.5460   46.2840 C.3       1 A9Q         0.0535
     19 N25        15.5760   66.0430   49.4310 N.am      1 A9Q        -0.2385
     20 N7         19.0170   68.0850   44.0720 N.am      1 A9Q        -0.2307
     21 N9         18.3470   67.0710   41.9960 N.am      1 A9Q        -0.2384
     22 O18        13.4480   67.6140   41.9640 O.3       1 A9Q        -0.3301
     23 O19        17.1270   66.3660   38.0400 O.3       1 A9Q        -0.3321
     24 O22        16.9150   63.7620   47.0110 O.3       1 A9Q        -0.3362
     25 O23        18.0460   66.0930   48.3720 O.3       1 A9Q        -0.1670
     26 O26        17.5600   66.9290   50.7400 O.2       1 A9Q        -0.1234
     27 O27        16.7950   68.2540   48.8320 O.2       1 A9Q        -0.1234
     28 O29        19.2480   69.1520   42.0070 O.2       1 A9Q        -0.3920
     29 S24        17.0260   66.9110   49.3730 S.o2      1 A9Q         0.1752
     30 H1         17.0099   63.9374   44.3928 H         1 A9Q         0.0416
     31 H2         18.4207   68.2854   40.2743 H         1 A9Q         0.0660
     32 H3         18.6589   66.5290   39.9827 H         1 A9Q         0.0660
     33 H4         16.8936   65.5787   42.3100 H         1 A9Q         0.0633
     34 H5         18.5951   65.0026   42.3092 H         1 A9Q         0.0633
     35 H6         16.0209   67.7955   42.2054 H         1 A9Q         0.0454
     36 H7         18.9163   67.8811   46.7209 H         1 A9Q         0.0379
     37 H8         14.5024   66.1581   37.7620 H         1 A9Q         0.0496
     38 H9         12.8397   66.7262   39.5124 H         1 A9Q         0.0458
     39 H10        11.5170   67.4284   42.6774 H         1 A9Q         0.0573
     40 H11        12.1592   66.0081   41.7848 H         1 A9Q         0.0573
     41 H12        11.6861   67.4922   40.8902 H         1 A9Q         0.0573
     42 H13        17.6542   66.5180   36.0404 H         1 A9Q         0.0570
     43 H14        16.7420   67.9118   36.7127 H         1 A9Q         0.0570
     44 H15        15.8954   66.3646   36.3718 H         1 A9Q         0.0570
     45 H16        16.3115   61.7791   46.9530 H         1 A9Q         0.0567
     46 H17        17.6971   62.2020   45.8910 H         1 A9Q         0.0567
     47 H18        16.0352   62.7207   45.4485 H         1 A9Q         0.0567
     48 H19        14.8164   66.3752   49.9902 H         1 A9Q         0.1657
     49 H20        15.4780   65.1975   48.9061 H         1 A9Q         0.1657
     50 H21        19.4854   68.8219   44.5594 H         1 A9Q         0.2195
@<TRIPOS>BOND
     1    1    3 ar 
     2   10    1 ar 
     3    1   20 1  
     4    8    2 ar 
     5    2   12 ar 
     6    2   23 1  
     7    4    3 ar 
     8    3    7 1  
     9   11    4 ar 
    10    5    8 1  
    11   21    5 1  
    12   20    6 am 
    13    6   21 am 
    14    6   28 2  
    15    7   21 1  
    16    8    9 ar 
    17    9   14 ar 
    18   15   10 ar 
    19   15   11 ar 
    20   11   24 1  
    21   12   13 ar 
    22   14   13 ar 
    23   14   22 1  
    24   25   15 1  
    25   22   16 1  
    26   23   17 1  
    27   24   18 1  
    28   29   19 am 
    29   25   29 1  
    30   29   26 2  
    31   29   27 2  
    32    4   30 1  
    33    5   31 1  
    34    5   32 1  
    35    7   33 1  
    36    7   34 1  
    37    9   35 1  
    38   10   36 1  
    39   12   37 1  
    40   13   38 1  
    41   16   39 1  
    42   16   40 1  
    43   16   41 1  
    44   17   42 1  
    45   17   43 1  
    46   17   44 1  
    47   18   45 1  
    48   18   46 1  
    49   18   47 1  
    50   19   48 1  
    51   19   49 1  
    52   20   50 1  
@<TRIPOS>SUBSTRUCTURE
     1 A9Q         1

