### 
### Created by X-TOOL on Wed Jan  1 15:39:35 2020
### 

@<TRIPOS>MOLECULE
5osl_ligand
   29    30     1     0     0
SMALL
GAST_HUCK


@<TRIPOS>ATOM
      1 C1       -135.7940 -182.9980  297.1110 C.ar      1 A9K         0.0010
      2 C2       -136.5380 -183.4240  296.0180 C.ar      1 A9K        -0.0556
      3 C3       -136.0000 -184.2870  295.0760 C.ar      1 A9K        -0.0622
      4 C4       -134.6980 -184.7810  295.2180 C.ar      1 A9K        -0.0140
      5 C5       -133.9680 -184.3700  296.3470 C.ar      1 A9K         0.0396
      6 C6       -134.4980 -183.4810  297.2660 C.ar      1 A9K        -0.0420
      7 CL       -132.3970 -185.0390  296.6860 Cl        1 A9K        -0.0728
      8 C        -136.3120 -182.0030  298.0760 C.3       1 A9K        -0.0019
      9 N        -136.2760 -180.6110  297.5420 N.4       1 A9K         0.2308
     10 C7       -134.1500 -185.6800  294.1560 C.ar      1 A9K         0.0087
     11 C12      -133.0840 -185.3150  293.3170 C.ar      1 A9K         0.0966
     12 O        -132.4900 -184.1010  293.4760 O.3       1 A9K        -0.3311
     13 C11      -132.6600 -186.1660  292.2940 C.ar      1 A9K        -0.0325
     14 C10      -133.3100 -187.3690  292.0810 C.ar      1 A9K        -0.0710
     15 C9       -134.3700 -187.7380  292.8940 C.ar      1 A9K        -0.0728
     16 C8       -134.7760 -186.9120  293.9330 C.ar      1 A9K        -0.0633
     17 H1       -137.5575 -183.0753  295.8996 H         1 A9K         0.0559
     18 H2       -136.5946 -184.5828  294.2193 H         1 A9K         0.0593
     19 H3       -133.9003 -183.1592  298.1112 H         1 A9K         0.0563
     20 H4       -135.6995 -182.0458  298.9887 H         1 A9K         0.0979
     21 H5       -137.3533 -182.2592  298.3209 H         1 A9K         0.0979
     22 H6       -136.6381 -179.9756  298.2357 H         1 A9K         0.2008
     23 H7       -136.8406 -180.5560  296.7088 H         1 A9K         0.2008
     24 H8       -135.3251 -180.3605  297.3207 H         1 A9K         0.2008
     25 H9       -131.7924 -184.0051  292.8383 H         1 A9K         0.2494
     26 H10      -131.8219 -185.8842  291.6669 H         1 A9K         0.0540
     27 H11      -132.9899 -188.0230  291.2779 H         1 A9K         0.0585
     28 H12      -134.8843 -188.6758  292.7177 H         1 A9K         0.0524
     29 H13      -135.5878 -187.2248  294.5797 H         1 A9K         0.0586
@<TRIPOS>BOND
     1    1    2 ar 
     2    1    6 ar 
     3    1    8 1  
     4    2    3 ar 
     5    3    4 ar 
     6    4    5 ar 
     7    4   10 1  
     8    5    6 ar 
     9    5    7 1  
    10    8    9 1  
    11   10   11 ar 
    12   10   16 ar 
    13   11   12 1  
    14   11   13 ar 
    15   13   14 ar 
    16   14   15 ar 
    17   15   16 ar 
    18    2   17 1  
    19    3   18 1  
    20    6   19 1  
    21    8   20 1  
    22    8   21 1  
    23    9   22 1  
    24    9   23 1  
    25    9   24 1  
    26   12   25 1  
    27   13   26 1  
    28   14   27 1  
    29   15   28 1  
    30   16   29 1  
@<TRIPOS>SUBSTRUCTURE
     1 A9K         1

