### 
### Created by X-TOOL on Wed Jan  1 15:39:37 2020
### 

@<TRIPOS>MOLECULE
5ost_ligand
   26    27     1     0     0
SMALL
GAST_HUCK


@<TRIPOS>ATOM
      1 C4        -29.7280  -13.3650  -17.5360 C.3       1 AEZ         0.0986
      2 C5        -29.1740  -13.6210  -18.9350 C.3       1 AEZ         0.0598
      3 C6        -28.0420  -14.6460  -19.0010 C.3       1 AEZ         0.0587
      4 C7        -30.3300  -14.0700  -19.7510 C.2       1 AEZ         0.0587
      5 C10       -31.7160  -15.0260  -21.1390 C.2       1 AEZ         0.0834
      6 C3        -30.7810  -12.2490  -17.6120 C.3       1 AEZ         0.1128
      7 C1        -31.6730  -13.5190  -19.5600 C.2       1 AEZ         0.0209
      8 C2        -32.0160  -12.5500  -18.4970 C.3       1 AEZ         0.1055
      9 O2        -32.7060  -11.3880  -18.9730 O.3       1 AEZ        -0.3834
     10 O4        -28.6200  -12.9710  -16.7230 O.3       1 AEZ        -0.3869
     11 O3        -31.2530  -11.9540  -16.2900 O.3       1 AEZ        -0.3853
     12 O6        -27.3760  -14.5460  -20.2850 O.3       1 AEZ        -0.3928
     13 N8        -32.4590  -14.1460  -20.4290 N.2       1 AEZ        -0.3359
     14 N9        -30.4280  -14.9910  -20.7250 N.pl3     1 AEZ        -0.2702
     15 H1        -30.1873  -14.2786  -17.1307 H         1 AEZ         0.0645
     16 H2        -28.7884  -12.6726  -19.3373 H         1 AEZ         0.0499
     17 H3        -28.4557  -15.6580  -18.8801 H         1 AEZ         0.0581
     18 H4        -27.3191  -14.4468  -18.1962 H         1 AEZ         0.0581
     19 H5        -32.0991  -15.6696  -21.9295 H         1 AEZ         0.1131
     20 H6        -30.2854  -11.3568  -18.0224 H         1 AEZ         0.0660
     21 H7        -32.7353  -13.0631  -17.8418 H         1 AEZ         0.0701
     22 H8        -32.1604  -10.9334  -19.6039 H         1 AEZ         0.2118
     23 H9        -28.9257  -12.7800  -15.8440 H         1 AEZ         0.2101
     24 H10       -30.5127  -11.7652  -15.7254 H         1 AEZ         0.2102
     25 H11       -27.0193  -13.6716  -20.3882 H         1 AEZ         0.2096
     26 H12       -29.6581  -15.5686  -21.0918 H         1 AEZ         0.2347
@<TRIPOS>BOND
     1    2    1 1  
     2    1    6 1  
     3    1   10 1  
     4    2    3 1  
     5    4    2 1  
     6    3   12 1  
     7    4    7 2  
     8   14    4 1  
     9    5   13 2  
    10    5   14 1  
    11    6    8 1  
    12    6   11 1  
    13    7    8 1  
    14    7   13 1  
    15    8    9 1  
    16    1   15 1  
    17    2   16 1  
    18    3   17 1  
    19    3   18 1  
    20    5   19 1  
    21    6   20 1  
    22    8   21 1  
    23    9   22 1  
    24   10   23 1  
    25   11   24 1  
    26   12   25 1  
    27   14   26 1  
@<TRIPOS>SUBSTRUCTURE
     1 AEZ         1

