### 
### Created by X-TOOL on Mon Sep 10 21:13:32 2018
### 

@<TRIPOS>MOLECULE
5ot8_ligand
   35    34     1     0     0
SMALL
GAST_HUCK


@<TRIPOS>ATOM
      1 O           5.7880   19.3490  -12.2320 O.co2     1 6DB        -0.5643
      2 C           5.7510   20.4380  -11.6380 C.2       1 6DB         0.0842
      3 CA          4.4680   20.9950  -11.1780 C.3       1 6DB         0.0288
      4 CB          3.9200   22.0390  -12.1820 C.3       1 6DB        -0.0094
      5 N           3.4400   19.9960  -10.8980 N.4       1 6DB         0.2545
      6 CAI         3.7430   18.8700   -9.9690 C.3       1 6DB         0.0318
      7 CAE         2.5010   18.0560   -9.7180 C.2       1 6DB         0.0845
      8 OAB         1.3570   18.5530   -9.9230 O.co2     1 6DB        -0.5643
      9 OAF         2.5960   16.8460   -9.2850 O.co2     1 6DB        -0.5643
     10 CAK         4.3940   19.2860   -8.6450 C.3       1 6DB         0.0057
     11 CAL         3.6010   20.3980   -7.9110 C.3       1 6DB        -0.0131
     12 CAM         3.8350   20.3910   -6.4200 C.3       1 6DB         0.0628
     13 NAN         3.2050   21.5800   -5.9710 N.pl3     1 6DB        -0.2723
     14 CAP         3.5620   22.1720   -4.7720 C.cat     1 6DB         0.2882
     15 NAO         2.9540   23.2560   -4.4060 N.pl3     1 6DB        -0.2849
     16 NAQ         4.4810   21.6260   -4.0480 N.pl3     1 6DB        -0.2849
     17 OXT         6.8510   21.0360  -11.4300 O.co2     1 6DB        -0.5643
     18 H1          4.6724   21.5182  -10.2323 H         1 6DB         0.1022
     19 H2          2.9633   22.4363  -11.8121 H         1 6DB         0.0303
     20 H3          3.7647   21.5606  -13.1603 H         1 6DB         0.0303
     21 H4          4.6427   22.8616  -12.2867 H         1 6DB         0.0303
     22 H5          3.1820   19.5854  -11.7817 H         1 6DB         0.2047
     23 H6          2.6496   20.4889  -10.5129 H         1 6DB         0.2047
     24 H7          4.4661   18.2207  -10.4844 H         1 6DB         0.1025
     25 H8          5.4087   19.6564   -8.8529 H         1 6DB         0.0340
     26 H9          4.4525   18.4046   -7.9895 H         1 6DB         0.0340
     27 H10         2.5277   20.2482   -8.0997 H         1 6DB         0.0302
     28 H11         3.9110   21.3745   -8.3115 H         1 6DB         0.0302
     29 H12         4.9111   20.4082   -6.1925 H         1 6DB         0.0689
     30 H13         3.3762   19.5056   -5.9558 H         1 6DB         0.0689
     31 H14         2.4684   22.0107   -6.5479 H         1 6DB         0.2642
     32 H15         3.2049   23.7122   -3.5172 H         1 6DB         0.2615
     33 H16         2.2198   23.6616   -5.0038 H         1 6DB         0.2615
     34 H17         4.9447   20.7639   -4.3684 H         1 6DB         0.2615
     35 H18         4.7504   22.0525   -3.1500 H         1 6DB         0.2615
@<TRIPOS>BOND
     1    1    2 ar 
     2    2    3 1  
     3    2   17 ar 
     4    3    4 1  
     5    3    5 1  
     6    5    6 1  
     7    6    7 1  
     8    6   10 1  
     9    7    8 ar 
    10    7    9 ar 
    11   10   11 1  
    12   11   12 1  
    13   12   13 1  
    14   13   14 ar 
    15   14   15 ar 
    16   14   16 ar 
    17    3   18 1  
    18    4   19 1  
    19    4   20 1  
    20    4   21 1  
    21    5   22 1  
    22    5   23 1  
    23    6   24 1  
    24   10   25 1  
    25   10   26 1  
    26   11   27 1  
    27   11   28 1  
    28   12   29 1  
    29   12   30 1  
    30   13   31 1  
    31   15   32 1  
    32   15   33 1  
    33   16   34 1  
    34   16   35 1  
@<TRIPOS>SUBSTRUCTURE
     1 6DB         1

