### 
### Created by X-TOOL on Mon Sep 10 21:13:32 2018
### 

@<TRIPOS>MOLECULE
5ot9_ligand
   28    28     1     0     0
SMALL
GAST_HUCK


@<TRIPOS>ATOM
      1 O          21.5590   -4.4400   -0.4450 O.co2     1 AOZ        -0.5643
      2 C          20.4570   -5.0540   -0.2550 C.2       1 AOZ         0.0842
      3 CA         20.2500   -6.5100   -0.7150 C.3       1 AOZ         0.0289
      4 CB         20.7930   -7.4640    0.3280 C.3       1 AOZ        -0.0094
      5 N          18.8560   -6.8700   -1.0550 N.4       1 AOZ         0.2555
      6 CAI        18.0990   -6.0650   -1.9970 C.3       1 AOZ         0.0375
      7 CAE        16.7960   -6.7370   -2.3780 C.2       1 AOZ         0.0861
      8 OAB        16.5890   -7.9260   -2.0170 O.co2     1 AOZ        -0.5642
      9 OAF        15.9050   -6.1040   -3.0190 O.co2     1 AOZ        -0.5642
     10 CAK        18.8140   -5.4370   -3.1950 C.3       1 AOZ         0.0293
     11 CAL        19.3190   -6.3200   -4.3090 C.2       1 AOZ        -0.0001
     12 NAN        19.5220   -5.9180   -5.5760 N.2       1 AOZ        -0.3251
     13 CAP        19.6710   -7.6720   -4.2860 C.2       1 AOZ         0.0292
     14 CAQ        19.9760   -6.9350   -6.2970 C.2       1 AOZ         0.0907
     15 NAQ        20.0850   -8.0020   -5.5230 N.pl3     1 AOZ        -0.2752
     16 OXT        19.4980   -4.4780    0.2930 O.co2     1 AOZ        -0.5643
     17 H1         20.8438   -6.6408   -1.6317 H         1 AOZ         0.1022
     18 H2         20.6411   -8.5002   -0.0084 H         1 AOZ         0.0303
     19 H3         20.2645   -7.3063    1.2797 H         1 AOZ         0.0303
     20 H4         21.8679   -7.2786    0.4704 H         1 AOZ         0.0303
     21 H5         18.3375   -6.8680   -0.1906 H         1 AOZ         0.2048
     22 H6         18.8818   -7.8056   -1.4292 H         1 AOZ         0.2048
     23 H7         17.7979   -5.1914   -1.4002 H         1 AOZ         0.1043
     24 H8         19.6845   -4.8939   -2.7986 H         1 AOZ         0.0446
     25 H9         18.1110   -4.7224   -3.6478 H         1 AOZ         0.0446
     26 H10        19.6197   -8.3367   -3.4249 H         1 AOZ         0.0729
     27 H11        20.2201   -6.8973   -7.3576 H         1 AOZ         0.1199
     28 H12        20.4282   -8.9276   -5.8170 H         1 AOZ         0.2361
@<TRIPOS>BOND
     1    1    2 ar 
     2    2    3 1  
     3    2   16 ar 
     4    3    4 1  
     5    3    5 1  
     6    5    6 1  
     7    6    7 1  
     8    6   10 1  
     9    7    8 ar 
    10    7    9 ar 
    11   10   11 1  
    12   11   12 1  
    13   11   13 2  
    14   12   14 2  
    15   13   15 1  
    16   14   15 1  
    17    3   17 1  
    18    4   18 1  
    19    4   19 1  
    20    4   20 1  
    21    5   21 1  
    22    5   22 1  
    23    6   23 1  
    24   10   24 1  
    25   10   25 1  
    26   13   26 1  
    27   14   27 1  
    28   15   28 1  
@<TRIPOS>SUBSTRUCTURE
     1 AOZ         1

