### 
### Created by X-TOOL on Mon Sep 10 21:13:31 2018
### 

@<TRIPOS>MOLECULE
5ota_ligand
   30    29     1     0     0
SMALL
GAST_HUCK


@<TRIPOS>ATOM
      1 O           5.8840   19.2790  -12.2500 O.co2     1 AQQ        -0.5643
      2 C           5.7380   20.4790  -11.9630 C.2       1 AQQ         0.0842
      3 CA          4.3180   21.0350  -11.6900 C.3       1 AQQ         0.0288
      4 CB          3.7970   21.7700  -12.9240 C.3       1 AQQ        -0.0094
      5 N           3.3440   19.9980  -11.2840 N.4       1 AQQ         0.2545
      6 CAN         3.6080   19.2440  -10.0910 C.3       1 AQQ         0.0318
      7 CAL         2.4760   18.2210   -9.9300 C.2       1 AQQ         0.0845
      8 OAF         2.5900   17.2110   -9.1740 O.co2     1 AQQ        -0.5643
      9 OAD         1.3780   18.4020  -10.5310 O.co2     1 AQQ        -0.5643
     10 CAI         3.6190   20.2040   -8.8850 C.3       1 AQQ         0.0073
     11 CAH         4.2380   19.7250   -7.5770 C.3       1 AQQ        -0.0060
     12 CAG         4.0350   20.8160   -6.5390 C.3       1 AQQ        -0.0351
     13 NAB         4.3150   20.3510   -5.1770 N.4       1 AQQ         0.2185
     14 OXT         6.7650   21.2220  -11.8990 O.co2     1 AQQ        -0.5643
     15 H1          4.3982   21.7579  -10.8648 H         1 AQQ         0.1022
     16 H2          2.7891   22.1605  -12.7198 H         1 AQQ         0.0303
     17 H3          3.7552   21.0741  -13.7749 H         1 AQQ         0.0303
     18 H4          4.4715   22.6046  -13.1657 H         1 AQQ         0.0303
     19 H5          3.2756   19.3393  -12.0439 H         1 AQQ         0.2047
     20 H6          2.4557   20.4570  -11.1561 H         1 AQQ         0.2047
     21 H7          4.5770   18.7294  -10.1695 H         1 AQQ         0.1025
     22 H8          2.5728   20.4680   -8.6711 H         1 AQQ         0.0340
     23 H9          4.1690   21.1054   -9.1930 H         1 AQQ         0.0340
     24 H10         5.3128   19.5384   -7.7181 H         1 AQQ         0.0320
     25 H11         3.7451   18.7986   -7.2471 H         1 AQQ         0.0320
     26 H12         2.9912   21.1597   -6.5873 H         1 AQQ         0.0813
     27 H13         4.7082   21.6543   -6.7714 H         1 AQQ         0.0813
     28 H14         4.1669   21.1069   -4.5268 H         1 AQQ         0.1994
     29 H15         5.2720   20.0399   -5.1182 H         1 AQQ         0.1994
     30 H16         3.6986   19.5866   -4.9495 H         1 AQQ         0.1994
@<TRIPOS>BOND
     1    1    2 ar 
     2    2    3 1  
     3    2   14 ar 
     4    3    4 1  
     5    3    5 1  
     6    5    6 1  
     7    6    7 1  
     8    6   10 1  
     9    7    8 ar 
    10    7    9 ar 
    11   10   11 1  
    12   11   12 1  
    13   12   13 1  
    14    3   15 1  
    15    4   16 1  
    16    4   17 1  
    17    4   18 1  
    18    5   19 1  
    19    5   20 1  
    20    6   21 1  
    21   10   22 1  
    22   10   23 1  
    23   11   24 1  
    24   11   25 1  
    25   12   26 1  
    26   12   27 1  
    27   13   28 1  
    28   13   29 1  
    29   13   30 1  
@<TRIPOS>SUBSTRUCTURE
     1 AQQ         1

