### 
### Created by X-TOOL on Mon Sep 10 21:13:32 2018
### 

@<TRIPOS>MOLECULE
5otc_ligand
   27    26     1     0     0
SMALL
GAST_HUCK


@<TRIPOS>ATOM
      1 OAB       -42.3200  -16.8570   -0.9360 O.co2     1 AQK        -0.5645
      2 CAK       -41.6920  -17.9300   -0.7650 C.2       1 AQK         0.0813
      3 OAD       -40.4670  -17.9400   -0.4500 O.co2     1 AQK        -0.5645
      4 CAI       -42.3530  -19.2160   -0.9390 C.3       1 AQK         0.0209
      5 N         -41.6040  -20.1910   -1.7230 N.4       1 AQK         0.2526
      6 CA        -42.3550  -20.4640   -2.9540 C.3       1 AQK         0.0316
      7 C         -42.6860  -21.8900   -2.9740 C.2       1 AQK         0.0845
      8 O         -43.6830  -22.3150   -3.6380 O.co2     1 AQK        -0.5643
      9 CB        -41.4360  -20.1440   -4.0650 C.3       1 AQK         0.0073
     10 CAG       -41.9380  -19.4080   -5.2720 C.3       1 AQK        -0.0060
     11 CAF       -40.9170  -19.1940   -6.3210 C.3       1 AQK        -0.0351
     12 NAA       -41.4430  -19.0140   -7.6550 N.4       1 AQK         0.2185
     13 OXT       -41.9660  -22.7190   -2.3590 O.co2     1 AQK        -0.5643
     14 H1        -43.3153  -19.0401   -1.4419 H         1 AQK         0.0988
     15 H2        -42.5331  -19.6451    0.0577 H         1 AQK         0.0988
     16 H3        -41.4944  -21.0422   -1.1944 H         1 AQK         0.2044
     17 H4        -40.6958  -19.8189   -1.9528 H         1 AQK         0.2044
     18 H5        -43.2688  -19.8543   -3.0104 H         1 AQK         0.1025
     19 H6        -41.0287  -21.1005   -4.4244 H         1 AQK         0.0340
     20 H7        -40.6239  -19.5365   -3.6390 H         1 AQK         0.0340
     21 H8        -42.3093  -18.4250   -4.9467 H         1 AQK         0.0320
     22 H9        -42.7654  -19.9863   -5.7091 H         1 AQK         0.0320
     23 H10       -40.2500  -20.0686   -6.3320 H         1 AQK         0.0813
     24 H11       -40.3395  -18.2957   -6.0575 H         1 AQK         0.0813
     25 H12       -40.6814  -18.8756   -8.3006 H         1 AQK         0.1994
     26 H13       -42.0482  -18.2081   -7.6717 H         1 AQK         0.1994
     27 H14       -41.9662  -19.8328   -7.9232 H         1 AQK         0.1994
@<TRIPOS>BOND
     1    1    2 ar 
     2    2    3 ar 
     3    2    4 1  
     4    4    5 1  
     5    5    6 1  
     6    6    7 1  
     7    6    9 1  
     8    7    8 ar 
     9    7   13 ar 
    10    9   10 1  
    11   10   11 1  
    12   11   12 1  
    13    4   14 1  
    14    4   15 1  
    15    5   16 1  
    16    5   17 1  
    17    6   18 1  
    18    9   19 1  
    19    9   20 1  
    20   10   21 1  
    21   10   22 1  
    22   11   23 1  
    23   11   24 1  
    24   12   25 1  
    25   12   26 1  
    26   12   27 1  
@<TRIPOS>SUBSTRUCTURE
     1 AQK         1

