### 
### Created by X-TOOL on Wed Jan  1 15:39:36 2020
### 

@<TRIPOS>MOLECULE
5otr_ligand
   28    29     1     0     0
SMALL
GAST_HUCK


@<TRIPOS>ATOM
      1 C1       -113.0850 -175.1970  308.1530 C.ar      1 AU8         0.0031
      2 C3       -110.7770 -174.5120  308.2090 C.ar      1 AU8         0.0429
      3 C4       -110.3500 -175.7710  308.6420 C.ar      1 AU8         0.0033
      4 C5       -111.3490 -176.7280  308.7960 C.ar      1 AU8         0.0429
      5 C6       -112.6800 -176.4680  308.5380 C.ar      1 AU8        -0.0400
      6 C8       -108.4480 -176.0310  310.2690 C.ar      1 AU8        -0.0557
      7 C9       -107.1470 -176.4080  310.5720 C.ar      1 AU8        -0.0622
      8 C10      -106.2880 -176.8230  309.5660 C.ar      1 AU8        -0.0626
      9 C11      -106.7320 -176.8500  308.2520 C.ar      1 AU8        -0.0622
     10 C12      -108.0320 -176.4750  307.9460 C.ar      1 AU8        -0.0557
     11 CL1      -110.9260 -178.3000  309.3730 Cl        1 AU8        -0.0709
     12 C        -114.5570 -174.8910  307.9970 C.3       1 AU8        -0.0012
     13 N        -115.2450 -175.7440  307.0270 N.4       1 AU8         0.2310
     14 CL       -109.6240 -173.2380  307.9900 Cl        1 AU8        -0.0709
     15 C2       -112.1100 -174.2240  307.9720 C.ar      1 AU8        -0.0400
     16 C7       -108.9180 -176.0740  308.9520 C.ar      1 AU8        -0.0214
     17 H1       -113.4130 -177.2605  308.6365 H         1 AU8         0.0569
     18 H2       -109.1079 -175.6992  311.0624 H         1 AU8         0.0615
     19 H3       -106.8013 -176.3778  311.5990 H         1 AU8         0.0615
     20 H4       -105.2747 -177.1248  309.8050 H         1 AU8         0.0610
     21 H5       -106.0606 -177.1653  307.4615 H         1 AU8         0.0615
     22 H6       -108.3656 -176.4928  306.9148 H         1 AU8         0.0615
     23 H7       -114.6599 -173.8453  307.6716 H         1 AU8         0.0982
     24 H8       -115.0423 -175.0199  308.9757 H         1 AU8         0.0982
     25 H9       -116.2170 -175.4814  306.9785 H         1 AU8         0.2008
     26 H10      -115.1712 -176.7072  307.3147 H         1 AU8         0.2008
     27 H11      -114.8208 -175.6309  306.1196 H         1 AU8         0.2008
     28 H12      -112.3954 -173.2315  307.6426 H         1 AU8         0.0569
@<TRIPOS>BOND
     1    5    1 ar 
     2    1   12 1  
     3   15    1 ar 
     4    3    2 ar 
     5    2   14 1  
     6    2   15 ar 
     7    3    4 ar 
     8   16    3 1  
     9    4    5 ar 
    10    4   11 1  
    11    6    7 ar 
    12    6   16 ar 
    13    7    8 ar 
    14    8    9 ar 
    15    9   10 ar 
    16   10   16 ar 
    17   12   13 1  
    18    5   17 1  
    19    6   18 1  
    20    7   19 1  
    21    8   20 1  
    22    9   21 1  
    23   10   22 1  
    24   12   23 1  
    25   12   24 1  
    26   13   25 1  
    27   13   26 1  
    28   13   27 1  
    29   15   28 1  
@<TRIPOS>SUBSTRUCTURE
     1 AU8         1

