### 
### Created by X-TOOL on Wed Jan  1 15:39:36 2020
### 

@<TRIPOS>MOLECULE
5otz_ligand
   34    35     1     0     0
SMALL
GAST_HUCK


@<TRIPOS>ATOM
      1 C12      -117.3480 -174.7430  308.5690 C.3       1 AUT        -0.0016
      2 C13      -114.9460 -174.0150  308.7120 C.ar      1 AUT        -0.0411
      3 C9       -114.1100 -176.5590  309.3230 C.ar      1 AUT         0.0411
      4 C8       -113.1530 -175.5480  309.2960 C.ar      1 AUT        -0.0002
      5 C3       -109.5070 -176.5980  309.0550 C.ar      1 AUT        -0.0600
      6 C7       -111.7180 -175.8190  309.6250 C.ar      1 AUT        -0.0186
      7 C11      -115.8850 -175.0380  308.7710 C.ar      1 AUT         0.0021
      8 C14      -113.6150 -174.2720  308.9730 C.ar      1 AUT         0.0411
      9 CL1      -112.4940 -172.9510  308.8990 Cl        1 AUT        -0.0721
     10 C10      -115.4460 -176.3200  309.0690 C.ar      1 AUT        -0.0411
     11 C6       -111.2980 -175.6770  310.9480 C.ar      1 AUT        -0.0617
     12 C4       -109.1140 -176.4620  310.3730 C.ar      1 AUT        -0.0691
     13 C5       -110.0040 -176.0030  311.3150 C.ar      1 AUT        -0.0688
     14 C2       -110.8060 -176.2820  308.6650 C.ar      1 AUT        -0.0355
     15 C1       -111.2420 -176.4560  307.2280 C.3       1 AUT        -0.0210
     16 N        -117.9610 -175.7380  307.6980 N.4       1 AUT         0.2309
     17 CL       -113.6110 -178.1800  309.6750 Cl        1 AUT        -0.0721
     18 C        -110.8530 -175.3290  306.3140 C.3       1 AUT        -0.0552
     19 H1       -117.4556 -173.7483  308.1119 H         1 AUT         0.0980
     20 H2       -117.8564 -174.7553  309.5443 H         1 AUT         0.0980
     21 H3       -115.2608 -173.0089  308.4594 H         1 AUT         0.0566
     22 H4       -108.7970 -176.9542  308.3174 H         1 AUT         0.0554
     23 H5       -116.1558 -177.1386  309.1026 H         1 AUT         0.0566
     24 H6       -111.9914 -175.3080  311.6951 H         1 AUT         0.0597
     25 H7       -108.1018 -176.7178  310.6647 H         1 AUT         0.0594
     26 H8       -109.6915 -175.8962  312.3475 H         1 AUT         0.0559
     27 H9       -112.3380 -176.5483  307.2111 H         1 AUT         0.0428
     28 H10      -110.7900 -177.3817  306.8423 H         1 AUT         0.0428
     29 H11      -118.9380 -175.5219  307.5765 H         1 AUT         0.2008
     30 H12      -117.8682 -176.6515  308.1139 H         1 AUT         0.2008
     31 H13      -117.5008 -175.7287  306.8012 H         1 AUT         0.2008
     32 H14      -111.2105 -175.5426  305.2959 H         1 AUT         0.0252
     33 H15      -109.7579 -175.2263  306.3040 H         1 AUT         0.0252
     34 H16      -111.3058 -174.3929  306.6728 H         1 AUT         0.0252
@<TRIPOS>BOND
     1    7    1 1  
     2    1   16 1  
     3    2    7 ar 
     4    8    2 ar 
     5    4    3 ar 
     6    3   10 ar 
     7    3   17 1  
     8    6    4 1  
     9    4    8 ar 
    10    5   12 ar 
    11   14    5 ar 
    12    6   11 ar 
    13    6   14 ar 
    14    7   10 ar 
    15    8    9 1  
    16   11   13 ar 
    17   12   13 ar 
    18   14   15 1  
    19   15   18 1  
    20    1   19 1  
    21    1   20 1  
    22    2   21 1  
    23    5   22 1  
    24   10   23 1  
    25   11   24 1  
    26   12   25 1  
    27   13   26 1  
    28   15   27 1  
    29   15   28 1  
    30   16   29 1  
    31   16   30 1  
    32   16   31 1  
    33   18   32 1  
    34   18   33 1  
    35   18   34 1  
@<TRIPOS>SUBSTRUCTURE
     1 AUT         1

