### 
### Created by X-TOOL on Wed Jan  1 15:39:38 2020
### 

@<TRIPOS>MOLECULE
5ou1_ligand
   37    38     1     0     0
SMALL
GAST_HUCK


@<TRIPOS>ATOM
      1 C10        43.8530  162.8700   -7.0860 C.2       1 AUQ         0.2377
      2 N12        44.8670  162.5110   -6.1670 N.am      1 AUQ        -0.2299
      3 C13        45.1000  163.0820   -4.8890 C.ar      1 AUQ         0.0689
      4 C15        46.1160  162.7910   -2.7370 C.ar      1 AUQ        -0.0647
      5 C20        40.1810  161.8680   -8.8070 C.ar      1 AUQ        -0.0413
      6 C21        39.0390  161.2940   -8.2750 C.ar      1 AUQ        -0.0415
      7 C01        37.8410  159.4290   -5.4130 C.3       1 AUQ         0.0569
      8 O02        37.9140  159.8230   -6.7650 O.3       1 AUQ        -0.3284
      9 C03        39.1250  160.3720   -7.2430 C.ar      1 AUQ         0.0794
     10 C04        40.3780  160.0110   -6.7510 C.ar      1 AUQ        -0.0415
     11 C05        41.5330  160.5890   -7.2890 C.ar      1 AUQ        -0.0413
     12 C06        41.4320  161.5260   -8.3200 C.ar      1 AUQ         0.0833
     13 O07        42.5340  162.1600   -8.9410 O.3       1 AUQ        -0.3013
     14 C08        43.8130  162.0700   -8.3740 C.3       1 AUQ         0.1700
     15 C09        44.8050  162.5880   -9.3970 C.3       1 AUQ        -0.0165
     16 O11        43.0550  163.7650   -6.8700 O.2       1 AUQ        -0.3812
     17 C14        45.8470  162.3210   -4.0060 C.ar      1 AUQ        -0.0384
     18 C16        45.6290  164.0250   -2.3590 C.ar      1 AUQ        -0.0065
     19 C18        44.8780  164.7990   -3.2350 C.ar      1 AUQ        -0.0647
     20 C19        44.6110  164.3240   -4.5100 C.ar      1 AUQ        -0.0384
     21 I17        46.0480  164.7050   -0.4040 I         1 AUQ        -0.0625
     22 H1         45.4852  161.7769   -6.4479 H         1 AUQ         0.2267
     23 H2         46.7030  162.1977   -2.0453 H         1 AUQ         0.0604
     24 H3         40.0956  162.5905   -9.6106 H         1 AUQ         0.0516
     25 H4         38.0673  161.5683   -8.6695 H         1 AUQ         0.0516
     26 H5         36.8397  159.0254   -5.2023 H         1 AUQ         0.0573
     27 H6         38.0290  160.2991   -4.7668 H         1 AUQ         0.0573
     28 H7         38.5973  158.6551   -5.2152 H         1 AUQ         0.0573
     29 H8         40.4577  159.2828   -5.9520 H         1 AUQ         0.0516
     30 H9         42.5075  160.3093   -6.9052 H         1 AUQ         0.0516
     31 H10        44.0445  161.0191   -8.1461 H         1 AUQ         0.0893
     32 H11        44.7405  161.9795  -10.3111 H         1 AUQ         0.0283
     33 H12        45.8231  162.5245   -8.9854 H         1 AUQ         0.0283
     34 H13        44.5711  163.6358   -9.6368 H         1 AUQ         0.0283
     35 H14        46.2222  161.3515   -4.3131 H         1 AUQ         0.0508
     36 H15        44.5034  165.7675   -2.9238 H         1 AUQ         0.0604
     37 H16        44.0261  164.9170   -5.2038 H         1 AUQ         0.0508
@<TRIPOS>BOND
     1    1    2 am 
     2   14    1 1  
     3    1   16 2  
     4    2    3 1  
     5    3   17 ar 
     6    3   20 ar 
     7   17    4 ar 
     8    4   18 ar 
     9    5    6 ar 
    10   12    5 ar 
    11    6    9 ar 
    12    8    7 1  
    13    9    8 1  
    14   10    9 ar 
    15   11   10 ar 
    16   12   11 ar 
    17   13   12 1  
    18   13   14 1  
    19   14   15 1  
    20   18   19 ar 
    21   18   21 1  
    22   19   20 ar 
    23    2   22 1  
    24    4   23 1  
    25    5   24 1  
    26    6   25 1  
    27    7   26 1  
    28    7   27 1  
    29    7   28 1  
    30   10   29 1  
    31   11   30 1  
    32   14   31 1  
    33   15   32 1  
    34   15   33 1  
    35   15   34 1  
    36   17   35 1  
    37   19   36 1  
    38   20   37 1  
@<TRIPOS>SUBSTRUCTURE
     1 AUQ         1

