### 
### Created by X-TOOL on Wed Jan  1 15:39:38 2020
### 

@<TRIPOS>MOLECULE
5ou2_ligand
   19    20     1     0     0
SMALL
GAST_HUCK


@<TRIPOS>ATOM
      1 C2        -74.2110   43.1900    3.1190 C.2       1 36Y         0.0990
      2 C5        -73.6830   42.0900    1.3450 C.2       1 36Y        -0.0082
      3 C4        -74.8180   42.7550    1.1060 C.2       1 36Y         0.0805
      4 C6        -75.6000   42.7780   -0.1650 C.ar      1 36Y         0.0031
      5 C7        -74.9830   42.4860   -1.3360 C.ar      1 36Y        -0.0532
      6 C8        -75.6560   42.4930   -2.5050 C.ar      1 36Y        -0.0550
      7 C9        -76.9780   42.8130   -2.5470 C.ar      1 36Y         0.0097
      8 C10       -77.6010   43.1090   -1.3700 C.ar      1 36Y        -0.0550
      9 BR        -77.9270   42.8720   -4.2100 Br        1 36Y        -0.0524
     10 C11       -76.9310   43.1030   -0.1700 C.ar      1 36Y        -0.0532
     11 N3        -75.1350   43.4250    2.1950 N.pl3     1 36Y        -0.2580
     12 N1        -73.3250   42.3630    2.5720 N.2       1 36Y        -0.3207
     13 H1        -74.1840   43.5959    4.1292 H         1 36Y         0.1250
     14 H2        -73.1551   41.4416    0.6472 H         1 36Y         0.0516
     15 H3        -73.9269   42.2418   -1.3330 H         1 36Y         0.0605
     16 H4        -75.1372   42.2405   -3.4227 H         1 36Y         0.0635
     17 H5        -78.6563   43.3564   -1.3816 H         1 36Y         0.0635
     18 H6        -77.4443   43.3500    0.7523 H         1 36Y         0.0605
     19 H7        -75.9609   44.0296    2.3103 H         1 36Y         0.2387
@<TRIPOS>BOND
     1    1   11 1  
     2   12    1 2  
     3    2    3 2  
     4    2   12 1  
     5    3    4 1  
     6    3   11 1  
     7    4    5 ar 
     8    4   10 ar 
     9    5    6 ar 
    10    6    7 ar 
    11    7    8 ar 
    12    7    9 1  
    13    8   10 ar 
    14    1   13 1  
    15    2   14 1  
    16    5   15 1  
    17    6   16 1  
    18    8   17 1  
    19   10   18 1  
    20   11   19 1  
@<TRIPOS>SUBSTRUCTURE
     1 36Y         1

