### 
### Created by X-TOOL on Wed Jan  1 15:39:38 2020
### 

@<TRIPOS>MOLECULE
5ou3_ligand
   50    53     1     0     0
SMALL
GAST_HUCK


@<TRIPOS>ATOM
      1 C10       127.8980  -15.9100   -1.8010 C.2       1 AUN         0.0186
      2 N12       126.1560  -16.4060   -0.6010 N.pl3     1 AUN        -0.2514
      3 C13       125.2060  -17.0700    0.2390 C.3       1 AUN         0.0485
      4 C21       135.2360  -13.9290    1.2740 C.2       1 AUN         0.0022
      5 C22       135.9070  -15.1010    0.9270 C.2       1 AUN         0.0364
      6 C24       135.2840  -13.1670    2.6150 C.ar      1 AUN        -0.0323
      7 C26       135.1250  -11.0800    3.8370 C.ar      1 AUN        -0.0579
      8 C01       133.3840  -13.3990   -4.8210 C.3       1 AUN        -0.0161
      9 C02       133.9480  -14.7830   -4.5390 C.3       1 AUN         0.1726
     10 O03       132.9570  -15.8580   -4.6480 O.3       1 AUN        -0.2959
     11 C04       131.7080  -15.8680   -3.9120 C.ar      1 AUN         0.0916
     12 C05       131.4950  -16.8110   -2.9000 C.ar      1 AUN        -0.0361
     13 C06       130.2540  -16.8490   -2.1910 C.ar      1 AUN        -0.0684
     14 C07       129.2620  -15.9600   -2.5220 C.ar      1 AUN        -0.0380
     15 C08       129.4670  -15.0230   -3.5480 C.ar      1 AUN        -0.0684
     16 C09       130.6830  -14.9960   -4.2410 C.ar      1 AUN        -0.0361
     17 C11       127.3060  -16.8850   -1.0030 C.2       1 AUN         0.0476
     18 C14       125.9920  -15.1330   -1.1160 C.2       1 AUN         0.0995
     19 N15       127.0790  -14.8480   -1.8540 N.2       1 AUN        -0.3207
     20 C16       134.6560  -14.8950   -3.1530 C.2       1 AUN         0.2440
     21 O17       135.7290  -15.4710   -3.0670 O.2       1 AUN        -0.3797
     22 N18       134.0560  -14.3190   -1.9930 N.am      1 AUN        -0.1889
     23 C19       134.6860  -14.4200   -0.7570 C.2       1 AUN         0.2357
     24 N20       134.5000  -13.5380    0.2570 N.2       1 AUN        -0.3225
     25 N23       135.5560  -15.3870   -0.3320 N.pl3     1 AUN        -0.2398
     26 C25       135.0920  -11.7850    2.6160 C.ar      1 AUN        -0.0599
     27 C27       135.3570  -11.7660    5.0140 C.ar      1 AUN         0.0071
     28 C29       135.5580  -13.1440    5.0100 C.ar      1 AUN        -0.0579
     29 C30       135.5210  -13.8620    3.7810 C.ar      1 AUN        -0.0599
     30 BR1       135.4140  -10.8400    6.6580 Br        1 AUN        -0.0547
     31 H1        125.5855  -18.0678    0.5042 H         1 AUN         0.0591
     32 H2        124.2507  -17.1716   -0.2968 H         1 AUN         0.0591
     33 H3        125.0518  -16.4810    1.1551 H         1 AUN         0.0591
     34 H4        136.5854  -15.6728    1.5585 H         1 AUN         0.0831
     35 H5        134.9694  -10.0073    3.8521 H         1 AUN         0.0628
     36 H6        134.1832  -12.6499   -4.7201 H         1 AUN         0.0284
     37 H7        132.5807  -13.1771   -4.1030 H         1 AUN         0.0284
     38 H8        132.9803  -13.3690   -5.8438 H         1 AUN         0.0284
     39 H9        134.7112  -14.9664   -5.3097 H         1 AUN         0.0898
     40 H10       132.2777  -17.5187   -2.6516 H         1 AUN         0.0536
     41 H11       130.0980  -17.5731   -1.3995 H         1 AUN         0.0556
     42 H12       128.6826  -14.3198   -3.8036 H         1 AUN         0.0556
     43 H13       130.8244  -14.2835   -5.0456 H         1 AUN         0.0536
     44 H14       127.7212  -17.8618   -0.7592 H         1 AUN         0.0898
     45 H15       125.1365  -14.4792   -0.9531 H         1 AUN         0.1234
     46 H16       133.1806  -13.8417   -2.0691 H         1 AUN         0.2349
     47 H17       135.8829  -16.1928   -0.8840 H         1 AUN         0.2374
     48 H18       134.9188  -11.2571    1.6852 H         1 AUN         0.0579
     49 H19       135.7422  -13.6688    5.9404 H         1 AUN         0.0628
     50 H20       135.6763  -14.9347    3.7630 H         1 AUN         0.0579
@<TRIPOS>BOND
     1   14    1 1  
     2    1   17 2  
     3    1   19 1  
     4    2    3 1  
     5   17    2 1  
     6   18    2 1  
     7    4    5 2  
     8    4    6 1  
     9   24    4 1  
    10    5   25 1  
    11    6   26 ar 
    12    6   29 ar 
    13   26    7 ar 
    14    7   27 ar 
    15    9    8 1  
    16    9   10 1  
    17   20    9 1  
    18   10   11 1  
    19   11   12 ar 
    20   11   16 ar 
    21   12   13 ar 
    22   13   14 ar 
    23   15   14 ar 
    24   16   15 ar 
    25   19   18 2  
    26   20   21 2  
    27   22   20 am 
    28   23   22 1  
    29   23   24 2  
    30   23   25 1  
    31   27   28 ar 
    32   27   30 1  
    33   28   29 ar 
    34    3   31 1  
    35    3   32 1  
    36    3   33 1  
    37    5   34 1  
    38    7   35 1  
    39    8   36 1  
    40    8   37 1  
    41    8   38 1  
    42    9   39 1  
    43   12   40 1  
    44   13   41 1  
    45   15   42 1  
    46   16   43 1  
    47   17   44 1  
    48   18   45 1  
    49   22   46 1  
    50   25   47 1  
    51   26   48 1  
    52   28   49 1  
    53   29   50 1  
@<TRIPOS>SUBSTRUCTURE
     1 AUN         1

