### 
### Created by X-TOOL on Mon Sep 10 21:13:34 2018
### 

@<TRIPOS>MOLECULE
5oug_ligand
   24    24     1     0     0
SMALL
GAST_HUCK


@<TRIPOS>ATOM
      1 O01        28.0430   -0.7830    3.6560 O.2       1 9Z0        -0.3898
      2 C02        27.0930   -0.3530    3.0020 C.2       1 9Z0         0.2201
      3 N03        25.9800   -1.0640    2.8410 N.am      1 9Z0        -0.2865
      4 C04        25.3160   -1.7510    3.9370 C.3       1 9Z0         0.0321
      5 C05        24.0640   -1.0180    4.3750 C.3       1 9Z0        -0.0096
      6 C06        23.5580   -1.4700    5.7270 C.3       1 9Z0         0.0460
      7 O07        23.5110   -2.8900    5.8350 O.3       1 9Z0        -0.3949
      8 C08        27.1110    0.9880    2.4160 C.2       1 9Z0         0.1292
      9 C09        26.1230    1.7670    1.8220 C.2       1 9Z0        -0.0479
     10 C10        26.7210    2.9700    1.4410 C.2       1 9Z0         0.0111
     11 BR1        25.8820    4.4110    0.5710 Br        1 9Z0        -0.0768
     12 C12        28.0380    2.8990    1.8160 C.2       1 9Z0         0.1081
     13 BR2        29.3870    4.1570    1.6070 Br        1 9Z0        -0.0191
     14 N14        28.2800    1.7110    2.4060 N.pl3     1 9Z0        -0.2698
     15 H1         25.5825   -1.1288    1.9257 H         1 9Z0         0.1838
     16 H2         26.0082   -1.8168    4.7893 H         1 9Z0         0.0519
     17 H3         25.0406   -2.7643    3.6092 H         1 9Z0         0.0519
     18 H4         23.2753   -1.1940    3.6287 H         1 9Z0         0.0307
     19 H5         24.2872    0.0579    4.4259 H         1 9Z0         0.0307
     20 H6         22.5449   -1.0692    5.8786 H         1 9Z0         0.0558
     21 H7         24.2281   -1.0772    6.5059 H         1 9Z0         0.0558
     22 H8         23.1891   -3.1305    6.6958 H         1 9Z0         0.2094
     23 H9         25.0792    1.4905    1.6807 H         1 9Z0         0.0405
     24 H10        29.1857    1.3987    2.7844 H         1 9Z0         0.2375
@<TRIPOS>BOND
     1    1    2 2  
     2    2    3 am 
     3    2    8 1  
     4    3    4 1  
     5    4    5 1  
     6    5    6 1  
     7    6    7 1  
     8    8    9 2  
     9    8   14 1  
    10    9   10 1  
    11   10   11 1  
    12   10   12 2  
    13   12   13 1  
    14   12   14 1  
    15    3   15 1  
    16    4   16 1  
    17    4   17 1  
    18    5   18 1  
    19    5   19 1  
    20    6   20 1  
    21    6   21 1  
    22    7   22 1  
    23    9   23 1  
    24   14   24 1  
@<TRIPOS>SUBSTRUCTURE
     1 9Z0         1

