### 
### Created by X-TOOL on Mon Sep 10 21:13:33 2018
### 

@<TRIPOS>MOLECULE
5ouh_ligand
   53    55     1     0     0
SMALL
GAST_HUCK


@<TRIPOS>ATOM
      1 O1         42.3180  -14.2290   -0.6750 O.2       1 L0B        -0.3782
      2 C3         41.3460  -13.7160   -1.1980 C.2       1 L0B         0.1383
      3 C21        32.2400  -16.6650    0.8750 C.ar      1 L0B        -0.0687
      4 C10        32.4550  -17.9950    0.5190 C.ar      1 L0B        -0.0685
      5 C19        33.7020  -18.4270    0.1010 C.ar      1 L0B        -0.0579
      6 C17        34.7400  -17.5240    0.0360 C.ar      1 L0B        -0.0146
      7 C18        34.5180  -16.2140    0.3920 C.ar      1 L0B        -0.0579
      8 C20        33.2560  -15.7760    0.8200 C.ar      1 L0B        -0.0685
      9 C14        37.1460  -16.9960    0.1180 C.3       1 L0B         0.0263
     10 C11        38.5660  -17.3140   -0.3260 C.3       1 L0B        -0.0165
     11 C13        39.4150  -17.4100    0.9410 C.3       1 L0B        -0.0092
     12 C15        40.7680  -17.1480    0.6990 C.3       1 L0B        -0.0427
     13 C12        40.9130  -15.8910    0.0650 C.3       1 L0B        -0.0073
     14 C9         40.2550  -15.9630   -1.2990 C.3       1 L0B        -0.0056
     15 N1         38.8960  -16.2400   -1.1610 N.4       1 L0B         0.2392
     16 C22        38.3730  -15.2420   -0.7240 C.3       1 L0B        -0.0424
     17 C8         40.3650  -14.5950   -1.9660 C.3       1 L0B         0.0655
     18 C16        36.1310  -17.9720   -0.4160 C.3       1 L0B         0.0941
     19 O2         36.2120  -17.9750   -1.7900 O.3       1 L0B        -0.3791
     20 C4         40.5380  -11.6820    0.0530 C.ar      1 L0B        -0.0430
     21 C1         41.1070  -12.2120   -1.0840 C.ar      1 L0B         0.0328
     22 C2         41.4470  -11.3700   -2.1320 C.ar      1 L0B        -0.0430
     23 C5         41.2250  -10.0370   -2.0460 C.ar      1 L0B        -0.0559
     24 C6         40.6440   -9.4960   -0.8890 C.ar      1 L0B        -0.0572
     25 C7         40.3110  -10.3290    0.1400 C.ar      1 L0B        -0.0559
     26 H1         31.2561  -16.3431    1.1966 H         1 L0B         0.0559
     27 H2         31.6342  -18.7013    0.5701 H         1 L0B         0.0599
     28 H3         33.8597  -19.4641   -0.1720 H         1 L0B         0.0557
     29 H4         35.3361  -15.5047    0.3407 H         1 L0B         0.0557
     30 H5         33.0985  -14.7412    1.1020 H         1 L0B         0.0599
     31 H6         36.8846  -15.9885   -0.2377 H         1 L0B         0.0367
     32 H7         37.1090  -17.0179    1.2171 H         1 L0B         0.0367
     33 H8         38.6201  -18.2617   -0.8819 H         1 L0B         0.0854
     34 H9         39.3203  -18.4254    1.3533 H         1 L0B         0.0320
     35 H10        39.0397  -16.6803    1.6736 H         1 L0B         0.0320
     36 H11        41.1803  -17.9335    0.0485 H         1 L0B         0.0269
     37 H12        41.3136  -17.1390    1.6541 H         1 L0B         0.0269
     38 H13        41.9810  -15.6542   -0.0501 H         1 L0B         0.0321
     39 H14        40.4277  -15.1115    0.6706 H         1 L0B         0.0321
     40 H15        40.7428  -16.7346   -1.9127 H         1 L0B         0.0877
     41 H16        38.5259  -16.4400   -2.0770 H         1 L0B         0.2038
     42 H17        37.2944  -15.4179   -0.5992 H         1 L0B         0.0778
     43 H18        38.5299  -14.4088   -1.4249 H         1 L0B         0.0778
     44 H19        38.8186  -14.9909    0.2498 H         1 L0B         0.0778
     45 H20        40.7212  -14.7214   -2.9990 H         1 L0B         0.0541
     46 H21        39.3757  -14.1141   -1.9754 H         1 L0B         0.0541
     47 H22        36.3383  -18.9811   -0.0303 H         1 L0B         0.0759
     48 H23        35.5766  -18.5871   -2.1422 H         1 L0B         0.2130
     49 H24        40.2695  -12.3313    0.8785 H         1 L0B         0.0672
     50 H25        41.8948  -11.7829   -3.0287 H         1 L0B         0.0672
     51 H26        41.4961   -9.3880   -2.8708 H         1 L0B         0.0630
     52 H27        40.4619   -8.4301   -0.8132 H         1 L0B         0.0655
     53 H28        39.8619   -9.9183    1.0371 H         1 L0B         0.0630
@<TRIPOS>BOND
     1    2    1 2  
     2   17    2 1  
     3    2   21 1  
     4    4    3 ar 
     5    8    3 ar 
     6    5    4 ar 
     7    6    5 ar 
     8    6    7 ar 
     9   18    6 1  
    10    7    8 ar 
    11   10    9 1  
    12    9   18 1  
    13   10   11 1  
    14   15   10 1  
    15   12   11 1  
    16   13   12 1  
    17   14   13 1  
    18   14   15 1  
    19   14   17 1  
    20   15   16 1  
    21   18   19 1  
    22   21   20 ar 
    23   20   25 ar 
    24   21   22 ar 
    25   22   23 ar 
    26   23   24 ar 
    27   24   25 ar 
    28    3   26 1  
    29    4   27 1  
    30    5   28 1  
    31    7   29 1  
    32    8   30 1  
    33    9   31 1  
    34    9   32 1  
    35   10   33 1  
    36   11   34 1  
    37   11   35 1  
    38   12   36 1  
    39   12   37 1  
    40   13   38 1  
    41   13   39 1  
    42   14   40 1  
    43   15   41 1  
    44   16   42 1  
    45   16   43 1  
    46   16   44 1  
    47   17   45 1  
    48   17   46 1  
    49   18   47 1  
    50   19   48 1  
    51   20   49 1  
    52   22   50 1  
    53   23   51 1  
    54   24   52 1  
    55   25   53 1  
@<TRIPOS>SUBSTRUCTURE
     1 L0B         1

