### 
### Created by X-TOOL on Mon Sep 10 21:13:34 2018
### 

@<TRIPOS>MOLECULE
5oui_ligand
   31    32     1     0     0
SMALL
GAST_HUCK


@<TRIPOS>ATOM
      1 BR1         9.4770  -27.0300  -17.8580 Br        1 AVB        -0.0544
      2 C02         7.9350  -28.1830  -18.0070 C.ar      1 AVB         0.0235
      3 C03         7.2990  -28.7160  -16.8750 C.ar      1 AVB        -0.0472
      4 C04         6.1820  -29.5470  -17.0660 C.ar      1 AVB        -0.0107
      5 C05         5.7380  -29.7960  -18.3640 C.ar      1 AVB         0.1420
      6 N06         6.3970  -29.2740  -19.4270 N.ar      1 AVB        -0.2815
      7 C07         7.4500  -28.4860  -19.2830 C.ar      1 AVB         0.0028
      8 N08         4.6290  -30.6790  -18.6710 N.am      1 AVB        -0.2159
      9 C09         4.7360  -32.0510  -18.1600 C.2       1 AVB         0.2170
     10 O10         5.6860  -32.3550  -17.4980 O.2       1 AVB        -0.3818
     11 C11         3.7220  -33.1740  -18.4550 C.3       1 AVB         0.0954
     12 C12         4.2600  -33.8090  -19.7060 C.3       1 AVB        -0.0228
     13 C13         3.4380  -34.9360  -20.1820 C.3       1 AVB        -0.0100
     14 C14         1.9660  -34.5250  -20.3190 C.3       1 AVB        -0.0334
     15 N15         1.4500  -33.8470  -19.1010 N.4       1 AVB         0.2289
     16 C16         2.2840  -32.7120  -18.6240 C.3       1 AVB        -0.0132
     17 H1          7.6606  -28.4921  -15.8779 H         1 AVB         0.0715
     18 H2          5.6730  -29.9880  -16.2166 H         1 AVB         0.0603
     19 H3          7.9389  -28.0734  -20.1581 H         1 AVB         0.0803
     20 H4          3.8380  -30.3712  -19.1997 H         1 AVB         0.2323
     21 H5          3.7404  -33.9022  -17.6308 H         1 AVB         0.0598
     22 H6          5.2759  -34.1783  -19.5021 H         1 AVB         0.0296
     23 H7          4.2992  -33.0457  -20.4971 H         1 AVB         0.0296
     24 H8          3.5143  -35.7654  -19.4634 H         1 AVB         0.0318
     25 H9          3.8122  -35.2649  -21.1627 H         1 AVB         0.0318
     26 H10         1.3634  -35.4266  -20.5032 H         1 AVB         0.0814
     27 H11         1.8692  -33.8384  -21.1730 H         1 AVB         0.0814
     28 H12         1.3947  -34.5292  -18.3610 H         1 AVB         0.2015
     29 H13         0.5273  -33.4956  -19.3038 H         1 AVB         0.2015
     30 H14         2.2457  -31.8948  -19.3593 H         1 AVB         0.0843
     31 H15         1.8981  -32.3544  -17.6580 H         1 AVB         0.0843
@<TRIPOS>BOND
     1    1    2 1  
     2    2    3 ar 
     3    2    7 ar 
     4    3    4 ar 
     5    4    5 ar 
     6    5    6 ar 
     7    5    8 1  
     8    6    7 ar 
     9    8    9 am 
    10    9   10 2  
    11    9   11 1  
    12   11   12 1  
    13   11   16 1  
    14   12   13 1  
    15   13   14 1  
    16   14   15 1  
    17   15   16 1  
    18    3   17 1  
    19    4   18 1  
    20    7   19 1  
    21    8   20 1  
    22   11   21 1  
    23   12   22 1  
    24   12   23 1  
    25   13   24 1  
    26   13   25 1  
    27   14   26 1  
    28   14   27 1  
    29   15   28 1  
    30   15   29 1  
    31   16   30 1  
    32   16   31 1  
@<TRIPOS>SUBSTRUCTURE
     1 AVB         1

