### 
### Created by X-TOOL on Wed Jan  1 15:39:37 2020
### 

@<TRIPOS>MOLECULE
5oul_ligand
   28    29     1     0     0
SMALL
GAST_HUCK


@<TRIPOS>ATOM
      1 C1       -115.2390 -175.1420  309.0660 C.ar      1 AWE         0.0027
      2 C2       -114.9740 -176.4060  309.5640 C.ar      1 AWE        -0.0538
      3 C3       -113.7130 -176.7460  310.0210 C.ar      1 AWE        -0.0595
      4 C4       -112.6690 -175.8250  309.9880 C.ar      1 AWE        -0.0114
      5 C5       -112.9450 -174.5580  309.4760 C.ar      1 AWE         0.0424
      6 C6       -114.2050 -174.2170  309.0290 C.ar      1 AWE        -0.0401
      7 F        -109.1890 -175.8630  313.3630 F         1 AWE        -0.1837
      8 C11      -109.6300 -176.2780  312.1500 C.ar      1 AWE         0.1319
      9 C10      -108.8260 -177.0980  311.4110 C.ar      1 AWE        -0.0290
     10 C9       -109.2860 -177.5060  310.1720 C.ar      1 AWE        -0.0640
     11 C8       -110.5240 -177.0930  309.7110 C.ar      1 AWE        -0.0596
     12 C12      -110.8620 -175.8460  311.7270 C.ar      1 AWE        -0.0223
     13 C7       -111.3310 -176.2580  310.4810 C.ar      1 AWE        -0.0237
     14 CL       -111.6880 -173.3710  309.3390 Cl        1 AWE        -0.0709
     15 C        -116.5950 -174.7280  308.5630 C.3       1 AWE        -0.0012
     16 N        -117.4780 -175.8000  308.1630 N.4       1 AWE         0.2310
     17 H1       -115.7685 -177.1427  309.5966 H         1 AWE         0.0564
     18 H2       -113.5355 -177.7422  310.4098 H         1 AWE         0.0609
     19 H3       -114.3886 -173.2196  308.6462 H         1 AWE         0.0567
     20 H4       -107.8596 -177.4184  311.7830 H         1 AWE         0.0597
     21 H5       -108.6721 -178.1543  309.5572 H         1 AWE         0.0605
     22 H6       -110.8702 -177.4234  308.7384 H         1 AWE         0.0581
     23 H7       -111.4612 -175.1943  312.3525 H         1 AWE         0.0599
     24 H8       -116.4451 -174.0731  307.6920 H         1 AWE         0.0982
     25 H9       -117.0932 -174.1634  309.3649 H         1 AWE         0.0982
     26 H10      -118.3530 -175.4136  307.8449 H         1 AWE         0.2008
     27 H11      -117.6454 -176.4084  308.9490 H         1 AWE         0.2008
     28 H12      -117.0515 -176.3256  307.4161 H         1 AWE         0.2008
@<TRIPOS>BOND
     1    2    1 ar 
     2    6    1 ar 
     3    1   15 1  
     4    3    2 ar 
     5    4    3 ar 
     6    4    5 ar 
     7   13    4 1  
     8    5    6 ar 
     9    5   14 1  
    10    8    7 1  
    11    9    8 ar 
    12    8   12 ar 
    13   10    9 ar 
    14   11   10 ar 
    15   11   13 ar 
    16   12   13 ar 
    17   15   16 1  
    18    2   17 1  
    19    3   18 1  
    20    6   19 1  
    21    9   20 1  
    22   10   21 1  
    23   11   22 1  
    24   12   23 1  
    25   15   24 1  
    26   15   25 1  
    27   16   26 1  
    28   16   27 1  
    29   16   28 1  
@<TRIPOS>SUBSTRUCTURE
     1 AWE         1

