### 
### Created by X-TOOL on Wed Jan  1 15:39:37 2020
### 

@<TRIPOS>MOLECULE
5ov8_ligand
   63    66     1     0     0
SMALL
GAST_HUCK


@<TRIPOS>ATOM
      1 CAA        22.0340    5.1770   16.4850 C.3       1 AXN        -0.0609
      2 CAB        23.4520    5.2320   18.5270 C.3       1 AXN        -0.0609
      3 CAC        18.9940   -2.4030   17.0140 C.3       1 AXN         0.0409
      4 CAD        16.2530    0.6560   13.0790 C.3       1 AXN         0.0403
      5 CAI        23.8660    2.3990   14.6780 C.ar      1 AXN        -0.0585
      6 CAJ        23.8080    1.5640   16.9390 C.ar      1 AXN        -0.0585
      7 CAK        23.6730    1.1100   14.1940 C.ar      1 AXN        -0.0415
      8 CAL        23.6130    0.2760   16.4550 C.ar      1 AXN        -0.0415
      9 CAM        20.2890   -1.5670   14.6880 C.ar      1 AXN        -0.0447
     10 CAN        18.9210   -0.0630   12.7540 C.ar      1 AXN        -0.0470
     11 CAO        22.0230    0.2930    9.4490 C.3       1 AXN        -0.0325
     12 CAP        21.2330    1.5510    9.7570 C.3       1 AXN        -0.0325
     13 CAQ        21.2250   -0.7400   10.2350 C.3       1 AXN         0.0212
     14 CAR        21.1860    1.4440   11.2680 C.3       1 AXN         0.0212
     15 CAS        24.1500    3.9090   16.5380 C.3       1 AXN        -0.0168
     16 CAU        23.9420    2.6240   16.0490 C.ar      1 AXN        -0.0427
     17 CAV        20.9310   -1.1530   13.5300 C.ar      1 AXN         0.0556
     18 CAW        23.5450    0.0510   15.0890 C.ar      1 AXN         0.1060
     19 CAX        20.2490   -0.4110   12.5720 C.ar      1 AXN         0.0331
     20 CAY        17.0100   -1.2770   16.1610 C.2       1 AXN         0.3095
     21 CAZ        16.3370   -0.5270   15.2020 C.2       1 AXN         0.3089
     22 CBA        18.9420   -1.2180   14.8720 C.ar      1 AXN         0.0682
     23 CBB        18.2650   -0.4680   13.9110 C.ar      1 AXN         0.0684
     24 CBC        22.9610    4.3580   17.3730 C.3       1 AXN        -0.0370
     25 NAT        22.2090   -1.4410   13.2440 N.am      1 AXN        -0.2035
     26 NBD        20.8520    0.0060   11.4650 N.pl3     1 AXN        -0.3249
     27 NBE        18.2980   -1.6050   15.9810 N.am      1 AXN        -0.2255
     28 NBF        16.9750   -0.1410   14.0880 N.am      1 AXN        -0.2268
     29 OAE        16.4400   -1.6450   17.1880 O.2       1 AXN        -0.3540
     30 OAF        15.1580   -0.2180   15.3570 O.2       1 AXN        -0.3545
     31 OAG        24.5850   -2.1040   13.8640 O.2       1 AXN        -0.1465
     32 OAH        22.8710   -2.5000   15.6040 O.2       1 AXN        -0.1465
     33 SBG        23.2960   -1.5660   14.4700 S.o2      1 AXN         0.0816
     34 H1         21.1658    5.5119   17.0715 H         1 AXN         0.0234
     35 H2         21.6909    4.5577   15.6432 H         1 AXN         0.0234
     36 H3         22.5756    6.0531   16.0988 H         1 AXN         0.0234
     37 H4         24.1224    4.6450   19.1720 H         1 AXN         0.0234
     38 H5         22.5904    5.5810   19.1150 H         1 AXN         0.0234
     39 H6         23.9966    6.0988   18.1245 H         1 AXN         0.0234
     40 H7         18.3001   -2.6188   17.8398 H         1 AXN         0.0544
     41 H8         19.8549   -1.8357   17.3973 H         1 AXN         0.0544
     42 H9         19.3444   -3.3479   16.5731 H         1 AXN         0.0544
     43 H10        15.2160    0.8142   13.4102 H         1 AXN         0.0543
     44 H11        16.2534    0.1193   12.1188 H         1 AXN         0.0543
     45 H12        16.7509    1.6290   12.9554 H         1 AXN         0.0543
     46 H13        23.9573    3.2291   13.9869 H         1 AXN         0.0557
     47 H14        23.8555    1.7419   18.0073 H         1 AXN         0.0557
     48 H15        23.6225    0.9305   13.1262 H         1 AXN         0.0619
     49 H16        23.5140   -0.5532   17.1462 H         1 AXN         0.0619
     50 H17        20.8169   -2.1481   15.4355 H         1 AXN         0.0296
     51 H18        18.3989    0.5186   12.0029 H         1 AXN         0.0323
     52 H19        23.0591    0.3660    9.8110 H         1 AXN         0.0284
     53 H20        22.0257    0.0694    8.3720 H         1 AXN         0.0284
     54 H21        20.2277    1.5252    9.3112 H         1 AXN         0.0284
     55 H22        21.7583    2.4586    9.4249 H         1 AXN         0.0284
     56 H23        21.8412   -1.6190   10.4752 H         1 AXN         0.0503
     57 H24        20.3318   -1.0594    9.6781 H         1 AXN         0.0503
     58 H25        20.4083    2.0967   11.6911 H         1 AXN         0.0503
     59 H26        22.1586    1.6937   11.7171 H         1 AXN         0.0503
     60 H27        24.2816    4.6013   15.6933 H         1 AXN         0.0428
     61 H28        25.0552    3.9168   17.1630 H         1 AXN         0.0428
     62 H29        22.4270    3.4817   17.7692 H         1 AXN         0.0317
     63 H30        22.4971   -1.5780   12.2962 H         1 AXN         0.2063
@<TRIPOS>BOND
     1   24    1 1  
     2   24    2 1  
     3   27    3 1  
     4   28    4 1  
     5    7    5 ar 
     6    5   16 ar 
     7    8    6 ar 
     8    6   16 ar 
     9   18    7 ar 
    10   18    8 ar 
    11   17    9 ar 
    12    9   22 ar 
    13   19   10 ar 
    14   10   23 ar 
    15   12   11 1  
    16   13   11 1  
    17   14   12 1  
    18   26   13 1  
    19   26   14 1  
    20   16   15 1  
    21   15   24 1  
    22   17   19 ar 
    23   25   17 1  
    24   33   18 1  
    25   19   26 1  
    26   20   21 1  
    27   27   20 am 
    28   20   29 2  
    29   28   21 am 
    30   21   30 2  
    31   22   23 ar 
    32   22   27 1  
    33   23   28 1  
    34   25   33 am 
    35   33   31 2  
    36   33   32 2  
    37    1   34 1  
    38    1   35 1  
    39    1   36 1  
    40    2   37 1  
    41    2   38 1  
    42    2   39 1  
    43    3   40 1  
    44    3   41 1  
    45    3   42 1  
    46    4   43 1  
    47    4   44 1  
    48    4   45 1  
    49    5   46 1  
    50    6   47 1  
    51    7   48 1  
    52    8   49 1  
    53    9   50 1  
    54   10   51 1  
    55   11   52 1  
    56   11   53 1  
    57   12   54 1  
    58   12   55 1  
    59   13   56 1  
    60   13   57 1  
    61   14   58 1  
    62   14   59 1  
    63   15   60 1  
    64   15   61 1  
    65   24   62 1  
    66   25   63 1  
@<TRIPOS>SUBSTRUCTURE
     1 AXN         1

