### 
### Created by X-TOOL on Mon Sep 10 21:13:31 2018
### 

@<TRIPOS>MOLECULE
5ov9_ligand
   59    61     1     0     0
SMALL
GAST_HUCK


@<TRIPOS>ATOM
      1 C1         36.6580   29.8440    7.7330 C.3       1 CVI         0.0405
      2 C2         37.5310   30.5400    8.6930 C.ar      1 CVI        -0.0347
      3 C3         38.8430   30.1710    8.8450 C.ar      1 CVI        -0.0680
      4 C4         39.6050   30.8270    9.7820 C.ar      1 CVI        -0.0500
      5 C5         39.0540   31.8300   10.5510 C.ar      1 CVI         0.0334
      6 C6         37.7400   32.1820   10.4020 C.ar      1 CVI        -0.0500
      7 C7         36.9780   31.5230    9.4690 C.ar      1 CVI        -0.0680
      8 C8         37.1060   29.4780    6.3760 C.ar      1 CVI        -0.0347
      9 C9         36.5690   28.3560    5.7930 C.ar      1 CVI        -0.0680
     10 C10        36.9690   27.9980    4.5310 C.ar      1 CVI        -0.0500
     11 C11        37.8960   28.7610    3.8720 C.ar      1 CVI         0.0334
     12 C12        38.4350   29.8770    4.4590 C.ar      1 CVI        -0.0500
     13 C13        38.0390   30.2430    5.7160 C.ar      1 CVI        -0.0680
     14 C14        35.2140   29.8550    8.0410 C.ar      1 CVI        -0.0347
     15 C15        34.8120   29.6010    9.3310 C.ar      1 CVI        -0.0680
     16 C16        33.4750   29.6140    9.6440 C.ar      1 CVI        -0.0500
     17 C17        32.5480   29.8710    8.6680 C.ar      1 CVI         0.0334
     18 C18        32.9480   30.1080    7.3690 C.ar      1 CVI        -0.0500
     19 C19        34.2890   30.1060    7.0540 C.ar      1 CVI        -0.0680
     20 C20        41.1960   32.0290   11.6790 C.3       1 CVI         0.0139
     21 C21        39.3130   33.5410   12.3100 C.3       1 CVI         0.0139
     22 C22        39.2990   29.1720    1.9070 C.3       1 CVI         0.0139
     23 C23        37.7470   27.2160    2.0020 C.3       1 CVI         0.0139
     24 C24        30.8650   29.6700   10.4030 C.3       1 CVI         0.0139
     25 C25        30.1750   29.9840    8.0270 C.3       1 CVI         0.0139
     26 N1         39.8340   32.4720   11.4970 N.pl3     1 CVI        -0.3184
     27 N2         38.3040   28.3960    2.6080 N.pl3     1 CVI        -0.3184
     28 N3         31.2110   29.8540    9.0210 N.pl3     1 CVI        -0.3184
     29 H1         36.8441   28.8433    8.1500 H         1 CVI         0.0701
     30 H2         39.2696   29.3795    8.2396 H         1 CVI         0.0531
     31 H3         40.6454   30.5542    9.9172 H         1 CVI         0.0500
     32 H4         37.3078   32.9681   11.0105 H         1 CVI         0.0500
     33 H5         35.9327   31.7825    9.3462 H         1 CVI         0.0531
     34 H6         35.8366   27.7597    6.3250 H         1 CVI         0.0531
     35 H7         36.5536   27.1157    4.0575 H         1 CVI         0.0500
     36 H8         39.1730   30.4675    3.9282 H         1 CVI         0.0500
     37 H9         38.4559   31.1261    6.1867 H         1 CVI         0.0531
     38 H10        35.5481   29.3911   10.0986 H         1 CVI         0.0531
     39 H11        33.1535   29.4213   10.6611 H         1 CVI         0.0500
     40 H12        32.2090   30.2953    6.5984 H         1 CVI         0.0500
     41 H13        34.6125   30.3004    6.0378 H         1 CVI         0.0531
     42 H14        41.6775   32.6354   12.4604 H         1 CVI         0.0475
     43 H15        41.7480   32.1429   10.7344 H         1 CVI         0.0475
     44 H16        41.2003   30.9713   11.9810 H         1 CVI         0.0475
     45 H17        38.2676   33.7383   12.0303 H         1 CVI         0.0475
     46 H18        39.9129   34.4490   12.1502 H         1 CVI         0.0475
     47 H19        39.3605   33.2519   13.3703 H         1 CVI         0.0475
     48 H20        39.4873   28.7219    0.9211 H         1 CVI         0.0475
     49 H21        40.2323   29.1833    2.4891 H         1 CVI         0.0475
     50 H22        38.9357   30.2020    1.7765 H         1 CVI         0.0475
     51 H23        37.0116   26.7655    2.6848 H         1 CVI         0.0475
     52 H24        38.5511   26.4930    1.8003 H         1 CVI         0.0475
     53 H25        37.2524   27.4873    1.0577 H         1 CVI         0.0475
     54 H26        29.7704   29.6812   10.5115 H         1 CVI         0.0475
     55 H27        31.3011   30.4833   11.0016 H         1 CVI         0.0475
     56 H28        31.2584   28.7046   10.7541 H         1 CVI         0.0475
     57 H29        30.6327   30.1164    7.0355 H         1 CVI         0.0475
     58 H30        29.5493   30.8578    8.2616 H         1 CVI         0.0475
     59 H31        29.5526   29.0771    8.0253 H         1 CVI         0.0475
@<TRIPOS>BOND
     1    1    2 1  
     2    1    8 1  
     3    1   14 1  
     4    2    3 ar 
     5    2    7 ar 
     6    3    4 ar 
     7    4    5 ar 
     8    5    6 ar 
     9    5   26 1  
    10    6    7 ar 
    11    8    9 ar 
    12    8   13 ar 
    13    9   10 ar 
    14   10   11 ar 
    15   11   12 ar 
    16   11   27 1  
    17   12   13 ar 
    18   14   15 ar 
    19   14   19 ar 
    20   15   16 ar 
    21   16   17 ar 
    22   17   18 ar 
    23   17   28 1  
    24   18   19 ar 
    25   26   20 1  
    26   26   21 1  
    27   27   22 1  
    28   27   23 1  
    29   28   24 1  
    30   28   25 1  
    31    1   29 1  
    32    3   30 1  
    33    4   31 1  
    34    6   32 1  
    35    7   33 1  
    36    9   34 1  
    37   10   35 1  
    38   12   36 1  
    39   13   37 1  
    40   15   38 1  
    41   16   39 1  
    42   18   40 1  
    43   19   41 1  
    44   20   42 1  
    45   20   43 1  
    46   20   44 1  
    47   21   45 1  
    48   21   46 1  
    49   21   47 1  
    50   22   48 1  
    51   22   49 1  
    52   22   50 1  
    53   23   51 1  
    54   23   52 1  
    55   23   53 1  
    56   24   54 1  
    57   24   55 1  
    58   24   56 1  
    59   25   57 1  
    60   25   58 1  
    61   25   59 1  
@<TRIPOS>SUBSTRUCTURE
     1 CVI         1

