### 
### Created by X-TOOL on Wed Jan  1 15:39:35 2020
### 

@<TRIPOS>MOLECULE
5ovc_ligand
  106   105     1     0     0
SMALL
GAST_HUCK


@<TRIPOS>ATOM
      1 C          -8.8450   -7.7920  -26.2700 C.2       1 ACE         0.1751
      2 O          -9.2760   -7.8240  -25.1180 O.2       1 ACE        -0.3972
      3 CH3        -9.6820   -7.3010  -27.4160 C.3       1 ACE         0.0258
      4 N          -7.6190   -8.1910  -26.6040 N.am      1 GLU        -0.2657
      5 CA         -6.6660   -8.6920  -25.6190 C.3       1 GLU         0.1324
      6 C          -5.3850   -7.8840  -25.6710 C.2       1 GLU         0.2040
      7 O          -5.0740   -7.2540  -26.6850 O.2       1 GLU        -0.3944
      8 CB         -6.3360  -10.1600  -25.8630 C.3       1 GLU        -0.0008
      9 CG         -7.4360  -11.1340  -25.4990 C.3       1 GLU         0.0044
     10 CD         -6.9430  -12.5670  -25.5210 C.2       1 GLU         0.0350
     11 OE1        -6.2600  -12.9450  -26.4970 O.co2     1 GLU        -0.5690
     12 OE2        -7.2080  -13.3100  -24.5540 O.co2     1 GLU        -0.5690
     13 N          -4.6510   -7.9070  -24.5660 N.am      1 ALA        -0.2640
     14 CA         -3.2990   -7.3870  -24.5040 C.3       1 ALA         0.1282
     15 C          -2.3630   -8.5130  -24.0940 C.2       1 ALA         0.2036
     16 O          -2.7900   -9.5220  -23.5270 O.2       1 ALA        -0.3944
     17 CB         -3.1910   -6.2180  -23.5200 C.3       1 ALA        -0.0244
     18 N          -1.0780   -8.3270  -24.3970 N.am      1 GLN        -0.2636
     19 CA         -0.0240   -9.2880  -24.0900 C.3       1 GLN         0.1330
     20 C           1.1230   -8.5500  -23.4110 C.2       1 GLN         0.2041
     21 O           1.6020   -7.5360  -23.9310 O.2       1 GLN        -0.3944
     22 CB          0.4770   -9.9760  -25.3640 C.3       1 GLN         0.0045
     23 CG         -0.5840  -10.7740  -26.1080 C.3       1 GLN         0.0412
     24 CD         -0.2710  -10.9200  -27.5830 C.2       1 GLN         0.1737
     25 OE1        -0.4310   -9.9750  -28.3540 O.2       1 GLN        -0.3973
     26 NE2         0.1820  -12.1050  -27.9840 N.am      1 GLN        -0.3009
     27 N           1.5750   -9.0620  -22.2690 N.am      1 THR        -0.2613
     28 CA          2.6540   -8.4370  -21.5080 C.3       1 THR         0.1565
     29 C           3.6500   -9.5010  -21.0650 C.2       1 THR         0.2065
     30 O           3.2560  -10.5200  -20.4910 O.2       1 THR        -0.3943
     31 CB          2.1080   -7.6850  -20.2800 C.3       1 THR         0.0924
     32 OG1         1.1330   -6.7120  -20.6880 O.3       1 THR        -0.3874
     33 CG2         3.2280   -6.9810  -19.5340 C.3       1 THR        -0.0346
     34 N           4.9350   -9.2630  -21.3300 N.am      1 ARG        -0.2637
     35 CA          5.9980  -10.1420  -20.8560 C.3       1 ARG         0.1310
     36 C           6.4440   -9.6830  -19.4750 C.2       1 ARG         0.2033
     37 O           6.6540   -8.4850  -19.2480 O.2       1 ARG        -0.3944
     38 CB          7.1860  -10.1510  -21.8200 C.3       1 ARG        -0.0092
     39 CG          8.3130  -11.0410  -21.3470 C.3       1 ARG        -0.0156
     40 CD          9.2960  -11.3370  -22.4470 C.3       1 ARG         0.0627
     41 NE          8.8610  -12.4510  -23.2880 N.pl3     1 ARG        -0.2723
     42 CZ          9.0220  -13.7340  -22.9680 C.cat     1 ARG         0.2882
     43 NH1         9.5960  -14.0770  -21.8240 N.pl3     1 ARG        -0.2849
     44 NH2         8.6020  -14.6810  -23.7900 N.pl3     1 ARG        -0.2849
     45 N           6.5860  -10.6360  -18.5580 N.am      1 LEU        -0.2695
     46 CA          6.9300  -10.3330  -17.1740 C.3       1 LEU         0.0946
     47 C           8.1260  -11.1620  -16.7070 C.2       1 LEU         0.0601
     48 O           8.7000  -10.8700  -15.6560 O.co2     1 LEU        -0.5666
     49 CB          5.7190  -10.5780  -16.2680 C.3       1 LEU        -0.0156
     50 CG          4.5480   -9.6310  -16.5680 C.3       1 LEU        -0.0431
     51 CD1         3.1990  -10.2680  -16.2830 C.3       1 LEU        -0.0625
     52 CD2         4.7170   -8.3270  -15.8040 C.3       1 LEU        -0.0625
     53 OXT         8.5450  -12.1270  -17.3590 O.co2     1 LEU        -0.5666
     54 H1         -9.0994   -7.3601  -28.3472 H         1 ACE         0.0467
     55 H2         -9.9771   -6.2571  -27.2337 H         1 ACE         0.0467
     56 H3        -10.5825   -7.9261  -27.5066 H         1 ACE         0.0467
     57 H4         -7.3417   -8.1457  -27.5637 H         1 GLU         0.1883
     58 H5         -7.1122   -8.5913  -24.6186 H         1 GLU         0.0801
     59 H6         -5.4462  -10.4129  -25.2678 H         1 GLU         0.0330
     60 H7         -6.1098  -10.2854  -26.9321 H         1 GLU         0.0330
     61 H8         -8.2592  -11.0288  -26.2210 H         1 GLU         0.0433
     62 H9         -7.8018  -10.8980  -24.4888 H         1 GLU         0.0433
     63 H10        -5.0487   -8.3013  -23.7375 H         1 ALA         0.1883
     64 H11        -3.0115   -7.0281  -25.5033 H         1 ALA         0.0797
     65 H12        -2.1544   -5.8505  -23.4996 H         1 ALA         0.0277
     66 H13        -3.4795   -6.5574  -22.5143 H         1 ALA         0.0277
     67 H14        -3.8614   -5.4066  -23.8396 H         1 ALA         0.0277
     68 H15        -0.8217   -7.4795  -24.8617 H         1 GLN         0.1883
     69 H16        -0.4209  -10.0524  -23.4057 H         1 GLN         0.0801
     70 H17         1.2914  -10.6616  -25.0870 H         1 GLN         0.0337
     71 H18         0.8642   -9.2021  -26.0431 H         1 GLN         0.0337
     72 H19        -1.5510  -10.2605  -26.0016 H         1 GLN         0.0504
     73 H20        -0.6500  -11.7766  -25.6604 H         1 GLN         0.0504
     74 H21         0.4041  -12.2555  -28.9473 H         1 GLN         0.1814
     75 H22         0.3003  -12.8452  -27.3221 H         1 GLN         0.1814
     76 H23         1.1620   -9.9032  -21.9199 H         1 THR         0.1884
     77 H24         3.1701   -7.7157  -22.1586 H         1 THR         0.0826
     78 H25         1.6309   -8.4109  -19.6052 H         1 THR         0.0639
     79 H26         0.4152   -7.1505  -21.1295 H         1 THR         0.2101
     80 H27         2.8129   -6.4525  -18.6632 H         1 THR         0.0257
     81 H28         3.7164   -6.2575  -20.2034 H         1 THR         0.0257
     82 H29         3.9659   -7.7230  -19.1950 H         1 THR         0.0257
     83 H30         5.1773   -8.4571  -21.8703 H         1 ARG         0.1883
     84 H31         5.6022  -11.1656  -20.7813 H         1 ARG         0.0800
     85 H32         7.5666   -9.1238  -21.9194 H         1 ARG         0.0313
     86 H33         6.8411  -10.5108  -22.8006 H         1 ARG         0.0313
     87 H34         7.8889  -11.9892  -20.9849 H         1 ARG         0.0301
     88 H35         8.8417  -10.5378  -20.5241 H         1 ARG         0.0301
     89 H36        10.2668  -11.5908  -21.9964 H         1 ARG         0.0689
     90 H37         9.4063  -10.4406  -23.0749 H         1 ARG         0.0689
     91 H38         8.4017  -12.2301  -24.1831 H         1 ARG         0.2642
     92 H39         9.7158  -15.0719  -21.5859 H         1 ARG         0.2615
     93 H40         9.9224  -13.3487  -21.1729 H         1 ARG         0.2615
     94 H41         8.1543  -14.4272  -24.6822 H         1 ARG         0.2615
     95 H42         8.7226  -15.6724  -23.5380 H         1 ARG         0.2615
     96 H43         6.4526  -11.5901  -18.8263 H         1 LEU         0.1875
     97 H44         7.2031   -9.2693  -17.1103 H         1 LEU         0.0726
     98 H45         6.0280  -10.4339  -15.2222 H         1 LEU         0.0308
     99 H46         5.3779  -11.6141  -16.4102 H         1 LEU         0.0308
    100 H47         4.5786   -9.3964  -17.6422 H         1 LEU         0.0297
    101 H48         2.3984   -9.5499  -16.5139 H         1 LEU         0.0232
    102 H49         3.1436  -10.5500  -15.2212 H         1 LEU         0.0232
    103 H50         3.0779  -11.1654  -16.9075 H         1 LEU         0.0232
    104 H51         5.7017   -7.8932  -16.0324 H         1 LEU         0.0232
    105 H52         4.6442   -8.5227  -14.7240 H         1 LEU         0.0232
    106 H53         3.9275   -7.6219  -16.1030 H         1 LEU         0.0232
@<TRIPOS>BOND
     1    1    2 2  
     2    1    3 1  
     3    1    4 am 
     4    4    5 1  
     5    5    6 1  
     6    5    8 1  
     7    6    7 2  
     8    6   13 am 
     9    8    9 1  
    10    9   10 1  
    11   10   11 ar 
    12   10   12 ar 
    13   13   14 1  
    14   14   15 1  
    15   14   17 1  
    16   15   16 2  
    17   15   18 am 
    18   18   19 1  
    19   19   20 1  
    20   19   22 1  
    21   20   21 2  
    22   20   27 am 
    23   22   23 1  
    24   23   24 1  
    25   24   25 2  
    26   24   26 am 
    27   27   28 1  
    28   28   29 1  
    29   28   31 1  
    30   29   30 2  
    31   29   34 am 
    32   31   32 1  
    33   31   33 1  
    34   34   35 1  
    35   35   36 1  
    36   35   38 1  
    37   36   37 2  
    38   36   45 am 
    39   38   39 1  
    40   39   40 1  
    41   40   41 1  
    42   41   42 ar 
    43   42   43 ar 
    44   42   44 ar 
    45   45   46 1  
    46   46   47 1  
    47   46   49 1  
    48   47   48 ar 
    49   47   53 ar 
    50   49   50 1  
    51   50   51 1  
    52   50   52 1  
    53    3   54 1  
    54    3   55 1  
    55    3   56 1  
    56    4   57 1  
    57    5   58 1  
    58    8   59 1  
    59    8   60 1  
    60    9   61 1  
    61    9   62 1  
    62   13   63 1  
    63   14   64 1  
    64   17   65 1  
    65   17   66 1  
    66   17   67 1  
    67   18   68 1  
    68   19   69 1  
    69   22   70 1  
    70   22   71 1  
    71   23   72 1  
    72   23   73 1  
    73   26   74 1  
    74   26   75 1  
    75   27   76 1  
    76   28   77 1  
    77   31   78 1  
    78   32   79 1  
    79   33   80 1  
    80   33   81 1  
    81   33   82 1  
    82   34   83 1  
    83   35   84 1  
    84   38   85 1  
    85   38   86 1  
    86   39   87 1  
    87   39   88 1  
    88   40   89 1  
    89   40   90 1  
    90   41   91 1  
    91   43   92 1  
    92   43   93 1  
    93   44   94 1  
    94   44   95 1  
    95   45   96 1  
    96   46   97 1  
    97   49   98 1  
    98   49   99 1  
    99   50  100 1  
   100   51  101 1  
   101   51  102 1  
   102   51  103 1  
   103   52  104 1  
   104   52  105 1  
   105   52  106 1  
@<TRIPOS>SUBSTRUCTURE
     1 ACE         1

