### 
### Created by X-TOOL on Mon Aug  2 16:12:12 2021
### 

@<TRIPOS>MOLECULE
5ove_ligand
   48    51     1     0     0
SMALL
GAST_HUCK


@<TRIPOS>ATOM
      1 C4          0.4790  -31.0450   45.4470 C.ar      1 AXE        -0.0173
      2 C5          2.3000  -30.1850   47.3520 C.ar      1 AXE        -0.0169
      3 C10         0.9560  -29.8130   47.4690 C.ar      1 AXE         0.1323
      4 C15         1.1280  -35.1110   42.9790 C.ar      1 AXE        -0.0066
      5 C17        -2.2010  -30.2160   45.6020 C.3       1 AXE         0.0583
      6 C20        -0.2630  -35.2090   42.8330 C.ar      1 AXE        -0.0585
      7 C21         1.1240  -37.2700   44.1030 C.ar      1 AXE        -0.0242
      8 C22         3.2120  -36.0950   43.7940 C.ar      1 AXE        -0.0547
      9 C24        -0.2610  -37.3540   43.9470 C.ar      1 AXE        -0.0631
     10 C26         3.8850  -37.1400   44.4320 C.ar      1 AXE        -0.0625
     11 C18         1.2700  -27.8200   48.6760 C.3       1 AXE         0.0601
     12 O14         0.5320  -29.0400   48.5190 O.3       1 AXE        -0.3161
     13 C9          0.0330  -30.2470   46.5120 C.ar      1 AXE         0.1319
     14 O13        -1.2800  -29.8690   46.6580 O.3       1 AXE        -0.3199
     15 C1          1.8280  -31.4230   45.3250 C.ar      1 AXE         0.0362
     16 C2          2.7360  -30.9800   46.2950 C.ar      1 AXE         0.0259
     17 N6          4.0370  -31.3210   46.2030 N.ar      1 AXE        -0.3059
     18 C11         4.4740  -32.0740   45.2020 C.ar      1 AXE         0.0518
     19 N8          3.6480  -32.5150   44.2590 N.ar      1 AXE        -0.2638
     20 C3          2.3260  -32.2260   44.2780 C.ar      1 AXE         0.1339
     21 N7          1.5440  -32.6910   43.2930 N.pl3     1 AXE        -0.2811
     22 C12         1.8680  -33.8670   42.4540 C.3       1 AXE         0.0763
     23 C16         1.4740  -33.5530   41.0000 C.3       1 AXE        -0.0303
     24 C19         1.8220  -36.1510   43.6210 C.ar      1 AXE        -0.0099
     25 C27         3.1850  -38.2520   44.9060 C.ar      1 AXE        -0.0629
     26 C25         1.8010  -38.3130   44.7390 C.ar      1 AXE        -0.0569
     27 C23        -0.9500  -36.3250   43.3100 C.ar      1 AXE        -0.0706
     28 H1         -0.2333  -31.3779   44.7008 H         1 AXE         0.0549
     29 H2          3.0131  -29.8489   48.0961 H         1 AXE         0.0496
     30 H3         -3.2065  -29.8505   45.8577 H         1 AXE         0.0575
     31 H4         -2.2275  -31.3092   45.4831 H         1 AXE         0.0575
     32 H5         -1.8709  -29.7527   44.6606 H         1 AXE         0.0575
     33 H6         -0.8094  -34.4101   42.3449 H         1 AXE         0.0530
     34 H7          3.7670  -35.2374   43.4313 H         1 AXE         0.0628
     35 H8         -0.7985  -38.2180   44.3208 H         1 AXE         0.0542
     36 H9          4.9601  -37.0874   44.5603 H         1 AXE         0.0601
     37 H10         0.8722  -27.2587   49.5343 H         1 AXE         0.0579
     38 H11         1.1729  -27.2127   47.7640 H         1 AXE         0.0579
     39 H12         2.3308  -28.0530   48.8502 H         1 AXE         0.0579
     40 H13         5.5251  -32.3346   45.1523 H         1 AXE         0.1016
     41 H14         0.6592  -32.1973   43.1078 H         1 AXE         0.1929
     42 H15         2.9506  -34.0565   42.4983 H         1 AXE         0.0741
     43 H16         1.7083  -34.4177   40.3617 H         1 AXE         0.0277
     44 H17         2.0364  -32.6752   40.6491 H         1 AXE         0.0277
     45 H18         0.3957  -33.3417   40.9497 H         1 AXE         0.0277
     46 H19         3.7123  -39.0605   45.3993 H         1 AXE         0.0616
     47 H20         1.2498  -39.1722   45.1038 H         1 AXE         0.0609
     48 H21        -2.0246  -36.3917   43.1844 H         1 AXE         0.0595
@<TRIPOS>BOND
     1    1   13 ar 
     2   15    1 ar 
     3    2    3 ar 
     4   16    2 ar 
     5    3   12 1  
     6   13    3 ar 
     7    4    6 ar 
     8   22    4 1  
     9    4   24 ar 
    10   14    5 1  
    11    6   27 ar 
    12    7    9 ar 
    13   24    7 ar 
    14    7   26 ar 
    15    8   10 ar 
    16   24    8 ar 
    17   27    9 ar 
    18   10   25 ar 
    19   12   11 1  
    20   13   14 1  
    21   15   16 ar 
    22   20   15 ar 
    23   16   17 ar 
    24   18   17 ar 
    25   19   18 ar 
    26   20   19 ar 
    27   21   20 1  
    28   21   22 1  
    29   22   23 1  
    30   25   26 ar 
    31    1   28 1  
    32    2   29 1  
    33    5   30 1  
    34    5   31 1  
    35    5   32 1  
    36    6   33 1  
    37    8   34 1  
    38    9   35 1  
    39   10   36 1  
    40   11   37 1  
    41   11   38 1  
    42   11   39 1  
    43   18   40 1  
    44   21   41 1  
    45   22   42 1  
    46   23   43 1  
    47   23   44 1  
    48   23   45 1  
    49   25   46 1  
    50   26   47 1  
    51   27   48 1  
@<TRIPOS>SUBSTRUCTURE
     1 AXE         1

