### 
### Created by X-TOOL on Mon Aug  2 16:12:12 2021
### 

@<TRIPOS>MOLECULE
5ovf_ligand
   52    55     1     0     0
SMALL
GAST_HUCK


@<TRIPOS>ATOM
      1 C4         20.2670  -30.3640   45.4030 C.ar      1 AWT        -0.0201
      2 C14        21.3240  -27.3230   48.8520 C.3       1 AWT         0.0600
      3 C5         21.6210  -30.7240   45.2520 C.ar      1 AWT         0.0312
      4 C6         22.1100  -31.5430   44.2090 C.ar      1 AWT         0.1290
      5 C11        22.1220  -29.4480   47.2580 C.ar      1 AWT        -0.0209
      6 C8         24.2960  -31.3370   45.0950 C.ar      1 AWT         0.0631
      7 C10        22.5440  -30.2470   46.1970 C.ar      1 AWT         0.0160
      8 C12        20.7760  -29.0910   47.3970 C.ar      1 AWT         0.1298
      9 C3         17.5050  -29.7370   45.8240 C.3       1 AWT         0.0577
     10 O13        20.3600  -28.3080   48.4440 O.3       1 AWT        -0.3167
     11 C1         19.8380  -29.5540   46.4690 C.ar      1 AWT         0.1294
     12 O2         18.5270  -29.1770   46.6560 O.3       1 AWT        -0.3215
     13 N9         23.8480  -30.5640   46.0940 N.ar      1 AWT        -0.3115
     14 C15        25.7880  -31.6680   45.0140 C.3       1 AWT        -0.0044
     15 N7         23.4380  -31.8140   44.1700 N.ar      1 AWT        -0.2627
     16 N16        21.3080  -32.0310   43.2420 N.pl3     1 AWT        -0.2827
     17 C17        21.6650  -33.0970   42.2810 C.3       1 AWT         0.0729
     18 C29        21.1700  -32.7040   40.8680 C.3       1 AWT        -0.0311
     19 C18        21.0440  -34.3990   42.7970 C.ar      1 AWT        -0.0226
     20 C19        21.8560  -35.2970   43.4900 C.ar      1 AWT        -0.0590
     21 C28        19.6840  -34.6800   42.6250 C.ar      1 AWT        -0.0630
     22 C27        19.1480  -35.8610   43.1210 C.ar      1 AWT        -0.0733
     23 C26        19.9590  -36.7660   43.8030 C.ar      1 AWT        -0.0691
     24 C20        21.3220  -36.4930   43.9910 C.ar      1 AWT        -0.0422
     25 C21        22.1430  -37.3880   44.6900 C.2       1 AWT        -0.0006
     26 C22        21.7710  -38.2480   45.6360 C.2       1 AWT         0.0059
     27 C25        23.4620  -37.5280   44.5710 C.2       1 AWT         0.0613
     28 N24        23.8510  -38.4650   45.4310 N.pl3     1 AWT        -0.2164
     29 N23        22.8670  -38.8820   46.0460 N.2       1 AWT        -0.2157
     30 H1         19.5403  -30.7194   44.6814 H         1 AWT         0.0544
     31 H2         20.9186  -26.7388   49.6913 H         1 AWT         0.0579
     32 H3         21.5411  -26.6510   48.0086 H         1 AWT         0.0579
     33 H4         22.2500  -27.8253   49.1685 H         1 AWT         0.0579
     34 H5         22.8459  -29.0984   47.9852 H         1 AWT         0.0478
     35 H6         16.5280  -29.3237   46.1149 H         1 AWT         0.0574
     36 H7         17.4914  -30.8302   45.9454 H         1 AWT         0.0574
     37 H8         17.7103  -29.4873   44.7726 H         1 AWT         0.0574
     38 H9         26.3157  -31.1896   45.8523 H         1 AWT         0.0456
     39 H10        26.1954  -31.2942   44.0631 H         1 AWT         0.0456
     40 H11        25.9253  -32.7580   45.0685 H         1 AWT         0.0456
     41 H12        20.3640  -31.6262   43.1656 H         1 AWT         0.1928
     42 H13        22.7583  -33.2132   42.2470 H         1 AWT         0.0727
     43 H14        21.4354  -33.4966   40.1529 H         1 AWT         0.0275
     44 H15        21.6453  -31.7603   40.5623 H         1 AWT         0.0275
     45 H16        20.0776  -32.5759   40.8846 H         1 AWT         0.0275
     46 H17        22.9048  -35.0692   43.6420 H         1 AWT         0.0510
     47 H18        19.0476  -33.9743   42.1035 H         1 AWT         0.0517
     48 H19        18.0960  -36.0795   42.9773 H         1 AWT         0.0587
     49 H20        19.5346  -37.6853   44.1901 H         1 AWT         0.0518
     50 H21        20.7585  -38.4036   46.0054 H         1 AWT         0.0675
     51 H22        24.1071  -36.9740   43.8907 H         1 AWT         0.1038
     52 H23        24.8194  -38.7903   45.5623 H         1 AWT         0.2600
@<TRIPOS>BOND
     1    1    3 ar 
     2   11    1 ar 
     3   10    2 1  
     4    3    4 ar 
     5    3    7 ar 
     6    4   15 ar 
     7    4   16 1  
     8    5    7 ar 
     9    8    5 ar 
    10   13    6 ar 
    11    6   14 1  
    12   15    6 ar 
    13    7   13 ar 
    14    8   10 1  
    15   11    8 ar 
    16   12    9 1  
    17   11   12 1  
    18   16   17 1  
    19   17   18 1  
    20   17   19 1  
    21   19   20 ar 
    22   19   21 ar 
    23   20   24 ar 
    24   21   22 ar 
    25   22   23 ar 
    26   23   24 ar 
    27   24   25 1  
    28   25   26 1  
    29   25   27 2  
    30   26   29 2  
    31   27   28 1  
    32   28   29 1  
    33    1   30 1  
    34    2   31 1  
    35    2   32 1  
    36    2   33 1  
    37    5   34 1  
    38    9   35 1  
    39    9   36 1  
    40    9   37 1  
    41   14   38 1  
    42   14   39 1  
    43   14   40 1  
    44   16   41 1  
    45   17   42 1  
    46   18   43 1  
    47   18   44 1  
    48   18   45 1  
    49   20   46 1  
    50   21   47 1  
    51   22   48 1  
    52   23   49 1  
    53   26   50 1  
    54   27   51 1  
    55   28   52 1  
@<TRIPOS>SUBSTRUCTURE
     1 AWT         1

