### 
### Created by X-TOOL on Mon Aug  2 16:12:13 2021
### 

@<TRIPOS>MOLECULE
5ovg_ligand
   56    60     1     0     0
SMALL
GAST_HUCK


@<TRIPOS>ATOM
      1 C4          2.4460  -30.8640   46.4720 C.ar      1 AWZ         0.0160
      2 C14        -0.0030  -35.4440   43.0070 C.2       1 AWZ        -0.0785
      3 C6          4.2530  -32.0210   45.5340 C.ar      1 AWZ         0.0631
      4 C11         1.8080  -33.6930   42.4960 C.3       1 AWZ         0.0853
      5 C7          5.7320  -32.4230   45.6050 C.3       1 AWZ        -0.0044
      6 C9          2.1630  -32.1260   44.4290 C.ar      1 AWZ         0.1293
      7 C12         1.2630  -33.4750   41.0680 C.3       1 AWZ        -0.0291
      8 C13         1.2450  -34.9600   43.1280 C.2       1 AWZ         0.0376
      9 C3          1.6110  -31.2960   45.4310 C.ar      1 AWZ         0.0312
     10 C23        -0.3860  -39.8870   47.9680 C.3       1 AWZ         0.0265
     11 C24        -1.6650  -39.1310   47.6320 C.3       1 AWZ        -0.0099
     12 C25        -1.1490  -37.9570   46.8040 C.3       1 AWZ         0.0582
     13 N19         0.1300  -38.4080   46.2150 N.pl3     1 AWZ        -0.2445
     14 C20         0.5900  -39.4940   46.8480 C.2       1 AWZ         0.1148
     15 N21         1.7410  -39.8450   46.2700 N.2       1 AWZ        -0.3347
     16 C22         1.9970  -38.9850   45.2870 C.2       1 AWZ        -0.0273
     17 C18         0.9950  -38.1090   45.2470 C.2       1 AWZ         0.0726
     18 C16         0.8570  -37.0140   44.4000 C.2       1 AWZ         0.0398
     19 S17         2.1240  -35.9390   44.1410 S.3       1 AWZ        -0.0362
     20 C15        -0.2130  -36.5790   43.7120 C.2       1 AWZ        -0.0848
     21 N10         1.4290  -32.5600   43.3860 N.pl3     1 AWZ        -0.2805
     22 N8          3.4760  -32.4540   44.5140 N.ar      1 AWZ        -0.2626
     23 N5          3.7390  -31.2340   46.5000 N.ar      1 AWZ        -0.3115
     24 C26         1.9440  -30.0530   47.4870 C.ar      1 AWZ        -0.0209
     25 C2          0.2680  -30.8850   45.4330 C.ar      1 AWZ        -0.0201
     26 C1         -0.2470  -30.0670   46.4560 C.ar      1 AWZ         0.1294
     27 O30        -1.5580  -29.6460   46.4830 O.3       1 AWZ        -0.3215
     28 C31        -2.5360  -30.4070   45.7510 C.3       1 AWZ         0.0577
     29 C27         0.6060  -29.6440   47.4860 C.ar      1 AWZ         0.1298
     30 O28         0.1280  -28.8500   48.4960 O.3       1 AWZ        -0.3167
     31 C29         0.9070  -27.6560   48.6980 C.3       1 AWZ         0.0600
     32 H1         -0.7714  -34.9680   42.3996 H         1 AWZ         0.0294
     33 H2          2.9042  -33.7684   42.4443 H         1 AWZ         0.0758
     34 H3          5.9803  -33.0609   44.7439 H         1 AWZ         0.0456
     35 H4          5.9171  -32.9770   46.5371 H         1 AWZ         0.0456
     36 H5          6.3590  -31.5194   45.5848 H         1 AWZ         0.0456
     37 H6          1.6922  -32.5532   40.6485 H         1 AWZ         0.0279
     38 H7          0.1672  -33.3861   41.1033 H         1 AWZ         0.0279
     39 H8          1.5413  -34.3303   40.4347 H         1 AWZ         0.0279
     40 H9         -0.5631  -40.9726   47.9678 H         1 AWZ         0.0504
     41 H10         0.0027  -39.5790   48.9499 H         1 AWZ         0.0504
     42 H11        -2.1713  -38.7817   48.5440 H         1 AWZ         0.0320
     43 H12        -2.3545  -39.7572   47.0468 H         1 AWZ         0.0320
     44 H13        -0.9861  -37.0785   47.4456 H         1 AWZ         0.0610
     45 H14        -1.8673  -37.7034   46.0105 H         1 AWZ         0.0610
     46 H15         2.8682  -38.9958   44.6337 H         1 AWZ         0.0423
     47 H16        -1.1703  -37.0980   43.7216 H         1 AWZ         0.0360
     48 H17         0.5424  -32.0737   43.1899 H         1 AWZ         0.1932
     49 H18         2.5994  -29.7341   48.2893 H         1 AWZ         0.0478
     50 H19        -0.3858  -31.2046   44.6296 H         1 AWZ         0.0544
     51 H20        -3.5265  -29.9443   45.8726 H         1 AWZ         0.0574
     52 H21        -2.5626  -31.4369   46.1363 H         1 AWZ         0.0574
     53 H22        -2.2664  -30.4213   44.6847 H         1 AWZ         0.0574
     54 H23         0.4704  -27.0679   49.5187 H         1 AWZ         0.0579
     55 H24         0.9049  -27.0564   47.7758 H         1 AWZ         0.0579
     56 H25         1.9407  -27.9315   48.9539 H         1 AWZ         0.0579
@<TRIPOS>BOND
     1    9    1 ar 
     2    1   23 ar 
     3    1   24 ar 
     4    8    2 2  
     5    2   20 1  
     6    3    5 1  
     7   22    3 ar 
     8    3   23 ar 
     9    4    7 1  
    10    8    4 1  
    11    4   21 1  
    12    6    9 ar 
    13   21    6 1  
    14    6   22 ar 
    15   19    8 1  
    16    9   25 ar 
    17   10   11 1  
    18   14   10 1  
    19   12   11 1  
    20   13   12 1  
    21   13   14 1  
    22   17   13 1  
    23   15   14 2  
    24   16   15 1  
    25   17   16 2  
    26   18   17 1  
    27   18   19 1  
    28   18   20 2  
    29   24   29 ar 
    30   25   26 ar 
    31   26   27 1  
    32   26   29 ar 
    33   27   28 1  
    34   29   30 1  
    35   30   31 1  
    36    2   32 1  
    37    4   33 1  
    38    5   34 1  
    39    5   35 1  
    40    5   36 1  
    41    7   37 1  
    42    7   38 1  
    43    7   39 1  
    44   10   40 1  
    45   10   41 1  
    46   11   42 1  
    47   11   43 1  
    48   12   44 1  
    49   12   45 1  
    50   16   46 1  
    51   20   47 1  
    52   21   48 1  
    53   24   49 1  
    54   25   50 1  
    55   28   51 1  
    56   28   52 1  
    57   28   53 1  
    58   31   54 1  
    59   31   55 1  
    60   31   56 1  
@<TRIPOS>SUBSTRUCTURE
     1 AWZ         1

