### 
### Created by X-TOOL on Mon Aug  2 16:12:13 2021
### 

@<TRIPOS>MOLECULE
5ovh_ligand
   56    59     1     0     0
SMALL
GAST_HUCK


@<TRIPOS>ATOM
      1 C4         22.7870  -30.8840   46.3750 C.ar      1 AWW         0.0160
      2 C6         24.6190  -32.0420   45.4840 C.ar      1 AWW         0.0631
      3 C7         26.1050  -32.4060   45.5600 C.3       1 AWW        -0.0044
      4 C13        21.8160  -35.1490   42.7950 C.2       1 AWW         0.0421
      5 C15        21.7370  -37.2890   43.5140 C.2       1 AWW        -0.0816
      6 C20        17.9660  -39.5810   41.8710 C.ar      1 AWW        -0.0726
      7 C21        17.3300  -39.9560   43.0520 C.ar      1 AWW        -0.0725
      8 C22        17.7250  -39.3990   44.2690 C.ar      1 AWW        -0.0613
      9 C24        19.1730  -37.8980   45.7250 C.3       1 AWW         0.0778
     10 C26        22.2770  -30.0420   47.3590 C.ar      1 AWW        -0.0209
     11 C29        21.3170  -27.7980   48.7410 C.3       1 AWW         0.0600
     12 O28        20.4240  -28.8330   48.3230 O.3       1 AWW        -0.3167
     13 C27        20.9330  -29.6620   47.3490 C.ar      1 AWW         0.1298
     14 C1         20.0870  -30.1510   46.3500 C.ar      1 AWW         0.1294
     15 O30        18.7750  -29.7500   46.3800 O.3       1 AWW        -0.3215
     16 C31        17.8040  -30.4600   45.5920 C.3       1 AWW         0.0577
     17 C2         20.6050  -30.9960   45.3580 C.ar      1 AWW        -0.0201
     18 C3         21.9570  -31.3790   45.3590 C.ar      1 AWW         0.0312
     19 N5         24.0860  -31.2290   46.4140 N.ar      1 AWW        -0.3115
     20 N8         23.8520  -32.5300   44.4940 N.ar      1 AWW        -0.2626
     21 C9         22.5350  -32.2340   44.3960 C.ar      1 AWW         0.1294
     22 N10        21.8490  -32.7570   43.3710 N.pl3     1 AWW        -0.2798
     23 C11        22.4070  -33.7740   42.4640 C.3       1 AWW         0.0875
     24 C12        22.0410  -33.4340   41.0020 C.3       1 AWW        -0.0285
     25 S17        20.2070  -35.6340   42.5340 S.3       1 AWW        -0.0332
     26 C14        22.4880  -36.1740   43.3310 C.2       1 AWW        -0.0734
     27 C16        20.4490  -37.1810   43.1310 C.2       1 AWW         0.0228
     28 C18        19.4120  -38.1080   43.1560 C.ar      1 AWW        -0.0143
     29 C19        19.0070  -38.6570   41.9320 C.ar      1 AWW        -0.0652
     30 C23        18.7770  -38.4740   44.3470 C.ar      1 AWW        -0.0131
     31 O25        18.5680  -38.5810   46.8280 O.3       1 AWW        -0.3825
     32 H1         26.5590  -31.9134   46.4325 H         1 AWW         0.0456
     33 H2         26.6123  -32.0694   44.6438 H         1 AWW         0.0456
     34 H3         26.2109  -33.4965   45.6583 H         1 AWW         0.0456
     35 H4         22.1450  -38.2047   43.9394 H         1 AWW         0.0403
     36 H5         17.6564  -40.0008   40.9208 H         1 AWW         0.0550
     37 H6         16.5259  -40.6825   43.0257 H         1 AWW         0.0565
     38 H7         17.2065  -39.6880   45.1760 H         1 AWW         0.0544
     39 H8         18.8681  -36.8417   45.7608 H         1 AWW         0.0722
     40 H9         20.2657  -37.9680   45.8300 H         1 AWW         0.0722
     41 H10        22.9309  -29.6767   48.1426 H         1 AWW         0.0478
     42 H11        20.8323  -27.1866   49.5164 H         1 AWW         0.0579
     43 H12        21.5715  -27.1632   47.8795 H         1 AWW         0.0579
     44 H13        22.2343  -28.2477   49.1489 H         1 AWW         0.0579
     45 H14        16.8124  -30.0062   45.7360 H         1 AWW         0.0574
     46 H15        17.7746  -31.5132   45.9080 H         1 AWW         0.0574
     47 H16        18.0822  -30.4037   44.5293 H         1 AWW         0.0574
     48 H17        19.9498  -31.3608   44.5753 H         1 AWW         0.0544
     49 H18        20.8850  -32.4321   43.2096 H         1 AWW         0.1933
     50 H19        23.5009  -33.8026   42.5762 H         1 AWW         0.0767
     51 H20        22.4614  -34.1981   40.3316 H         1 AWW         0.0280
     52 H21        22.4545  -32.4489   40.7401 H         1 AWW         0.0280
     53 H22        20.9466  -33.4130   40.8934 H         1 AWW         0.0280
     54 H23        23.5427  -36.1185   43.5965 H         1 AWW         0.0307
     55 H24        19.5107  -38.3586   41.0197 H         1 AWW         0.0564
     56 H25        17.6226  -38.5209   46.7562 H         1 AWW         0.2127
@<TRIPOS>BOND
     1    1   10 ar 
     2   18    1 ar 
     3    1   19 ar 
     4    2    3 1  
     5    2   19 ar 
     6   20    2 ar 
     7    4   23 1  
     8   25    4 1  
     9    4   26 2  
    10    5   26 1  
    11   27    5 2  
    12    6    7 ar 
    13   29    6 ar 
    14    7    8 ar 
    15    8   30 ar 
    16   30    9 1  
    17    9   31 1  
    18   10   13 ar 
    19   12   11 1  
    20   13   12 1  
    21   14   13 ar 
    22   14   15 1  
    23   17   14 ar 
    24   15   16 1  
    25   18   17 ar 
    26   21   18 ar 
    27   21   20 ar 
    28   22   21 1  
    29   23   22 1  
    30   23   24 1  
    31   27   25 1  
    32   28   27 1  
    33   28   29 ar 
    34   28   30 ar 
    35    3   32 1  
    36    3   33 1  
    37    3   34 1  
    38    5   35 1  
    39    6   36 1  
    40    7   37 1  
    41    8   38 1  
    42    9   39 1  
    43    9   40 1  
    44   10   41 1  
    45   11   42 1  
    46   11   43 1  
    47   11   44 1  
    48   16   45 1  
    49   16   46 1  
    50   16   47 1  
    51   17   48 1  
    52   22   49 1  
    53   23   50 1  
    54   24   51 1  
    55   24   52 1  
    56   24   53 1  
    57   26   54 1  
    58   29   55 1  
    59   31   56 1  
@<TRIPOS>SUBSTRUCTURE
     1 AWW         1

