### 
### Created by X-TOOL on Mon Aug  2 16:12:13 2021
### 

@<TRIPOS>MOLECULE
5ovi_ligand
   61    64     1     0     0
SMALL
GAST_HUCK


@<TRIPOS>ATOM
      1 N3          0.8750  -31.7740   42.9110 N.pl3     1 AXH        -0.2805
      2 C4          1.7570  -31.3080   43.8150 C.ar      1 AXH         0.1292
      3 C5          1.3790  -30.4340   44.8630 C.ar      1 AXH         0.0312
      4 C6          0.0620  -29.9900   45.0690 C.ar      1 AXH        -0.0201
      5 C7         -0.2670  -29.1250   46.1240 C.ar      1 AXH         0.1294
      6 C10         0.7320  -28.6930   47.0010 C.ar      1 AXH         0.1298
      7 C13         2.0510  -29.1270   46.8050 C.ar      1 AXH        -0.0209
      8 C21         1.1640  -36.3170   43.8770 C.2       1 AXH        -0.0088
      9 C22        -0.0840  -36.0500   43.4460 C.2       1 AXH        -0.0485
     10 C24        -1.1580  -36.9080   43.6880 C.ar      1 AXH        -0.0278
     11 C26        -2.9820  -38.2330   42.7800 C.ar      1 AXH        -0.0713
     12 C28        -2.5890  -38.1760   45.1650 C.ar      1 AXH        -0.0573
     13 C12         1.4370  -27.4300   48.9130 C.3       1 AXH         0.0600
     14 O11         0.3810  -27.8510   48.0260 O.3       1 AXH        -0.3167
     15 O8         -1.5490  -28.6860   46.3370 O.3       1 AXH        -0.3215
     16 C9         -2.5510  -29.0830   45.3920 C.3       1 AXH         0.0577
     17 C14         2.3720  -29.9920   45.7500 C.ar      1 AXH         0.0160
     18 N15         3.6450  -30.3990   45.5810 N.ar      1 AXH        -0.3115
     19 C16         3.9870  -31.2270   44.5790 C.ar      1 AXH         0.0631
     20 C18         5.4460  -31.6620   44.4270 C.3       1 AXH        -0.0044
     21 N17         3.0560  -31.6700   43.7090 N.ar      1 AXH        -0.2626
     22 C2          1.1550  -32.8540   41.9460 C.3       1 AXH         0.0857
     23 C1          0.2270  -32.7100   40.7350 C.3       1 AXH        -0.0291
     24 C19         0.9500  -34.2000   42.6440 C.2       1 AXH         0.0393
     25 C23        -0.1950  -34.8810   42.7670 C.2       1 AXH        -0.0712
     26 S20         2.1700  -35.0500   43.4080 S.3       1 AXH        -0.0386
     27 C25        -1.9010  -37.3710   42.5940 C.ar      1 AXH        -0.0653
     28 C27        -3.3260  -38.6370   44.0720 C.ar      1 AXH        -0.0711
     29 C29        -1.5020  -37.3050   45.0020 C.ar      1 AXH         0.0053
     30 C30        -0.7570  -36.8720   46.2920 C.3       1 AXH        -0.0002
     31 N31        -1.6470  -36.2520   47.2910 N.4       1 AXH         0.2370
     32 C32        -0.8990  -35.8610   48.5010 C.3       1 AXH        -0.0435
     33 H1         -0.0617  -31.3461   42.8918 H         1 AXH         0.1932
     34 H2         -0.7196  -30.3240   44.3962 H         1 AXH         0.0544
     35 H3          2.8315  -28.7895   47.4773 H         1 AXH         0.0478
     36 H4          1.4703  -37.2013   44.4338 H         1 AXH         0.0630
     37 H5         -3.5510  -38.5867   41.9278 H         1 AXH         0.0553
     38 H6         -2.8636  -38.4990   46.1627 H         1 AXH         0.0550
     39 H7          1.0240  -26.7629   49.6840 H         1 AXH         0.0579
     40 H8          2.2067  -26.8939   48.3384 H         1 AXH         0.0579
     41 H9          1.8858  -28.3119   49.3933 H         1 AXH         0.0579
     42 H10        -3.5224  -28.6605   45.6884 H         1 AXH         0.0574
     43 H11        -2.6200  -30.1806   45.3700 H         1 AXH         0.0574
     44 H12        -2.2797  -28.7125   44.3924 H         1 AXH         0.0574
     45 H13         6.0505  -31.2023   45.2228 H         1 AXH         0.0456
     46 H14         5.8247  -31.3390   43.4460 H         1 AXH         0.0456
     47 H15         5.5119  -32.7574   44.5030 H         1 AXH         0.0456
     48 H16         2.1987  -32.7802   41.6066 H         1 AXH         0.0756
     49 H17         0.4357  -33.5153   40.0153 H         1 AXH         0.0278
     50 H18         0.3993  -31.7355   40.2548 H         1 AXH         0.0278
     51 H19        -0.8201  -32.7760   41.0655 H         1 AXH         0.0278
     52 H20        -1.1388  -34.5259   42.3557 H         1 AXH         0.0276
     53 H21        -1.6329  -37.0559   41.5920 H         1 AXH         0.0575
     54 H22        -4.1638  -39.3074   44.2261 H         1 AXH         0.0576
     55 H23         0.0232  -36.1461   46.0193 H         1 AXH         0.0980
     56 H24        -0.2901  -37.7605   46.7421 H         1 AXH         0.0980
     57 H25        -2.3646  -36.9120   47.5469 H         1 AXH         0.2025
     58 H26        -2.0728  -35.4319   46.8883 H         1 AXH         0.2025
     59 H27        -1.5879  -35.4027   49.2258 H         1 AXH         0.0777
     60 H28        -0.1165  -35.1368   48.2304 H         1 AXH         0.0777
     61 H29        -0.4349  -36.7520   48.9491 H         1 AXH         0.0777
@<TRIPOS>BOND
     1    1    2 1  
     2   22    1 1  
     3    2    3 ar 
     4    2   21 ar 
     5    3    4 ar 
     6    3   17 ar 
     7    4    5 ar 
     8    5    6 ar 
     9    5   15 1  
    10    7    6 ar 
    11    6   14 1  
    12   17    7 ar 
    13    9    8 2  
    14    8   26 1  
    15    9   10 1  
    16   25    9 1  
    17   10   27 ar 
    18   10   29 ar 
    19   27   11 ar 
    20   11   28 ar 
    21   12   28 ar 
    22   29   12 ar 
    23   14   13 1  
    24   15   16 1  
    25   17   18 ar 
    26   19   18 ar 
    27   19   20 1  
    28   21   19 ar 
    29   22   23 1  
    30   24   22 1  
    31   24   25 2  
    32   24   26 1  
    33   29   30 1  
    34   30   31 1  
    35   31   32 1  
    36    1   33 1  
    37    4   34 1  
    38    7   35 1  
    39    8   36 1  
    40   11   37 1  
    41   12   38 1  
    42   13   39 1  
    43   13   40 1  
    44   13   41 1  
    45   16   42 1  
    46   16   43 1  
    47   16   44 1  
    48   20   45 1  
    49   20   46 1  
    50   20   47 1  
    51   22   48 1  
    52   23   49 1  
    53   23   50 1  
    54   23   51 1  
    55   25   52 1  
    56   27   53 1  
    57   28   54 1  
    58   30   55 1  
    59   30   56 1  
    60   31   57 1  
    61   31   58 1  
    62   32   59 1  
    63   32   60 1  
    64   32   61 1  
@<TRIPOS>SUBSTRUCTURE
     1 AXH         1

