### 
### Created by X-TOOL on Wed Jan  1 15:39:37 2020
### 

@<TRIPOS>MOLECULE
5ovp_ligand
  103   102     1     0     0
SMALL
GAST_HUCK


@<TRIPOS>ATOM
      1 C         -10.2070  -12.7300   -0.9620 C.2       1 ACE         0.1751
      2 O         -10.3350  -13.5130   -0.0250 O.2       1 ACE        -0.3972
      3 CH3       -10.2090  -13.2340   -2.3760 C.3       1 ACE         0.0258
      4 N         -10.0450  -11.4260   -0.8710 N.am      1 GLN        -0.2657
      5 CA        -10.0200  -10.7610    0.4090 C.3       1 GLN         0.1329
      6 C         -11.1130   -9.6960    0.4910 C.2       1 GLN         0.2040
      7 O         -11.6220   -9.1900   -0.4930 O.2       1 GLN        -0.3944
      8 CB         -8.6570  -10.0800    0.6490 C.3       1 GLN         0.0045
      9 CG         -7.4650  -11.0000    0.6690 C.3       1 GLN         0.0412
     10 CD         -6.1740  -10.2820    0.9300 C.2       1 GLN         0.1737
     11 OE1        -5.9070   -9.2330    0.3690 O.2       1 GLN        -0.3973
     12 NE2        -5.3640  -10.8380    1.8160 N.am      1 GLN        -0.3009
     13 N         -11.4690   -9.3720    1.7270 N.am      1 LEU        -0.2637
     14 CA        -12.3360   -8.2530    2.0540 C.3       1 LEU         0.1312
     15 C         -11.5440   -7.2030    2.8170 C.2       1 LEU         0.2039
     16 O         -10.5140   -7.4920    3.4370 O.2       1 LEU        -0.3944
     17 CB        -13.4980   -8.6910    2.9490 C.3       1 LEU        -0.0101
     18 CG        -14.7370   -9.2570    2.2720 C.3       1 LEU        -0.0425
     19 CD1       -14.4110  -10.5950    1.6430 C.3       1 LEU        -0.0625
     20 CD2       -15.8700   -9.3810    3.2820 C.3       1 LEU        -0.0625
     21 N         -12.0520   -5.9750    2.7740 N.am      1 VAL        -0.2635
     22 CA        -11.4380   -4.8300    3.4520 C.3       1 VAL         0.1333
     23 C         -12.5620   -4.0270    4.0890 C.2       1 VAL         0.2042
     24 O         -13.5110   -3.6230    3.4000 O.2       1 VAL        -0.3944
     25 CB        -10.6270   -3.9290    2.4990 C.3       1 VAL        -0.0063
     26 CG1        -9.9150   -2.8140    3.3040 C.3       1 VAL        -0.0584
     27 CG2        -9.6190   -4.7610    1.6750 C.3       1 VAL        -0.0584
     28 N         -12.4830   -3.8270    5.4180 N.am      1 THR        -0.2613
     29 CA        -13.5170   -3.1340    6.1700 C.3       1 THR         0.1565
     30 C         -12.9050   -2.0510    7.0430 C.2       1 THR         0.2065
     31 O         -11.9580   -2.3140    7.7950 O.2       1 THR        -0.3943
     32 CB        -14.2870   -4.1300    7.0240 C.3       1 THR         0.0924
     33 OG1       -14.7350   -5.2090    6.1930 O.3       1 THR        -0.3874
     34 CG2       -15.4970   -3.4520    7.6870 C.3       1 THR        -0.0346
     35 N         -13.4810   -0.8510    6.9870 N.am      1 SER        -0.2615
     36 CA        -13.0810    0.2430    7.8760 C.3       1 SER         0.1539
     37 C         -13.8530    0.1330    9.1820 C.2       1 SER         0.2056
     38 O         -15.0820    0.0490    9.1660 O.2       1 SER        -0.3943
     39 CB        -13.4130    1.5780    7.2050 C.3       1 SER         0.0843
     40 OG        -13.0160    2.6880    7.9890 O.3       1 SER        -0.3903
     41 N         -13.1360    0.1130   10.3160 N.am      1 LEU        -0.2694
     42 CA        -13.7550   -0.1110   11.6260 C.3       1 LEU         0.0946
     43 C         -13.3360    0.9380   12.6230 C.2       1 LEU         0.0601
     44 O         -13.9820    1.0360   13.6900 O.co2     1 LEU        -0.5666
     45 CB        -13.3920   -1.5060   12.1490 C.3       1 LEU        -0.0156
     46 CG        -14.0130   -2.6190   11.3140 C.3       1 LEU        -0.0431
     47 CD1       -13.3710   -3.9350   11.6540 C.3       1 LEU        -0.0625
     48 CD2       -15.5310   -2.6900   11.5280 C.3       1 LEU        -0.0625
     49 OXT       -12.3550    1.6750   12.4340 O.co2     1 LEU        -0.5666
     50 H1        -10.0834  -12.3875   -3.0671 H         1 ACE         0.0467
     51 H2        -11.1640  -13.7386   -2.5841 H         1 ACE         0.0467
     52 H3         -9.3810  -13.9451   -2.5130 H         1 ACE         0.0467
     53 H4         -9.9372  -10.8862   -1.7058 H         1 GLN         0.1883
     54 H5        -10.1898  -11.5106    1.1959 H         1 GLN         0.0801
     55 H6         -8.7026   -9.5640    1.6194 H         1 GLN         0.0337
     56 H7         -8.5016   -9.3421   -0.1518 H         1 GLN         0.0337
     57 H8         -7.3947  -11.5038   -0.3063 H         1 GLN         0.0504
     58 H9         -7.6146  -11.7503    1.4594 H         1 GLN         0.0504
     59 H10        -4.4883  -10.4065    2.0328 H         1 GLN         0.1814
     60 H11        -5.6274  -11.6898    2.2689 H         1 GLN         0.1814
     61 H12       -11.1197   -9.9314    2.4787 H         1 LEU         0.1883
     62 H13       -12.7318   -7.8202    1.1234 H         1 LEU         0.0800
     63 H14       -13.8139   -7.8126    3.5309 H         1 LEU         0.0315
     64 H15       -13.1142   -9.4640    3.6311 H         1 LEU         0.0315
     65 H16       -15.0532   -8.5655    1.4771 H         1 LEU         0.0298
     66 H17       -15.3101  -10.9995    1.1551 H         1 LEU         0.0232
     67 H18       -14.0710  -11.2933    2.4220 H         1 LEU         0.0232
     68 H19       -13.6152  -10.4644    0.8949 H         1 LEU         0.0232
     69 H20       -16.0812   -8.3939    3.7191 H         1 LEU         0.0232
     70 H21       -15.5758  -10.0796    4.0791 H         1 LEU         0.0232
     71 H22       -16.7714   -9.7589    2.7774 H         1 LEU         0.0232
     72 H23       -12.8931   -5.8256    2.2542 H         1 VAL         0.1883
     73 H24       -10.7621   -5.2017    4.2362 H         1 VAL         0.0802
     74 H25       -11.3268   -3.4518    1.7972 H         1 VAL         0.0343
     75 H26        -9.3393   -2.1764    2.6170 H         1 VAL         0.0234
     76 H27        -9.2346   -3.2695    4.0385 H         1 VAL         0.0234
     77 H28       -10.6654   -2.2040    3.8282 H         1 VAL         0.0234
     78 H29       -10.1572   -5.5415    1.1172 H         1 VAL         0.0234
     79 H30        -8.8907   -5.2306    2.3525 H         1 VAL         0.0234
     80 H31        -9.0915   -4.1032    0.9685 H         1 VAL         0.0234
     81 H32       -11.6810   -4.1688    5.9078 H         1 THR         0.1884
     82 H33       -14.2136   -2.6623    5.4613 H         1 THR         0.0826
     83 H34       -13.6226   -4.5241    7.8071 H         1 THR         0.0639
     84 H35       -13.9838   -5.6371    5.7994 H         1 THR         0.2101
     85 H36       -16.0396   -4.1875    8.2990 H         1 THR         0.0257
     86 H37       -16.1671   -3.0562    6.9096 H         1 THR         0.0257
     87 H38       -15.1501   -2.6272    8.3268 H         1 THR         0.0257
     88 H39       -14.2077   -0.6922    6.3186 H         1 SER         0.1884
     89 H40       -12.0009    0.1850    8.0761 H         1 SER         0.0823
     90 H41       -14.4995    1.6311    7.0417 H         1 SER         0.0606
     91 H42       -12.8939    1.6256    6.2364 H         1 SER         0.0606
     92 H43       -12.0772    2.6549    8.1302 H         1 SER         0.2097
     93 H44       -12.1475    0.2555   10.2660 H         1 LEU         0.1875
     94 H45       -14.8469   -0.0555   11.5052 H         1 LEU         0.0726
     95 H46       -13.7506   -1.5994   13.1847 H         1 LEU         0.0308
     96 H47       -12.2979   -1.6174   12.1283 H         1 LEU         0.0308
     97 H48       -13.8242   -2.4025   10.2522 H         1 LEU         0.0297
     98 H49       -13.8251   -4.7321   11.0470 H         1 LEU         0.0232
     99 H50       -13.5254   -4.1536   12.7209 H         1 LEU         0.0232
    100 H51       -12.2928   -3.8824   11.4428 H         1 LEU         0.0232
    101 H52       -15.9828   -1.7196   11.2746 H         1 LEU         0.0232
    102 H53       -15.7421   -2.9289   12.5808 H         1 LEU         0.0232
    103 H54       -15.9562   -3.4722   10.8820 H         1 LEU         0.0232
@<TRIPOS>BOND
     1    1    2 2  
     2    1    3 1  
     3    1    4 am 
     4    4    5 1  
     5    5    6 1  
     6    5    8 1  
     7    6    7 2  
     8    6   13 am 
     9    8    9 1  
    10    9   10 1  
    11   10   11 2  
    12   10   12 am 
    13   13   14 1  
    14   14   15 1  
    15   14   17 1  
    16   15   16 2  
    17   15   21 am 
    18   17   18 1  
    19   18   19 1  
    20   18   20 1  
    21   21   22 1  
    22   22   23 1  
    23   22   25 1  
    24   23   24 2  
    25   23   28 am 
    26   25   26 1  
    27   25   27 1  
    28   28   29 1  
    29   29   30 1  
    30   29   32 1  
    31   30   31 2  
    32   30   35 am 
    33   32   33 1  
    34   32   34 1  
    35   35   36 1  
    36   36   37 1  
    37   36   39 1  
    38   37   38 2  
    39   37   41 am 
    40   39   40 1  
    41   41   42 1  
    42   42   43 1  
    43   42   45 1  
    44   43   44 ar 
    45   43   49 ar 
    46   45   46 1  
    47   46   47 1  
    48   46   48 1  
    49    3   50 1  
    50    3   51 1  
    51    3   52 1  
    52    4   53 1  
    53    5   54 1  
    54    8   55 1  
    55    8   56 1  
    56    9   57 1  
    57    9   58 1  
    58   12   59 1  
    59   12   60 1  
    60   13   61 1  
    61   14   62 1  
    62   17   63 1  
    63   17   64 1  
    64   18   65 1  
    65   19   66 1  
    66   19   67 1  
    67   19   68 1  
    68   20   69 1  
    69   20   70 1  
    70   20   71 1  
    71   21   72 1  
    72   22   73 1  
    73   25   74 1  
    74   26   75 1  
    75   26   76 1  
    76   26   77 1  
    77   27   78 1  
    78   27   79 1  
    79   27   80 1  
    80   28   81 1  
    81   29   82 1  
    82   32   83 1  
    83   33   84 1  
    84   34   85 1  
    85   34   86 1  
    86   34   87 1  
    87   35   88 1  
    88   36   89 1  
    89   39   90 1  
    90   39   91 1  
    91   40   92 1  
    92   41   93 1  
    93   42   94 1  
    94   45   95 1  
    95   45   96 1  
    96   46   97 1  
    97   47   98 1  
    98   47   99 1  
    99   47  100 1  
   100   48  101 1  
   101   48  102 1  
   102   48  103 1  
@<TRIPOS>SUBSTRUCTURE
     1 ACE         1

