### 
### Created by X-TOOL on Wed Jan  1 15:39:35 2020
### 

@<TRIPOS>MOLECULE
5ovv_ligand
  100    99     1     0     0
SMALL
GAST_HUCK


@<TRIPOS>ATOM
      1 C         -26.3520  -24.6910    0.6450 C.2       1 ACE         0.1751
      2 O         -25.6810  -24.5170    1.6640 O.2       1 ACE        -0.3972
      3 CH3       -27.7020  -25.3740    0.6830 C.3       1 ACE         0.0258
      4 N         -25.9270  -24.2680   -0.5430 N.am      1 ILE        -0.2656
      5 CA        -24.6450  -23.5990   -0.7380 C.3       1 ILE         0.1334
      6 C         -24.8530  -22.1150   -0.5870 C.2       1 ILE         0.2042
      7 O         -25.6690  -21.5370   -1.3040 O.2       1 ILE        -0.3944
      8 CB        -24.0850  -23.9160   -2.1390 C.3       1 ILE        -0.0037
      9 CG1       -23.9830  -25.4310   -2.3660 C.3       1 ILE        -0.0491
     10 CG2       -22.7310  -23.2520   -2.3440 C.3       1 ILE        -0.0582
     11 CD1       -23.0520  -26.1640   -1.4530 C.3       1 ILE        -0.0648
     12 N         -24.0990  -21.4880    0.3230 N.am      1 GLU        -0.2636
     13 CA        -24.2060  -20.0660    0.6210 C.3       1 GLU         0.1325
     14 C         -22.9450  -19.3570    0.1610 C.2       1 GLU         0.2041
     15 O         -21.9080  -19.9820   -0.0500 O.2       1 GLU        -0.3944
     16 CB        -24.3670  -19.8300    2.1280 C.3       1 GLU        -0.0008
     17 CG        -25.7000  -20.3220    2.6790 C.3       1 GLU         0.0044
     18 CD        -25.8990  -20.0530    4.1700 C.2       1 GLU         0.0350
     19 OE1       -25.0280  -19.4780    4.8390 O.co2     1 GLU        -0.5690
     20 OE2       -26.9500  -20.4390    4.6880 O.co2     1 GLU        -0.5690
     21 N         -23.0320  -18.0370    0.0180 N.am      1 SER        -0.2616
     22 CA        -21.8560  -17.2520   -0.3290 C.3       1 SER         0.1539
     23 C         -21.8760  -15.9410    0.4420 C.2       1 SER         0.2063
     24 O         -22.9400  -15.3610    0.6660 O.2       1 SER        -0.3943
     25 CB        -21.7210  -17.0280   -1.8390 C.3       1 SER         0.0843
     26 OG        -22.5440  -16.0000   -2.2900 O.3       1 SER        -0.3903
     27 N         -20.6950  -15.5110    0.8880 N.am      1 THR        -0.2613
     28 CA        -20.5870  -14.3450    1.7440 C.3       1 THR         0.1565
     29 C         -19.3570  -13.5300    1.3610 C.2       1 THR         0.2065
     30 O         -18.2740  -14.0910    1.2190 O.2       1 THR        -0.3943
     31 CB        -20.4360  -14.7880    3.2050 C.3       1 THR         0.0924
     32 OG1       -21.5330  -15.6240    3.6040 O.3       1 THR        -0.3874
     33 CG2       -20.3860  -13.5730    4.1130 C.3       1 THR        -0.0346
     34 N         -19.5100  -12.2130    1.2100 N.am      1 GLU        -0.2635
     35 CA        -18.3700  -11.3410    0.9550 C.3       1 GLU         0.1324
     36 C         -17.6220  -11.0680    2.2520 C.2       1 GLU         0.2035
     37 O         -18.2270  -10.7090    3.2660 O.2       1 GLU        -0.3944
     38 CB        -18.8340  -10.0210    0.3450 C.3       1 GLU        -0.0008
     39 CG        -17.6750   -9.1310   -0.1410 C.3       1 GLU         0.0044
     40 CD        -18.1380   -7.8020   -0.7090 C.2       1 GLU         0.0350
     41 OE1       -19.2940   -7.7290   -1.2090 O.co2     1 GLU        -0.5690
     42 OE2       -17.3530   -6.8220   -0.6490 O.co2     1 GLU        -0.5690
     43 N         -16.3140  -11.2430    2.2000 N.am      1 ILE        -0.2692
     44 CA        -15.4090  -11.1450    3.3380 C.3       1 ILE         0.0969
     45 C         -14.3730  -10.0470    3.0910 C.2       1 ILE         0.0604
     46 O         -13.8630   -9.4200    4.0400 O.co2     1 ILE        -0.5666
     47 CB        -14.6570  -12.4950    3.5160 C.3       1 ILE        -0.0092
     48 CG1       -15.6290  -13.6770    3.6420 C.3       1 ILE        -0.0497
     49 CG2       -13.6790  -12.4130    4.6740 C.3       1 ILE        -0.0588
     50 CD1       -16.3680  -13.7560    4.9150 C.3       1 ILE        -0.0649
     51 OXT       -13.9820   -9.8140    1.9190 O.co2     1 ILE        -0.5666
     52 H1        -28.1181  -25.4205   -0.3342 H         1 ACE         0.0467
     53 H2        -28.3831  -24.8041    1.3321 H         1 ACE         0.0467
     54 H3        -27.5860  -26.3938    1.0786 H         1 ACE         0.0467
     55 H4        -26.5136  -24.4155   -1.3393 H         1 ILE         0.1883
     56 H5        -23.9309  -23.9480    0.0224 H         1 ILE         0.0803
     57 H6        -24.7827  -23.5063   -2.8842 H         1 ILE         0.0345
     58 H7        -23.6421  -25.5955   -3.3988 H         1 ILE         0.0267
     59 H8        -24.9879  -25.8599   -2.2388 H         1 ILE         0.0267
     60 H9        -22.8248  -22.1688   -2.1771 H         1 ILE         0.0235
     61 H10       -22.3842  -23.4360   -3.3715 H         1 ILE         0.0235
     62 H11       -22.0054  -23.6712   -1.6315 H         1 ILE         0.0235
     63 H12       -23.0588  -27.2347   -1.7050 H         1 ILE         0.0230
     64 H13       -23.3792  -26.0304   -0.4113 H         1 ILE         0.0230
     65 H14       -22.0334  -25.7660   -1.5713 H         1 ILE         0.0230
     66 H15       -23.4236  -22.0260    0.8273 H         1 GLU         0.1883
     67 H16       -25.0772  -19.6519    0.0923 H         1 GLU         0.0801
     68 H17       -24.2867  -18.7503    2.3223 H         1 GLU         0.0330
     69 H18       -23.5569  -20.3582    2.6521 H         1 GLU         0.0330
     70 H19       -25.7624  -21.4076    2.5130 H         1 GLU         0.0433
     71 H20       -26.5080  -19.8196    2.1270 H         1 GLU         0.0433
     72 H21       -23.9120  -17.5806    0.1499 H         1 SER         0.1884
     73 H22       -20.9702  -17.8181   -0.0051 H         1 SER         0.0823
     74 H23       -21.9943  -17.9566   -2.3615 H         1 SER         0.0606
     75 H24       -20.6759  -16.7724   -2.0679 H         1 SER         0.0606
     76 H25       -23.4499  -16.2153   -2.1016 H         1 SER         0.2097
     77 H26       -19.8650  -16.0036    0.6263 H         1 THR         0.1884
     78 H27       -21.4901  -13.7265    1.6348 H         1 THR         0.0826
     79 H28       -19.4988  -15.3545    3.3080 H         1 THR         0.0639
     80 H29       -22.3465  -15.1417    3.5134 H         1 THR         0.2101
     81 H30       -20.2777  -13.9002    5.1576 H         1 THR         0.0257
     82 H31       -21.3158  -12.9954    4.0042 H         1 THR         0.0257
     83 H32       -19.5282  -12.9428    3.8354 H         1 THR         0.0257
     84 H33       -20.4257  -11.8160    1.2731 H         1 GLU         0.1883
     85 H34       -17.6913  -11.8413    0.2485 H         1 GLU         0.0801
     86 H35       -19.4040   -9.4668    1.1052 H         1 GLU         0.0330
     87 H36       -19.4861  -10.2433   -0.5125 H         1 GLU         0.0330
     88 H37       -17.1233   -9.6723   -0.9237 H         1 GLU         0.0433
     89 H38       -17.0059   -8.9334    0.7094 H         1 GLU         0.0433
     90 H39       -15.9132  -11.4598    1.3099 H         1 ILE         0.1875
     91 H40       -15.9846  -10.9150    4.2467 H         1 ILE         0.0729
     92 H41       -14.0657  -12.6632    2.6039 H         1 ILE         0.0338
     93 H42       -15.0505  -14.6056    3.5275 H         1 ILE         0.0267
     94 H43       -16.3641  -13.6000    2.8273 H         1 ILE         0.0267
     95 H44       -13.0112  -11.5510    4.5295 H         1 ILE         0.0234
     96 H45       -13.0823  -13.3361    4.7161 H         1 ILE         0.0234
     97 H46       -14.2348  -12.2924    5.6156 H         1 ILE         0.0234
     98 H47       -17.0315  -14.6332    4.8999 H         1 ILE         0.0230
     99 H48       -16.9688  -12.8441    5.0474 H         1 ILE         0.0230
    100 H49       -15.6552  -13.8497    5.7476 H         1 ILE         0.0230
@<TRIPOS>BOND
     1    1    2 2  
     2    1    3 1  
     3    1    4 am 
     4    4    5 1  
     5    5    6 1  
     6    5    8 1  
     7    6    7 2  
     8    6   12 am 
     9    8    9 1  
    10    8   10 1  
    11    9   11 1  
    12   12   13 1  
    13   13   14 1  
    14   13   16 1  
    15   14   15 2  
    16   14   21 am 
    17   16   17 1  
    18   17   18 1  
    19   18   19 ar 
    20   18   20 ar 
    21   21   22 1  
    22   22   23 1  
    23   22   25 1  
    24   23   24 2  
    25   23   27 am 
    26   25   26 1  
    27   27   28 1  
    28   28   29 1  
    29   28   31 1  
    30   29   30 2  
    31   29   34 am 
    32   31   32 1  
    33   31   33 1  
    34   34   35 1  
    35   35   36 1  
    36   35   38 1  
    37   36   37 2  
    38   36   43 am 
    39   38   39 1  
    40   39   40 1  
    41   40   41 ar 
    42   40   42 ar 
    43   43   44 1  
    44   44   45 1  
    45   44   47 1  
    46   45   46 ar 
    47   45   51 ar 
    48   47   48 1  
    49   47   49 1  
    50   48   50 1  
    51    3   52 1  
    52    3   53 1  
    53    3   54 1  
    54    4   55 1  
    55    5   56 1  
    56    8   57 1  
    57    9   58 1  
    58    9   59 1  
    59   10   60 1  
    60   10   61 1  
    61   10   62 1  
    62   11   63 1  
    63   11   64 1  
    64   11   65 1  
    65   12   66 1  
    66   13   67 1  
    67   16   68 1  
    68   16   69 1  
    69   17   70 1  
    70   17   71 1  
    71   21   72 1  
    72   22   73 1  
    73   25   74 1  
    74   25   75 1  
    75   26   76 1  
    76   27   77 1  
    77   28   78 1  
    78   31   79 1  
    79   32   80 1  
    80   33   81 1  
    81   33   82 1  
    82   33   83 1  
    83   34   84 1  
    84   35   85 1  
    85   38   86 1  
    86   38   87 1  
    87   39   88 1  
    88   39   89 1  
    89   43   90 1  
    90   44   91 1  
    91   47   92 1  
    92   48   93 1  
    93   48   94 1  
    94   49   95 1  
    95   49   96 1  
    96   49   97 1  
    97   50   98 1  
    98   50   99 1  
    99   50  100 1  
@<TRIPOS>SUBSTRUCTURE
     1 ACE         1

