### 
### Created by X-TOOL on Wed Jan  1 15:39:38 2020
### 

@<TRIPOS>MOLECULE
5ow8_ligand
   33    35     1     0     0
SMALL
GAST_HUCK


@<TRIPOS>ATOM
      1 C1          2.4550   -3.5310   -0.3520 C.ar      1 AYN        -0.0756
      2 C2          2.4930   -2.6860    0.7280 C.ar      1 AYN        -0.0702
      3 C3          1.2960   -2.1590    1.2460 C.ar      1 AYN        -0.0136
      4 C8         -0.3450   -1.1050    2.3610 C.2       1 AYN         0.1494
      5 C9          1.0020   -1.2810    2.3160 C.2       1 AYN        -0.0356
      6 C10        -1.0140   -0.2520    3.3630 C.2       1 AYN         0.2261
      7 C13        -2.3000   -1.9660    1.0210 C.ar      1 AYN         0.1197
      8 C14        -2.9630   -0.8060    0.6210 C.ar      1 AYN        -0.0001
      9 C15        -4.3020   -0.8480    0.2580 C.ar      1 AYN         0.0419
     10 C16        -4.9960   -2.0580    0.2810 C.ar      1 AYN        -0.0389
     11 C19        -4.9920    0.4280   -0.1470 C.3       1 AYN         0.3747
     12 C4          0.0600   -2.5170    0.6560 C.ar      1 AYN         0.0870
     13 C5          0.0500   -3.3900   -0.4460 C.ar      1 AYN        -0.0368
     14 C6          1.2410   -3.8940   -0.9410 C.ar      1 AYN        -0.0730
     15 N7         -0.9370   -1.8700    1.3570 N.pl3     1 AYN        -0.2029
     16 O11        -2.0570   -0.6170    3.8740 O.2       1 AYN        -0.3851
     17 N12        -0.4650    0.9170    3.7510 N.am      1 AYN        -0.2990
     18 C17        -4.3390   -3.2250    0.6590 C.ar      1 AYN        -0.0365
     19 C18        -2.9960   -3.1830    1.0220 C.ar      1 AYN        -0.0006
     20 F20        -5.9140    0.1920   -1.1710 F         1 AYN        -0.2204
     21 F21        -5.6570    0.9090    0.9770 F         1 AYN        -0.2204
     22 F22        -4.0680    1.3860   -0.5860 F         1 AYN        -0.2204
     23 H1          3.3817   -3.9234   -0.7550 H         1 AYN         0.0527
     24 H2          3.4427   -2.4251    1.1809 H         1 AYN         0.0560
     25 H3          1.7288   -0.8254    2.9869 H         1 AYN         0.0412
     26 H4         -2.4280    0.1364    0.5934 H         1 AYN         0.0792
     27 H5         -6.0439   -2.0890    0.0052 H         1 AYN         0.0791
     28 H6         -0.8901   -3.6686   -0.9082 H         1 AYN         0.0560
     29 H7          1.2315   -4.5715   -1.7871 H         1 AYN         0.0552
     30 H8         -0.9282    1.4858    4.4306 H         1 AYN         0.1805
     31 H9          0.4054    1.2151    3.3591 H         1 AYN         0.1805
     32 H10        -4.8738   -4.1678    0.6708 H         1 AYN         0.0680
     33 H11        -2.4856   -4.0959    1.3069 H         1 AYN         0.0820
@<TRIPOS>BOND
     1    2    1 ar 
     2    1   14 ar 
     3    3    2 ar 
     4    5    3 1  
     5    3   12 ar 
     6    4    5 2  
     7    4    6 1  
     8   15    4 1  
     9    6   16 2  
    10    6   17 am 
    11    7    8 ar 
    12    7   15 1  
    13    7   19 ar 
    14    8    9 ar 
    15    9   10 ar 
    16    9   11 1  
    17   10   18 ar 
    18   11   20 1  
    19   11   21 1  
    20   11   22 1  
    21   12   13 ar 
    22   12   15 1  
    23   13   14 ar 
    24   18   19 ar 
    25    1   23 1  
    26    2   24 1  
    27    5   25 1  
    28    8   26 1  
    29   10   27 1  
    30   13   28 1  
    31   14   29 1  
    32   17   30 1  
    33   17   31 1  
    34   18   32 1  
    35   19   33 1  
@<TRIPOS>SUBSTRUCTURE
     1 AYN         1

