### 
### Created by X-TOOL on Wed Jan  1 15:39:38 2020
### 

@<TRIPOS>MOLECULE
5owa_ligand
   49    51     1     0     0
SMALL
GAST_HUCK


@<TRIPOS>ATOM
      1 CAA         2.5890    7.1330   47.3820 C.3       1 B0H         0.0273
      2 CAB         7.1960    6.6700   49.2600 C.3       1 B0H        -0.0289
      3 CAC         2.6110   15.5180   54.2410 C.3       1 B0H        -0.0576
      4 CAD         2.0430   18.8870   50.6100 C.3       1 B0H        -0.0576
      5 CAF         7.0570   13.7220   51.3280 C.2       1 B0H        -0.0107
      6 CAG         2.2660   17.1700   52.4090 C.3       1 B0H        -0.0382
      7 CAH         5.5880   15.5470   50.3430 C.3       1 B0H        -0.0039
      8 CAI         4.0950   15.4950   52.2170 C.3       1 B0H        -0.0281
      9 CAJ         3.8030   17.1360   50.4440 C.3       1 B0H        -0.0281
     10 CAP         6.0050    9.5300   49.9030 C.2       1 B0H         0.2553
     11 CAQ         3.9070    7.4660   48.0970 C.2       1 B0H         0.1776
     12 CAR         6.0230   14.0690   50.5410 C.2       1 B0H         0.0137
     13 CAS         5.8560    7.2900   48.9240 C.2       1 B0H         0.0248
     14 CAT         5.9080   11.8540   50.2080 C.2       1 B0H         0.2018
     15 CAU         5.4040    8.5180   49.2430 C.2       1 B0H         0.2012
     16 CAV         2.6690   15.7360   52.7340 C.3       1 B0H        -0.0031
     17 CAW         2.3780   17.4240   50.9030 C.3       1 B0H        -0.0031
     18 NAK         4.9330    6.6340   48.2270 N.2       1 B0H        -0.2993
     19 NAL         5.3900   13.0560   49.9190 N.2       1 B0H        -0.3119
     20 NAM         5.4300   10.7360   49.6690 N.am      1 B0H        -0.1967
     21 NAX         4.1990   15.7550   50.7650 N.4       1 B0H         0.2455
     22 OAE         6.9710    9.3610   50.6420 O.2       1 B0H        -0.3830
     23 OAN         4.1590    8.6370   48.7200 O.3       1 B0H        -0.2246
     24 SAO         7.2270   12.0610   51.2670 S.3       1 B0H        -0.0030
     25 H1          2.6464    6.1183   46.9612 H         1 B0H         0.0499
     26 H2          2.4184    7.8569   46.5716 H         1 B0H         0.0499
     27 H3          1.7583    7.1852   48.1012 H         1 B0H         0.0499
     28 H4          7.2421    5.6510   48.8482 H         1 B0H         0.0378
     29 H5          7.3178    6.6298   50.3525 H         1 B0H         0.0378
     30 H6          8.0015    7.2787   48.8233 H         1 B0H         0.0378
     31 H7          1.5854   15.6937   54.5977 H         1 B0H         0.0234
     32 H8          3.2975   16.2182   54.7395 H         1 B0H         0.0234
     33 H9          2.9082   14.4848   54.4738 H         1 B0H         0.0234
     34 H10         1.0154   19.1009   50.9392 H         1 B0H         0.0234
     35 H11         2.1280   19.0733   49.5292 H         1 B0H         0.0234
     36 H12         2.7445   19.5392   51.1508 H         1 B0H         0.0234
     37 H13         7.6769   14.4061   51.9057 H         1 B0H         0.0414
     38 H14         2.9303   17.8641   52.9446 H         1 B0H         0.0274
     39 H15         1.2268   17.3365   52.7289 H         1 B0H         0.0274
     40 H16         5.6821   15.8087   49.2787 H         1 B0H         0.0949
     41 H17         6.2449   16.1968   50.9398 H         1 B0H         0.0949
     42 H18         4.3738   14.4492   52.4132 H         1 B0H         0.0817
     43 H19         4.7859   16.1649   52.7499 H         1 B0H         0.0817
     44 H20         4.4895   17.8320   50.9481 H         1 B0H         0.0817
     45 H21         3.8656   17.2830   49.3557 H         1 B0H         0.0817
     46 H22         1.9776   15.0380   52.2394 H         1 B0H         0.0350
     47 H23         1.6769   16.7689   50.3652 H         1 B0H         0.0350
     48 H24         4.6262   10.7858   49.0761 H         1 B0H         0.2397
     49 H25         3.5967   15.1154   50.2708 H         1 B0H         0.2046
@<TRIPOS>BOND
     1   11    1 1  
     2   13    2 1  
     3   16    3 1  
     4   17    4 1  
     5   12    5 2  
     6    5   24 1  
     7   16    6 1  
     8   17    6 1  
     9   12    7 1  
    10    7   21 1  
    11    8   16 1  
    12   21    8 1  
    13    9   17 1  
    14   21    9 1  
    15   10   15 1  
    16   20   10 am 
    17   10   22 2  
    18   18   11 2  
    19   11   23 1  
    20   19   12 1  
    21   15   13 2  
    22   13   18 1  
    23   14   19 2  
    24   14   20 1  
    25   14   24 1  
    26   15   23 1  
    27    1   25 1  
    28    1   26 1  
    29    1   27 1  
    30    2   28 1  
    31    2   29 1  
    32    2   30 1  
    33    3   31 1  
    34    3   32 1  
    35    3   33 1  
    36    4   34 1  
    37    4   35 1  
    38    4   36 1  
    39    5   37 1  
    40    6   38 1  
    41    6   39 1  
    42    7   40 1  
    43    7   41 1  
    44    8   42 1  
    45    8   43 1  
    46    9   44 1  
    47    9   45 1  
    48   16   46 1  
    49   17   47 1  
    50   20   48 1  
    51   21   49 1  
@<TRIPOS>SUBSTRUCTURE
     1 B0H         1

