### 
### Created by X-TOOL on Wed Jan  1 15:39:36 2020
### 

@<TRIPOS>MOLECULE
5owc_ligand
   42    44     1     0     0
SMALL
GAST_HUCK


@<TRIPOS>ATOM
      1 C1          2.4150   -3.1900    0.3210 C.ar      1 AYZ        -0.0742
      2 C2          2.2780   -3.9760   -0.7820 C.ar      1 AYZ        -0.0428
      3 C3          1.0220   -4.1660   -1.3560 C.ar      1 AYZ         0.0909
      4 C8         -0.1490   -1.3300    2.0560 C.2       1 AYZ         0.1436
      5 C9          1.1640   -1.6750    1.9870 C.2       1 AYZ        -0.0415
      6 C10        -0.7370   -0.4460    3.0780 C.2       1 AYZ         0.2221
      7 C13        -2.2310   -1.8210    0.7830 C.ar      1 AYZ         0.0822
      8 C15        -0.1720   -5.6630   -2.8070 C.3       1 AYZ         0.5458
      9 C19        -3.1400   -2.8650    0.5850 C.ar      1 AYZ        -0.0372
     10 C20        -4.4700   -2.5670    0.2920 C.ar      1 AYZ        -0.0743
     11 C21        -4.9010   -1.2470    0.1840 C.ar      1 AYZ        -0.0687
     12 C22        -3.9980   -0.2010    0.3770 C.ar      1 AYZ        -0.0475
     13 C24        -4.4270    1.2430    0.2680 C.3       1 AYZ        -0.0095
     14 O28        -6.3300    1.6610    2.4370 O.co2     1 AYZ        -0.5688
     15 C4         -0.1110   -3.5390   -0.8280 C.ar      1 AYZ        -0.0091
     16 C5          1.3030   -2.5480    0.8800 C.ar      1 AYZ        -0.0214
     17 C6          0.0240   -2.7230    0.3060 C.ar      1 AYZ         0.0777
     18 N7         -0.8620   -1.9910    1.0550 N.pl3     1 AYZ        -0.2155
     19 N11        -0.1400    0.7290    3.3570 N.am      1 AYZ        -0.2998
     20 O12        -1.7700   -0.7880    3.6750 O.2       1 AYZ        -0.3876
     21 O14         0.9890   -4.9490   -2.4690 O.3       1 AYZ        -0.2302
     22 F16        -0.5240   -6.3630   -1.6570 F         1 AYZ        -0.1400
     23 F17        -1.1590   -4.7650   -3.2290 F         1 AYZ        -0.1400
     24 F18         0.1390   -6.5710   -3.8200 F         1 AYZ        -0.1400
     25 C23        -2.6740   -0.5000    0.6500 C.ar      1 AYZ        -0.0293
     26 C25        -4.1580    2.0500    1.5540 C.3       1 AYZ         0.0097
     27 C26        -5.1410    1.6850    2.6490 C.2       1 AYZ         0.0367
     28 O27        -4.7200    1.3840    3.8810 O.co2     1 AYZ        -0.5688
     29 H1          3.3929   -3.0600    0.7703 H         1 AYZ         0.0550
     30 H2          3.1483   -4.4556   -1.2153 H         1 AYZ         0.0483
     31 H3          1.9575   -1.3436    2.6551 H         1 AYZ         0.0402
     32 H4         -2.8136   -3.8961    0.6586 H         1 AYZ         0.0513
     33 H5         -5.1788   -3.3741    0.1462 H         1 AYZ         0.0578
     34 H6         -5.9375   -1.0324   -0.0499 H         1 AYZ         0.0486
     35 H7         -5.5057    1.2731    0.0545 H         1 AYZ         0.0442
     36 H8         -3.8759    1.7108   -0.5611 H         1 AYZ         0.0442
     37 H9         -1.0817   -3.6815   -1.2889 H         1 AYZ         0.0463
     38 H10        -0.5306    1.3365    4.0487 H         1 AYZ         0.1803
     39 H11         0.6937    0.9937    2.8724 H         1 AYZ         0.1803
     40 H12        -1.9623    0.3097    0.7636 H         1 AYZ         0.0505
     41 H13        -4.2529    3.1228    1.3303 H         1 AYZ         0.0453
     42 H14        -3.1370    1.8373    1.9036 H         1 AYZ         0.0453
@<TRIPOS>BOND
     1    1    2 ar 
     2   16    1 ar 
     3    3    2 ar 
     4   15    3 ar 
     5    3   21 1  
     6    4    5 2  
     7    4    6 1  
     8   18    4 1  
     9   16    5 1  
    10    6   19 am 
    11    6   20 2  
    12    7    9 ar 
    13    7   18 1  
    14   25    7 ar 
    15   21    8 1  
    16    8   22 1  
    17    8   23 1  
    18    8   24 1  
    19   10    9 ar 
    20   11   10 ar 
    21   12   11 ar 
    22   13   12 1  
    23   12   25 ar 
    24   26   13 1  
    25   27   14 ar 
    26   17   15 ar 
    27   17   16 ar 
    28   18   17 1  
    29   26   27 1  
    30   27   28 ar 
    31    1   29 1  
    32    2   30 1  
    33    5   31 1  
    34    9   32 1  
    35   10   33 1  
    36   11   34 1  
    37   13   35 1  
    38   13   36 1  
    39   15   37 1  
    40   19   38 1  
    41   19   39 1  
    42   25   40 1  
    43   26   41 1  
    44   26   42 1  
@<TRIPOS>SUBSTRUCTURE
     1 AYZ         1

