### 
### Created by X-TOOL on Wed Jan  1 15:39:36 2020
### 

@<TRIPOS>MOLECULE
5owf_ligand
   20    19     1     0     0
SMALL
GAST_HUCK


@<TRIPOS>ATOM
      1 N          18.3020   57.2030   45.4230 N.4       1 GLN         0.2328
      2 CA         18.4850   56.5740   46.6900 C.3       1 GLN         0.0304
      3 C          17.8060   57.2880   47.8190 C.2       1 GLN         0.0846
      4 O          17.4770   58.3630   47.6610 O.co2     1 GLN        -0.5643
      5 CB         19.9690   56.3900   47.0460 C.3       1 GLN         0.0192
      6 CG         20.7760   57.6520   47.2040 C.3       1 GLN         0.0437
      7 CD         22.2760   57.3940   47.4690 C.2       1 GLN         0.1738
      8 OE1        22.6570   56.2880   47.7120 O.2       1 GLN        -0.3973
      9 NE2        23.0690   58.3940   47.4500 N.am      1 GLN        -0.3009
     10 OXT        17.5610   56.7830   48.8330 O.co2     1 GLN        -0.5643
     11 H1         18.7824   56.6734   44.7125 H         1 GLN         0.2010
     12 H2         18.6760   58.1385   45.4551 H         1 GLN         0.2010
     13 H3         17.3184   57.2416   45.2059 H         1 GLN         0.2010
     14 H4         18.0337   55.5737   46.6140 H         1 GLN         0.1026
     15 H5         20.4339   55.7920   46.2484 H         1 GLN         0.0363
     16 H6         20.0204   55.8376   47.9959 H         1 GLN         0.0363
     17 H7         20.3663   58.2240   48.0495 H         1 GLN         0.0505
     18 H8         20.6820   58.2434   46.2813 H         1 GLN         0.0505
     19 H9         24.0458   58.2608   47.6177 H         1 GLN         0.1814
     20 H10        22.7135   59.3107   47.2674 H         1 GLN         0.1814
@<TRIPOS>BOND
     1    1    2 1  
     2    2    3 1  
     3    2    5 1  
     4    3    4 ar 
     5    3   10 ar 
     6    5    6 1  
     7    6    7 1  
     8    7    8 2  
     9    7    9 am 
    10    1   11 1  
    11    1   12 1  
    12    1   13 1  
    13    2   14 1  
    14    5   15 1  
    15    5   16 1  
    16    6   17 1  
    17    6   18 1  
    18    9   19 1  
    19    9   20 1  
@<TRIPOS>SUBSTRUCTURE
     1 GLN         1

