### 
### Created by X-TOOL on Wed Jan  1 15:39:38 2020
### 

@<TRIPOS>MOLECULE
5owh_ligand
   27    28     1     0     0
SMALL
GAST_HUCK


@<TRIPOS>ATOM
      1 C2         19.4210   -2.3410   18.8170 C.ar      1 B0K         0.0504
      2 C3         18.8380   -3.0950   19.8050 C.ar      1 B0K         0.1029
      3 C4         17.9120   -4.1170   19.4520 C.ar      1 B0K         0.0500
      4 C5         17.6010   -4.3460   18.1140 C.ar      1 B0K         0.0225
      5 C6         18.1970   -3.5750   17.1160 C.ar      1 B0K         0.0205
      6 N9         20.2540   -1.4450   19.4110 N.2       1 B0K        -0.3007
      7 C14        19.0400   -3.1000   22.3180 C.3       1 B0K         0.0637
      8 C16        20.1640   -1.5810   24.0100 C.3       1 B0K        -0.0329
      9 C1         19.1010   -2.5760   17.4570 C.ar      1 B0K         0.0282
     10 C15        18.8770   -1.8990   23.2510 C.3       1 B0K         0.0146
     11 C8         20.1880   -1.6420   20.7140 C.2       1 B0K         0.1093
     12 N17        19.9350   -0.5710   25.0260 N.4       1 B0K         0.2186
     13 N7         19.3450   -2.6270   20.9810 N.pl3     1 B0K        -0.2313
     14 BR1        17.0680   -5.2080   20.8150 Br        1 B0K        -0.0504
     15 BR2        16.3400   -5.7400   17.6320 Br        1 B0K        -0.0512
     16 BR3        17.7650   -3.8950   15.2530 Br        1 B0K        -0.0535
     17 BR4        19.9350   -1.4960   16.0790 Br        1 B0K        -0.0498
     18 H1         18.1058   -3.6805   22.2987 H         1 B0K         0.0611
     19 H2         19.8605   -3.7376   22.6788 H         1 B0K         0.0611
     20 H3         20.9181   -1.2114   23.2996 H         1 B0K         0.0814
     21 H4         20.5328   -2.4983   24.4921 H         1 B0K         0.0814
     22 H5         18.0820   -2.1204   23.9783 H         1 B0K         0.0343
     23 H6         18.5923   -1.0211   22.6525 H         1 B0K         0.0343
     24 H7         20.7451   -1.0773   21.4601 H         1 B0K         0.1373
     25 H8         20.7980   -0.3803   25.5107 H         1 B0K         0.1994
     26 H9         19.2475   -0.9051   25.6830 H         1 B0K         0.1994
     27 H10        19.6005    0.2742   24.5903 H         1 B0K         0.1994
@<TRIPOS>BOND
     1    2    1 ar 
     2    1    6 1  
     3    1    9 ar 
     4    2    3 ar 
     5   13    2 1  
     6    3    4 ar 
     7    3   14 1  
     8    4    5 ar 
     9    4   15 1  
    10    9    5 ar 
    11    5   16 1  
    12    6   11 2  
    13    7   10 1  
    14    7   13 1  
    15   10    8 1  
    16    8   12 1  
    17    9   17 1  
    18   11   13 1  
    19    7   18 1  
    20    7   19 1  
    21    8   20 1  
    22    8   21 1  
    23   10   22 1  
    24   10   23 1  
    25   11   24 1  
    26   12   25 1  
    27   12   26 1  
    28   12   27 1  
@<TRIPOS>SUBSTRUCTURE
     1 B0K         1

