### 
### Created by X-TOOL on Wed Jan  1 15:39:37 2020
### 

@<TRIPOS>MOLECULE
5owl_ligand
   27    28     1     0     0
SMALL
GAST_HUCK


@<TRIPOS>ATOM
      1 C2         -5.2050  -46.1440    4.8890 C.ar      1 B0K         0.0504
      2 C3         -5.0960  -46.2670    6.2550 C.ar      1 B0K         0.1029
      3 C4         -5.7760  -45.3340    7.0940 C.ar      1 B0K         0.0500
      4 C5         -6.5380  -44.3110    6.5380 C.ar      1 B0K         0.0225
      5 C6         -6.6440  -44.1910    5.1490 C.ar      1 B0K         0.0205
      6 N9         -4.4730  -47.1430    4.3240 N.2       1 B0K        -0.3007
      7 C14        -3.8740  -47.9100    7.7510 C.3       1 B0K         0.0637
      8 C16        -2.8250  -47.4340    9.9950 C.3       1 B0K        -0.0329
      9 C1         -5.9840  -45.0980    4.3200 C.ar      1 B0K         0.0282
     10 C15        -2.9110  -47.0150    8.5280 C.3       1 B0K         0.0146
     11 C8         -3.9370  -47.8540    5.2990 C.2       1 B0K         0.1093
     12 N17        -3.3300  -46.3880   10.8670 N.4       1 B0K         0.2186
     13 N7         -4.2870  -47.3520    6.4720 N.pl3     1 B0K        -0.2313
     14 BR1        -5.6760  -45.4390    9.0300 Br        1 B0K        -0.0504
     15 BR2        -7.4510  -43.0540    7.7110 Br        1 B0K        -0.0512
     16 BR3        -7.7140  -42.7580    4.3890 Br        1 B0K        -0.0535
     17 BR4        -6.1190  -44.9500    2.3860 Br        1 B0K        -0.0498
     18 H1         -4.7717  -48.0708    8.3660 H         1 B0K         0.0611
     19 H2         -3.3789  -48.8746    7.5656 H         1 B0K         0.0611
     20 H3         -1.7745  -47.6381   10.2496 H         1 B0K         0.0814
     21 H4         -3.4222  -48.3456   10.1441 H         1 B0K         0.0814
     22 H5         -3.2647  -45.9749    8.4726 H         1 B0K         0.0343
     23 H6         -1.9109  -47.0869    8.0756 H         1 B0K         0.0343
     24 H7         -3.3000  -48.7260    5.1582 H         1 B0K         0.1373
     25 H8         -3.2623  -46.6888   11.8267 H         1 B0K         0.1994
     26 H9         -4.2940  -46.1988   10.6415 H         1 B0K         0.1994
     27 H10        -2.7842  -45.5505   10.7381 H         1 B0K         0.1994
@<TRIPOS>BOND
     1    2    1 ar 
     2    1    6 1  
     3    1    9 ar 
     4    2    3 ar 
     5   13    2 1  
     6    3    4 ar 
     7    3   14 1  
     8    4    5 ar 
     9    4   15 1  
    10    9    5 ar 
    11    5   16 1  
    12    6   11 2  
    13    7   10 1  
    14    7   13 1  
    15   10    8 1  
    16    8   12 1  
    17    9   17 1  
    18   11   13 1  
    19    7   18 1  
    20    7   19 1  
    21    8   20 1  
    22    8   21 1  
    23   10   22 1  
    24   10   23 1  
    25   11   24 1  
    26   12   25 1  
    27   12   26 1  
    28   12   27 1  
@<TRIPOS>SUBSTRUCTURE
     1 B0K         1

