### 
### Created by X-TOOL on Wed Jan  1 15:39:35 2020
### 

@<TRIPOS>MOLECULE
5ows_ligand
   40    43     1     0     0
SMALL
GAST_HUCK


@<TRIPOS>ATOM
      1 O           5.2040   37.4320    3.6440 O.2       1 F37        -0.4016
      2 C2          5.9460   37.8700    4.5220 C.2       1 F37         0.2483
      3 N1          7.2670   37.8680    4.4180 N.am      1 F37        -0.2804
      4 C3          7.8540   38.4500    5.6230 C.3       1 F37         0.0315
      5 N           5.4940   38.3970    5.6580 N.am      1 F37        -0.2992
      6 C1          6.6430   38.9290    6.3950 C.3       1 F37         0.0592
      7 C           6.4480   40.4390    6.1830 C.3       1 F37        -0.0637
      8 C4          6.7090   38.5650    7.8020 C.ar      1 F37        -0.0255
      9 C5          6.1220   37.3740    8.2730 C.ar      1 F37        -0.0347
     10 C6          6.1840   36.9980    9.6350 C.ar      1 F37        -0.0149
     11 C9          7.3410   39.3890    8.7420 C.ar      1 F37        -0.0347
     12 C8          7.3810   39.0430   10.1100 C.ar      1 F37        -0.0149
     13 C7          6.8380   37.8250   10.5830 C.ar      1 F37         0.0705
     14 C10         6.8360   37.4990   11.9660 C.2       1 F37         0.1825
     15 N3          7.6060   38.2200   12.8900 N.am      1 F37        -0.1963
     16 C17         7.5820   37.9710   14.2530 C.2       1 F37         0.2364
     17 O2          8.3220   38.6370   14.9740 O.2       1 F37        -0.3854
     18 N2          6.0140   36.5540   12.4590 N.2       1 F37        -0.2755
     19 C11         5.9610   36.2670   13.7890 C.ar      1 F37         0.0363
     20 C12         6.6920   36.9940   14.7410 C.ar      1 F37         0.0682
     21 C16         5.0870   35.2660   14.2060 C.ar      1 F37        -0.0449
     22 C15         4.9770   34.9480   15.5580 C.ar      1 F37        -0.0610
     23 C14         5.7340   35.6570   16.5050 C.ar      1 F37        -0.0604
     24 C13         6.6070   36.6820   16.0920 C.ar      1 F37        -0.0447
     25 H1          7.7832   37.5213    3.6348 H         1 F37         0.1835
     26 H2          8.5203   39.2887    5.3727 H         1 F37         0.0435
     27 H3          8.4137   37.6949    6.1944 H         1 F37         0.0435
     28 H4          4.5397   38.4248    5.9554 H         1 F37         0.1722
     29 H5          5.5666   40.7776    6.7473 H         1 F37         0.0149
     30 H6          6.2985   40.6427    5.1124 H         1 F37         0.0149
     31 H7          7.3394   40.9772    6.5377 H         1 F37         0.0149
     32 H8          5.6080   36.7272    7.5712 H         1 F37         0.0846
     33 H9          5.7274   36.0691    9.9571 H         1 F37         0.0749
     34 H10         7.8083   40.3100    8.4127 H         1 F37         0.0846
     35 H11         7.8389   39.7271   10.8153 H         1 F37         0.0749
     36 H12         8.2005   38.9483   12.5492 H         1 F37         0.2493
     37 H13         4.4899   34.7321   13.4756 H         1 F37         0.0600
     38 H14         4.3095   34.1561   15.8779 H         1 F37         0.0641
     39 H15         5.6460   35.4143   17.5578 H         1 F37         0.0595
     40 H16         7.2047   37.2203   16.8187 H         1 F37         0.0657
@<TRIPOS>BOND
     1    1    2 2  
     2    2    3 am 
     3    2    5 am 
     4    3    4 1  
     5    4    6 1  
     6    5    6 1  
     7    6    7 1  
     8    6    8 1  
     9    8    9 ar 
    10    8   11 ar 
    11    9   10 ar 
    12   10   13 ar 
    13   11   12 ar 
    14   12   13 ar 
    15   13   14 1  
    16   14   15 1  
    17   14   18 2  
    18   15   16 am 
    19   16   17 2  
    20   16   20 1  
    21   18   19 1  
    22   19   20 ar 
    23   19   21 ar 
    24   20   24 ar 
    25   21   22 ar 
    26   22   23 ar 
    27   23   24 ar 
    28    3   25 1  
    29    4   26 1  
    30    4   27 1  
    31    5   28 1  
    32    7   29 1  
    33    7   30 1  
    34    7   31 1  
    35    9   32 1  
    36   10   33 1  
    37   11   34 1  
    38   12   35 1  
    39   15   36 1  
    40   21   37 1  
    41   22   38 1  
    42   23   39 1  
    43   24   40 1  
@<TRIPOS>SUBSTRUCTURE
     1 F37         1

