### 
### Created by X-TOOL on Wed Jan  1 15:39:36 2020
### 

@<TRIPOS>MOLECULE
5owt_ligand
   39    42     1     0     0
SMALL
GAST_HUCK


@<TRIPOS>ATOM
      1 O         -39.5280  -10.7050    3.4340 O.2       1 F37        -0.3920
      2 C2        -38.6250  -10.3800    4.1950 C.2       1 F37         0.2782
      3 N1        -38.5170   -9.1130    4.5280 N.am      1 F37        -0.1923
      4 C3        -37.5100   -9.0320    5.3560 C.2       1 F37         0.2125
      5 O1        -37.1480   -7.9310    5.7760 O.2       1 F37        -0.3555
      6 N         -37.6840  -11.1490    4.7760 N.am      1 F37        -0.2895
      7 C1        -36.8770  -10.2320    5.3940 C.3       1 F37         0.1236
      8 C         -35.4230  -10.2850    5.1290 C.3       1 F37        -0.0568
      9 C4        -36.9480  -10.6120    6.8490 C.ar      1 F37        -0.0186
     10 C5        -36.2590   -9.8910    7.8410 C.ar      1 F37        -0.0346
     11 C6        -36.2690  -10.2130    9.2040 C.ar      1 F37        -0.0146
     12 C9        -37.6520  -11.7050    7.3660 C.ar      1 F37        -0.0346
     13 C8        -37.7120  -12.0180    8.7430 C.ar      1 F37        -0.0146
     14 C7        -37.0010  -11.3010    9.6850 C.ar      1 F37         0.0710
     15 C10       -37.0630  -11.6000   11.0680 C.2       1 F37         0.1833
     16 N3        -36.2960  -10.8910   12.0170 N.am      1 F37        -0.1962
     17 C17       -36.3240  -11.1100   13.3600 C.2       1 F37         0.2366
     18 O2        -35.5700  -10.4640   14.1230 O.2       1 F37        -0.3853
     19 N2        -37.8610  -12.5420   11.5230 N.2       1 F37        -0.2740
     20 C11       -37.9160  -12.8180   12.8300 C.ar      1 F37         0.0374
     21 C12       -37.1900  -12.1090   13.7880 C.ar      1 F37         0.0687
     22 C16       -38.7750  -13.8360   13.2350 C.ar      1 F37        -0.0445
     23 C15       -38.8920  -14.1630   14.5980 C.ar      1 F37        -0.0606
     24 C14       -38.1780  -13.4210   15.5450 C.ar      1 F37        -0.0601
     25 C13       -37.2960  -12.4130   15.1400 C.ar      1 F37        -0.0444
     26 H1        -39.0925   -8.3595    4.2100 H         1 F37         0.2248
     27 H2        -37.5964  -12.1450    4.7599 H         1 F37         0.1717
     28 H3        -34.9178   -9.4888    5.6955 H         1 F37         0.0142
     29 H4        -35.2408  -10.1421    4.0537 H         1 F37         0.0142
     30 H5        -35.0289  -11.2635    5.4408 H         1 F37         0.0142
     31 H6        -35.6815   -9.0281    7.5296 H         1 F37         0.0844
     32 H7        -35.6983   -9.6069    9.8982 H         1 F37         0.0751
     33 H8        -38.1810  -12.3477    6.6716 H         1 F37         0.0844
     34 H9        -38.3336  -12.8441    9.0688 H         1 F37         0.0751
     35 H10       -35.6867  -10.1745   11.6775 H         1 F37         0.2492
     36 H11       -39.3555  -14.3784   12.4975 H         1 F37         0.0602
     37 H12       -39.5292  -14.9820   14.9116 H         1 F37         0.0642
     38 H13       -38.3091  -13.6286   16.6008 H         1 F37         0.0597
     39 H14       -36.7029  -11.8761   15.8715 H         1 F37         0.0658
@<TRIPOS>BOND
     1    1    2 2  
     2    2    3 am 
     3    2    6 am 
     4    3    4 am 
     5    4    5 2  
     6    4    7 1  
     7    6    7 1  
     8    7    8 1  
     9    7    9 1  
    10    9   10 ar 
    11    9   12 ar 
    12   10   11 ar 
    13   11   14 ar 
    14   12   13 ar 
    15   13   14 ar 
    16   14   15 1  
    17   15   16 1  
    18   15   19 2  
    19   16   17 am 
    20   17   18 2  
    21   17   21 1  
    22   19   20 1  
    23   20   21 ar 
    24   20   22 ar 
    25   21   25 ar 
    26   22   23 ar 
    27   23   24 ar 
    28   24   25 ar 
    29    3   26 1  
    30    6   27 1  
    31    8   28 1  
    32    8   29 1  
    33    8   30 1  
    34   10   31 1  
    35   11   32 1  
    36   12   33 1  
    37   13   34 1  
    38   16   35 1  
    39   22   36 1  
    40   23   37 1  
    41   24   38 1  
    42   25   39 1  
@<TRIPOS>SUBSTRUCTURE
     1 F37         1

