### 
### Created by X-TOOL on Mon Sep 10 21:13:31 2018
### 

@<TRIPOS>MOLECULE
5ox5_ligand
   28    28     1     0     0
SMALL
GAST_HUCK


@<TRIPOS>ATOM
      1 C5         92.0410  -69.8560    0.1470 C.2       1 B2E         0.1378
      2 C6         93.4670  -69.5890    0.1020 C.2       1 B2E         0.2430
      3 O6         94.3180  -70.5140   -0.5190 O.3       1 B2E        -0.2774
      4 N1         94.0090  -68.3720    0.6800 N.am      1 B2E        -0.1478
      5 C2         93.1090  -67.3440    1.3560 C.2       1 B2E         0.3385
      6 N3         91.6280  -67.6920    1.3740 N.am      1 B2E        -0.1771
      7 C4         91.1360  -68.9150    0.7830 C.2       1 B2E         0.1900
      8 N          90.1760  -71.5910   -0.0660 N.am      1 B2E        -0.2855
      9 CA         89.6230  -72.7960   -0.6500 C.3       1 B2E         0.0808
     10 C          88.2170  -72.9900   -0.0920 C.2       1 B2E         0.0567
     11 O          87.8070  -72.2100    0.8060 O.co2     1 B2E        -0.5669
     12 OXT        87.4790  -73.9130   -0.5260 O.co2     1 B2E        -0.5669
     13 CAJ        91.4880  -71.1290   -0.4660 C.2       1 B2E         0.1626
     14 CAQ        95.4430  -68.1330    0.6120 C.3       1 B2E         0.0616
     15 CAR        90.6790  -66.7790    2.0010 C.3       1 B2E         0.0473
     16 O2         93.5250  -66.3490    1.8390 O.2       1 B2E        -0.3792
     17 O4         89.9720  -69.1480    0.8200 O.2       1 B2E        -0.4198
     18 OAN        92.1080  -71.7220   -1.2820 O.2       1 B2E        -0.4247
     19 H1         93.8064  -71.2471   -0.8405 H         1 B2E         0.2695
     20 H2         89.6512  -71.0784    0.6136 H         1 B2E         0.1836
     21 H3         90.2510  -73.6600   -0.3872 H         1 B2E         0.0686
     22 H4         89.5791  -72.6939   -1.7444 H         1 B2E         0.0686
     23 H5         95.9304  -68.9722    0.0941 H         1 B2E         0.0584
     24 H6         95.8489  -68.0454    1.6306 H         1 B2E         0.0584
     25 H7         95.6336  -67.2009    0.0599 H         1 B2E         0.0584
     26 H8         91.2175  -65.9053    2.3968 H         1 B2E         0.0539
     27 H9         90.1626  -67.2950    2.8238 H         1 B2E         0.0539
     28 H10        89.9412  -66.4480    1.2553 H         1 B2E         0.0539
@<TRIPOS>BOND
     1    1    2 2  
     2    1    7 1  
     3   13    1 1  
     4    2    3 1  
     5    2    4 1  
     6    4    5 am 
     7    4   14 1  
     8    6    5 am 
     9    5   16 2  
    10    7    6 am 
    11    6   15 1  
    12    7   17 2  
    13    8    9 1  
    14    8   13 am 
    15    9   10 1  
    16   10   11 ar 
    17   10   12 ar 
    18   13   18 2  
    19    3   19 1  
    20    8   20 1  
    21    9   21 1  
    22    9   22 1  
    23   14   23 1  
    24   14   24 1  
    25   14   25 1  
    26   15   26 1  
    27   15   27 1  
    28   15   28 1  
@<TRIPOS>SUBSTRUCTURE
     1 B2E         1

