### 
### Created by X-TOOL on Mon Sep 10 21:13:31 2018
### 

@<TRIPOS>MOLECULE
5ox6_ligand
   31    32     1     0     0
SMALL
GAST_HUCK


@<TRIPOS>ATOM
      1 O01        14.4160  114.1880   -5.1300 O.3       1 A1Z        -0.3205
      2 C02        13.9980  115.4510   -5.4640 C.ar      1 A1Z         0.1361
      3 C03        14.7610  116.3120   -6.2370 C.ar      1 A1Z         0.1497
      4 C04        16.1170  116.0090   -6.7540 C.2       1 A1Z         0.2188
      5 N05        16.8900  114.8790   -6.2830 N.am      1 A1Z        -0.2734
      6 C06        18.2270  114.7450   -6.8040 C.3       1 A1Z         0.0827
      7 C07        18.8670  113.5880   -6.0570 C.2       1 A1Z         0.0570
      8 O08        18.0970  112.8640   -5.3850 O.co2     1 A1Z        -0.5669
      9 O09        20.0900  113.3720   -6.1900 O.co2     1 A1Z        -0.5669
     10 O10        16.5230  116.7820   -7.5590 O.2       1 A1Z        -0.3857
     11 N11        14.3990  117.5290   -6.5390 N.ar      1 A1Z        -0.2868
     12 C12        13.2220  117.9640   -6.1520 C.ar      1 A1Z         0.0127
     13 C13        12.3740  117.1480   -5.3990 C.ar      1 A1Z         0.0045
     14 C21        12.7560  115.8780   -5.0390 C.ar      1 A1Z        -0.0014
     15 C14        10.9920  117.6530   -4.9810 C.ar      1 A1Z        -0.0106
     16 C15        10.4830  117.3920   -3.7300 C.ar      1 A1Z        -0.0377
     17 C16         9.2170  117.8470   -3.3940 C.ar      1 A1Z         0.0425
     18 CL          8.6270  117.5070   -1.7420 Cl        1 A1Z        -0.0703
     19 C18         8.4430  118.5470   -4.3070 C.ar      1 A1Z        -0.0464
     20 C19         8.9370  118.8000   -5.5770 C.ar      1 A1Z        -0.0592
     21 C20        10.2220  118.3500   -5.9070 C.ar      1 A1Z        -0.0515
     22 H1         15.2269  114.2437   -4.6381 H         1 A1Z         0.2532
     23 H2         16.5144  114.2233   -5.6280 H         1 A1Z         0.1864
     24 H3         18.7966  115.6701   -6.6315 H         1 A1Z         0.0689
     25 H4         18.1949  114.5298   -7.8823 H         1 A1Z         0.0689
     26 H5         12.9053  118.9657   -6.4193 H         1 A1Z         0.0755
     27 H6         12.1102  115.2394   -4.4472 H         1 A1Z         0.0670
     28 H7         11.0692  116.8329   -3.0097 H         1 A1Z         0.0643
     29 H8          7.4549  118.8952   -4.0284 H         1 A1Z         0.0634
     30 H9          8.3385  119.3376   -6.3035 H         1 A1Z         0.0621
     31 H10        10.6211  118.5471   -6.8954 H         1 A1Z         0.0638
@<TRIPOS>BOND
     1    1    2 1  
     2    2    3 ar 
     3    2   14 ar 
     4    3    4 1  
     5    3   11 ar 
     6    4    5 am 
     7    4   10 2  
     8    5    6 1  
     9    6    7 1  
    10    7    8 ar 
    11    7    9 ar 
    12   11   12 ar 
    13   12   13 ar 
    14   13   14 ar 
    15   13   15 1  
    16   15   16 ar 
    17   15   21 ar 
    18   16   17 ar 
    19   17   18 1  
    20   17   19 ar 
    21   19   20 ar 
    22   20   21 ar 
    23    1   22 1  
    24    5   23 1  
    25    6   24 1  
    26    6   25 1  
    27   12   26 1  
    28   14   27 1  
    29   16   28 1  
    30   19   29 1  
    31   20   30 1  
    32   21   31 1  
@<TRIPOS>SUBSTRUCTURE
     1 A1Z         1

