### 
### Created by X-TOOL on Mon Sep 10 21:13:33 2018
### 

@<TRIPOS>MOLECULE
5oxg_ligand
   54    59     1     0     0
SMALL
GAST_HUCK


@<TRIPOS>ATOM
      1 C01       182.8200  -42.3390   10.4270 C.3       1 B4B        -0.0134
      2 C02       183.0970  -42.6840   11.8870 C.3       1 B4B         0.0670
      3 N03       184.0190  -43.7640   12.1300 N.pl3     1 B4B        -0.2986
      4 C04       183.6580  -44.9020   11.3180 C.3       1 B4B         0.0670
      5 C05       183.4590  -44.5780    9.8400 C.3       1 B4B        -0.0134
      6 N06       182.5340  -43.4850    9.6090 N.4       1 B4B         0.2298
      7 C07       184.3610  -44.0720   13.4860 C.ar      1 B4B         0.0406
      8 C08       183.6260  -43.6120   14.5770 C.ar      1 B4B        -0.0444
      9 C09       183.9660  -43.9480   15.8800 C.ar      1 B4B        -0.0670
     10 C10       185.0590  -44.7770   16.1450 C.ar      1 B4B        -0.0259
     11 C11       185.7580  -45.2730   15.0470 C.ar      1 B4B        -0.0670
     12 C12       185.4160  -44.9210   13.7450 C.ar      1 B4B        -0.0444
     13 C13       185.3730  -45.1590   17.4680 C.2       1 B4B         0.0492
     14 C14       185.0030  -44.3790   18.5790 C.2       1 B4B         0.0260
     15 N15       185.2850  -44.7870   19.8340 N.2       1 B4B        -0.2594
     16 C16       185.8940  -45.9940   20.0520 C.2       1 B4B         0.1833
     17 C17       186.2730  -46.6370   21.2670 C.2       1 B4B         0.0217
     18 C18       186.8600  -47.8300   20.8650 C.2       1 B4B         0.0019
     19 N19       186.8430  -47.8980   19.5270 N.2       1 B4B        -0.1999
     20 N20       186.2450  -46.7690   19.0300 N.pl3     1 B4B        -0.1261
     21 C21       185.9850  -46.3900   17.7360 C.2       1 B4B         0.1242
     22 C22       186.1590  -46.2380   22.6120 C.ar      1 B4B        -0.0254
     23 C23       187.3210  -46.3470   23.3880 C.ar      1 B4B        -0.0642
     24 C24       187.3390  -46.0330   24.7540 C.ar      1 B4B        -0.0696
     25 C25       186.1770  -45.5720   25.3710 C.ar      1 B4B        -0.0516
     26 C26       184.9810  -45.4690   24.6080 C.ar      1 B4B         0.0363
     27 C27       184.9520  -45.7930   23.2610 C.ar      1 B4B         0.0050
     28 C28       183.6930  -45.6510   22.5770 C.ar      1 B4B        -0.0375
     29 C29       182.5800  -45.2000   23.2810 C.ar      1 B4B        -0.0346
     30 C30       182.6850  -44.8990   24.6450 C.ar      1 B4B         0.0067
     31 N31       183.8610  -45.0270   25.2950 N.ar      1 B4B        -0.3012
     32 H1        183.7046  -41.8306   10.0160 H         1 B4B         0.0833
     33 H2        181.9556  -41.6598   10.3882 H         1 B4B         0.0833
     34 H3        182.1381  -42.9521   12.3545 H         1 B4B         0.0567
     35 H4        183.5023  -41.7836   12.3718 H         1 B4B         0.0567
     36 H5        182.7189  -45.3206   11.7088 H         1 B4B         0.0567
     37 H6        184.4572  -45.6531   11.4019 H         1 B4B         0.0567
     38 H7        183.0713  -45.4753    9.3355 H         1 B4B         0.0833
     39 H8        184.4337  -44.3069    9.4082 H         1 B4B         0.0833
     40 H9        182.5910  -43.2128    8.6401 H         1 B4B         0.2015
     41 H10       181.5999  -43.8034    9.8142 H         1 B4B         0.2015
     42 H11       182.7662  -42.9751   14.4034 H         1 B4B         0.0517
     43 H12       183.3756  -43.5621   16.7031 H         1 B4B         0.0574
     44 H13       186.5888  -45.9498   15.2109 H         1 B4B         0.0574
     45 H14       185.9904  -45.3222   12.9179 H         1 B4B         0.0517
     46 H15       184.4829  -43.4348   18.4243 H         1 B4B         0.1001
     47 H16       187.2687  -48.5887   21.5308 H         1 B4B         0.0689
     48 H17       186.2562  -47.0503   16.9135 H         1 B4B         0.1378
     49 H18       188.2363  -46.6854   22.9161 H         1 B4B         0.0527
     50 H19       188.2516  -46.1480   25.3276 H         1 B4B         0.0617
     51 H20       186.1848  -45.2955   26.4191 H         1 B4B         0.0534
     52 H21       183.6126  -45.8931   21.5234 H         1 B4B         0.0766
     53 H22       181.6300  -45.0815   22.7726 H         1 B4B         0.0668
     54 H23       181.8096  -44.5585   25.1861 H         1 B4B         0.0855
@<TRIPOS>BOND
     1    1    2 1  
     2    1    6 1  
     3    2    3 1  
     4    3    4 1  
     5    3    7 1  
     6    4    5 1  
     7    5    6 1  
     8    7    8 ar 
     9    7   12 ar 
    10    8    9 ar 
    11    9   10 ar 
    12   10   11 ar 
    13   10   13 1  
    14   11   12 ar 
    15   13   14 1  
    16   13   21 2  
    17   14   15 2  
    18   15   16 1  
    19   16   17 2  
    20   16   20 1  
    21   17   18 1  
    22   17   22 1  
    23   18   19 2  
    24   19   20 1  
    25   20   21 1  
    26   22   23 ar 
    27   22   27 ar 
    28   23   24 ar 
    29   24   25 ar 
    30   25   26 ar 
    31   26   27 ar 
    32   26   31 ar 
    33   27   28 ar 
    34   28   29 ar 
    35   29   30 ar 
    36   30   31 ar 
    37    1   32 1  
    38    1   33 1  
    39    2   34 1  
    40    2   35 1  
    41    4   36 1  
    42    4   37 1  
    43    5   38 1  
    44    5   39 1  
    45    6   40 1  
    46    6   41 1  
    47    8   42 1  
    48    9   43 1  
    49   11   44 1  
    50   12   45 1  
    51   14   46 1  
    52   18   47 1  
    53   21   48 1  
    54   23   49 1  
    55   24   50 1  
    56   25   51 1  
    57   28   52 1  
    58   29   53 1  
    59   30   54 1  
@<TRIPOS>SUBSTRUCTURE
     1 B4B         1

