### 
### Created by X-TOOL on Wed Jan  1 15:39:37 2020
### 

@<TRIPOS>MOLECULE
5oxk_ligand
   30    29     1     0     0
SMALL
GAST_HUCK


@<TRIPOS>ATOM
      1 N          20.9490   15.0530   -2.3090 N.4       1 ALA         0.2377
      2 CA         22.3450   15.4600   -2.1670 C.3       1 ALA         0.0621
      3 C          22.9600   15.8240   -3.5160 C.2       1 ALA         0.2259
      4 O          22.4950   15.3730   -4.5630 O.2       1 ALA        -0.3908
      5 CB         23.1530   14.3620   -1.4940 C.3       1 ALA        -0.0040
      6 N          24.0160   16.6320   -3.4760 N.am      1 GLN        -0.2666
      7 CA         24.6170   17.2010   -4.6800 C.3       1 GLN         0.0965
      8 C          25.8870   16.4670   -5.0980 C.2       1 GLN         0.0602
      9 O          26.6460   15.9620   -4.2770 O.co2     1 GLN        -0.5666
     10 CB         24.9170   18.6890   -4.4570 C.3       1 GLN        -0.0010
     11 CG         25.6920   19.3670   -5.5750 C.3       1 GLN         0.0407
     12 CD         25.4070   20.8550   -5.6670 C.2       1 GLN         0.1737
     13 OE1        25.8210   21.5160   -6.6190 O.2       1 GLN        -0.3973
     14 NE2        24.6900   21.3860   -4.6820 N.am      1 GLN        -0.3009
     15 OXT        26.2030   16.3680   -6.2810 O.co2     1 GLN        -0.5666
     16 H1         20.5732   14.8199   -1.4032 H         1 ALA         0.2015
     17 H2         20.8935   14.2480   -2.9131 H         1 ALA         0.2015
     18 H3         20.4172   15.8103   -2.7086 H         1 ALA         0.2015
     19 H4         22.3763   16.3532   -1.5257 H         1 ALA         0.1095
     20 H5         24.1998   14.6851   -1.3954 H         1 ALA         0.0310
     21 H6         23.1074   13.4473   -2.1033 H         1 ALA         0.0310
     22 H7         22.7364   14.1592   -0.4963 H         1 ALA         0.0310
     23 H8         24.4140   16.8588   -2.5871 H         1 GLN         0.1877
     24 H9         23.8883   17.1113   -5.4991 H         1 GLN         0.0727
     25 H10        25.5031   18.7830   -3.5309 H         1 GLN         0.0330
     26 H11        23.9585   19.2156   -4.3394 H         1 GLN         0.0330
     27 H12        25.4161   18.8963   -6.5301 H         1 GLN         0.0504
     28 H13        26.7676   19.2254   -5.3936 H         1 GLN         0.0504
     29 H14        24.4725   22.3620   -4.6918 H         1 GLN         0.1814
     30 H15        24.3680   20.8095   -3.9310 H         1 GLN         0.1814
@<TRIPOS>BOND
     1    1    2 1  
     2    2    3 1  
     3    2    5 1  
     4    3    4 2  
     5    3    6 am 
     6    6    7 1  
     7    7    8 1  
     8    7   10 1  
     9    8    9 ar 
    10    8   15 ar 
    11   10   11 1  
    12   11   12 1  
    13   12   13 2  
    14   12   14 am 
    15    1   16 1  
    16    1   17 1  
    17    1   18 1  
    18    2   19 1  
    19    5   20 1  
    20    5   21 1  
    21    5   22 1  
    22    6   23 1  
    23    7   24 1  
    24   10   25 1  
    25   10   26 1  
    26   11   27 1  
    27   11   28 1  
    28   14   29 1  
    29   14   30 1  
@<TRIPOS>SUBSTRUCTURE
     1 ALA         1

