### 
### Created by X-TOOL on Wed Jan  1 15:39:38 2020
### 

@<TRIPOS>MOLECULE
5oxl_ligand
   32    31     1     0     0
SMALL
GAST_HUCK


@<TRIPOS>ATOM
      1 N          20.8360   15.7370   -2.0360 N.4       1 ALA         0.2377
      2 CA         22.2840   15.8920   -2.0530 C.3       1 ALA         0.0621
      3 C          22.7780   16.2940   -3.4360 C.2       1 ALA         0.2259
      4 O          22.2910   15.7930   -4.4480 O.2       1 ALA        -0.3908
      5 CB         22.9580   14.6100   -1.6050 C.3       1 ALA        -0.0040
      6 N          23.7470   17.2020   -3.4720 N.am      1 LEU        -0.2668
      7 CA         24.3390   17.6430   -4.7280 C.3       1 LEU         0.0947
      8 C          25.5410   16.7900   -5.1060 C.2       1 LEU         0.0601
      9 O          25.8980   16.6990   -6.2810 O.co2     1 LEU        -0.5666
     10 CB         24.7560   19.1080   -4.6370 C.3       1 LEU        -0.0156
     11 CG         23.6340   20.1320   -4.7940 C.3       1 LEU        -0.0431
     12 CD1        24.0870   21.4900   -4.2890 C.3       1 LEU        -0.0625
     13 CD2        23.1980   20.2130   -6.2490 C.3       1 LEU        -0.0625
     14 OXT        26.1780   16.1840   -4.2410 O.co2     1 LEU        -0.5666
     15 H1         20.5374   15.4713   -1.1106 H         1 ALA         0.2015
     16 H2         20.5668   15.0224   -2.6940 H         1 ALA         0.2015
     17 H3         20.4016   16.6099   -2.2915 H         1 ALA         0.2015
     18 H4         22.5527   16.6906   -1.3459 H         1 ALA         0.1095
     19 H5         24.0497   14.7439   -1.6235 H         1 ALA         0.0310
     20 H6         22.6774   13.7915   -2.2842 H         1 ALA         0.0310
     21 H7         22.6361   14.3645   -0.5822 H         1 ALA         0.0310
     22 H8         24.0791   17.5934   -2.6138 H         1 LEU         0.1877
     23 H9         23.5810   17.5435   -5.5189 H         1 LEU         0.0726
     24 H10        25.4977   19.2970   -5.4271 H         1 LEU         0.0308
     25 H11        25.2207   19.2656   -3.6525 H         1 LEU         0.0308
     26 H12        22.7743   19.8054   -4.1905 H         1 LEU         0.0297
     27 H13        23.2699   22.2167   -4.4081 H         1 LEU         0.0232
     28 H14        24.9613   21.8233   -4.8674 H         1 LEU         0.0232
     29 H15        24.3580   21.4141   -3.2256 H         1 LEU         0.0232
     30 H16        22.8750   19.2186   -6.5909 H         1 LEU         0.0232
     31 H17        24.0413   20.5567   -6.8659 H         1 LEU         0.0232
     32 H18        22.3623   20.9221   -6.3425 H         1 LEU         0.0232
@<TRIPOS>BOND
     1    1    2 1  
     2    2    3 1  
     3    2    5 1  
     4    3    4 2  
     5    3    6 am 
     6    6    7 1  
     7    7    8 1  
     8    7   10 1  
     9    8    9 ar 
    10    8   14 ar 
    11   10   11 1  
    12   11   12 1  
    13   11   13 1  
    14    1   15 1  
    15    1   16 1  
    16    1   17 1  
    17    2   18 1  
    18    5   19 1  
    19    5   20 1  
    20    5   21 1  
    21    6   22 1  
    22    7   23 1  
    23   10   24 1  
    24   10   25 1  
    25   11   26 1  
    26   12   27 1  
    27   12   28 1  
    28   12   29 1  
    29   13   30 1  
    30   13   31 1  
    31   13   32 1  
@<TRIPOS>SUBSTRUCTURE
     1 ALA         1

