### 
### Created by X-TOOL on Wed Jan  1 15:39:38 2020
### 

@<TRIPOS>MOLECULE
5oxm_ligand
   30    29     1     0     0
SMALL
GAST_HUCK


@<TRIPOS>ATOM
      1 N          20.3020   15.8200   -1.9040 N.4       1 ASP         0.2391
      2 CA         21.7570   15.7800   -1.8740 C.3       1 ASP         0.0764
      3 C          22.3360   15.7830   -3.2780 C.2       1 ASP         0.2279
      4 O          22.4470   14.7420   -3.9300 O.2       1 ASP        -0.3906
      5 CB         22.2540   14.5580   -1.1000 C.3       1 ASP         0.0607
      6 CG         22.4200   14.8380    0.3820 C.2       1 ASP         0.0425
      7 OD1        22.3080   16.0150    0.7830 O.co2     1 ASP        -0.5686
      8 OD2        22.6740   13.8860    1.1480 O.co2     1 ASP        -0.5686
      9 N          22.7010   16.9760   -3.7310 N.am      1 GLU        -0.2666
     10 CA         23.3430   17.1550   -5.0200 C.3       1 GLU         0.0960
     11 C          24.7110   16.4760   -5.0410 C.2       1 GLU         0.0602
     12 O          25.3320   16.2630   -3.9990 O.co2     1 GLU        -0.5666
     13 CB         23.4750   18.6450   -5.3380 C.3       1 GLU        -0.0064
     14 CG         23.9960   19.4810   -4.1820 C.3       1 GLU         0.0038
     15 CD         24.2370   20.9260   -4.5730 C.2       1 GLU         0.0350
     16 OE1        24.4150   21.1930   -5.7800 O.co2     1 GLU        -0.5690
     17 OE2        24.2460   21.7950   -3.6740 O.co2     1 GLU        -0.5690
     18 OXT        25.2240   16.1140   -6.0980 O.co2     1 GLU        -0.5666
     19 H1         19.9463   15.8171   -0.9608 H         1 ASP         0.2016
     20 H2         19.9537   15.0127   -2.3969 H         1 ASP         0.2016
     21 H3         19.9985   16.6580   -2.3749 H         1 ASP         0.2016
     22 H4         22.1115   16.6829   -1.3552 H         1 ASP         0.1117
     23 H5         23.2265   14.2507   -1.5121 H         1 ASP         0.0512
     24 H6         21.5279   13.7413   -1.2257 H         1 ASP         0.0512
     25 H7         22.5273   17.7807   -3.1634 H         1 GLU         0.1877
     26 H8         22.7127   16.6883   -5.7913 H         1 GLU         0.0727
     27 H9         22.4832   19.0271   -5.6214 H         1 GLU         0.0323
     28 H10        24.1672   18.7576   -6.1854 H         1 GLU         0.0323
     29 H11        24.9445   19.0473   -3.8323 H         1 GLU         0.0432
     30 H12        23.2580   19.4546   -3.3667 H         1 GLU         0.0432
@<TRIPOS>BOND
     1    1    2 1  
     2    2    3 1  
     3    2    5 1  
     4    3    4 2  
     5    3    9 am 
     6    5    6 1  
     7    6    7 ar 
     8    6    8 ar 
     9    9   10 1  
    10   10   11 1  
    11   10   13 1  
    12   11   12 ar 
    13   11   18 ar 
    14   13   14 1  
    15   14   15 1  
    16   15   16 ar 
    17   15   17 ar 
    18    1   19 1  
    19    1   20 1  
    20    1   21 1  
    21    2   22 1  
    22    5   23 1  
    23    5   24 1  
    24    9   25 1  
    25   10   26 1  
    26   13   27 1  
    27   13   28 1  
    28   14   29 1  
    29   14   30 1  
@<TRIPOS>SUBSTRUCTURE
     1 ASP         1

