### 
### Created by X-TOOL on Wed Jan  1 15:39:36 2020
### 

@<TRIPOS>MOLECULE
5oxn_ligand
   33    33     1     0     0
SMALL
GAST_HUCK


@<TRIPOS>ATOM
      1 N          19.6800   17.1370   -2.4420 N.4       1 PHE         0.2394
      2 CA         21.0190   17.6900   -2.5880 C.3       1 PHE         0.0744
      3 C          21.2490   18.2560   -3.9860 C.2       1 PHE         0.2282
      4 O          20.9000   17.6280   -4.9860 O.2       1 PHE        -0.3906
      5 CB         22.0730   16.6250   -2.2790 C.3       1 PHE         0.0416
      6 CG         22.1360   16.2310   -0.8280 C.ar      1 PHE        -0.0353
      7 CD1        22.0040   17.1840    0.1700 C.ar      1 PHE        -0.0600
      8 CD2        22.3100   14.9040   -0.4640 C.ar      1 PHE        -0.0600
      9 CE1        22.0530   16.8230    1.5070 C.ar      1 PHE        -0.0686
     10 CE2        22.3600   14.5370    0.8660 C.ar      1 PHE        -0.0686
     11 CZ         22.2310   15.4960    1.8540 C.ar      1 PHE        -0.0687
     12 N          21.8140   19.4590   -4.0380 N.am      1 ALA        -0.2669
     13 CA         22.3170   20.0290   -5.2810 C.3       1 ALA         0.0917
     14 C          23.5650   19.2750   -5.6950 C.2       1 ALA         0.0598
     15 O          24.3870   18.9220   -4.8530 O.co2     1 ALA        -0.5666
     16 CB         22.6280   21.5120   -5.1210 C.3       1 ALA        -0.0300
     17 OXT        23.7980   19.0040   -6.8670 O.co2     1 ALA        -0.5666
     18 H1         19.5663   16.7741   -1.5085 H         1 PHE         0.2017
     19 H2         19.5489   16.3935   -3.1098 H         1 PHE         0.2017
     20 H3         18.9978   17.8606   -2.6065 H         1 PHE         0.2017
     21 H4         21.1301   18.5101   -1.8634 H         1 PHE         0.1122
     22 H5         23.0576   17.0164   -2.5744 H         1 PHE         0.0507
     23 H6         21.8423   15.7275   -2.8716 H         1 PHE         0.0507
     24 H7         21.8607   18.2243   -0.0987 H         1 PHE         0.0557
     25 H8         22.4079   14.1461   -1.2328 H         1 PHE         0.0557
     26 H9         21.9522   17.5780    2.2783 H         1 PHE         0.0599
     27 H10        22.5004   13.4966    1.1360 H         1 PHE         0.0599
     28 H11        22.2693   15.2082    2.8984 H         1 PHE         0.0559
     29 H12        21.8964   19.9905   -3.1950 H         1 ALA         0.1876
     30 H13        21.5508   19.9130   -6.0617 H         1 ALA         0.0723
     31 H14        23.0047   21.9125   -6.0737 H         1 ALA         0.0270
     32 H15        23.3914   21.6444   -4.3402 H         1 ALA         0.0270
     33 H16        21.7124   22.0498   -4.8337 H         1 ALA         0.0270
@<TRIPOS>BOND
     1    1    2 1  
     2    2    3 1  
     3    2    5 1  
     4    3    4 2  
     5    3   12 am 
     6    5    6 1  
     7    6    7 ar 
     8    6    8 ar 
     9    7    9 ar 
    10    8   10 ar 
    11    9   11 ar 
    12   10   11 ar 
    13   12   13 1  
    14   13   14 1  
    15   13   16 1  
    16   14   15 ar 
    17   14   17 ar 
    18    1   18 1  
    19    1   19 1  
    20    1   20 1  
    21    2   21 1  
    22    5   22 1  
    23    5   23 1  
    24    7   24 1  
    25    8   25 1  
    26    9   26 1  
    27   10   27 1  
    28   11   28 1  
    29   12   29 1  
    30   13   30 1  
    31   16   31 1  
    32   16   32 1  
    33   16   33 1  
@<TRIPOS>SUBSTRUCTURE
     1 PHE         1

