### 
### Created by X-TOOL on Wed Jan  1 15:39:38 2020
### 

@<TRIPOS>MOLECULE
5oyd_ligand
  127   132     1     0     0
SMALL
GAST_HUCK


@<TRIPOS>ATOM
      1 C1          2.2570  125.3100   22.7140 C.3       1 NBG         0.1719
      2 C2          2.6430  125.5640   24.1640 C.3       1 NBG         0.1308
      3 C3          1.4910  125.3660   25.1160 C.3       1 NBG         0.1141
      4 C4          0.1950  126.0460   24.6020 C.3       1 NBG         0.1184
      5 C5         -0.1090  125.4620   23.2330 C.3       1 NBG         0.1131
      6 C6         -1.4040  125.8630   22.5760 C.3       1 NBG         0.0730
      7 C7          3.6070  125.1200   20.6920 C.2       1 NBG         0.1749
      8 C8          4.2100  125.8330   19.4920 C.3       1 NBG         0.0257
      9 N1          3.0040  125.8690   21.6050 N.am      1 NBG        -0.2586
     10 O3          1.8420  125.8560   26.4400 O.3       1 NBG        -0.3864
     11 O2          3.7280  124.7040   24.5450 O.3       1 NBG        -0.3844
     12 O4         -0.8770  125.8870   25.5570 O.3       1 NBG        -0.3401
     13 O5          0.9610  125.8530   22.3720 O.3       1 NBG        -0.3436
     14 O6         -1.4260  127.2700   22.5700 O.3       1 NBG        -0.3924
     15 O7          3.6990  123.8930   20.8050 O.2       1 NBG        -0.3973
     16 C2         -2.8530  126.7010   26.5120 C.3       1 BGC         0.1341
     17 C3         -3.6300  127.9990   26.8230 C.3       1 BGC         0.1144
     18 C4         -2.7980  128.8980   27.7450 C.3       1 BGC         0.1184
     19 C5         -1.4810  129.1780   27.0400 C.3       1 BGC         0.1137
     20 C6         -0.4880  129.9150   27.9390 C.3       1 BGC         0.0796
     21 C1         -1.5520  127.0910   25.8510 C.3       1 BGC         0.1884
     22 O2         -3.6730  125.9080   25.6960 O.3       1 BGC        -0.3841
     23 O3         -4.8240  127.6050   27.4430 O.3       1 BGC        -0.3864
     24 O4         -3.3820  130.1620   27.9210 O.3       1 BGC        -0.3401
     25 O5         -0.8670  127.9000   26.7730 O.3       1 BGC        -0.3405
     26 O6          0.4360  130.4820   27.0180 O.3       1 BGC        -0.3461
     27 C1          1.6830  130.8080   27.5730 C.3       1 XYS         0.1876
     28 C2          2.1540  132.0150   26.7670 C.3       1 XYS         0.1341
     29 C3          2.4270  131.5580   25.3340 C.3       1 XYS         0.1137
     30 C4          3.3650  130.3670   25.3430 C.3       1 XYS         0.1069
     31 C5          2.6510  129.2710   26.1160 C.3       1 XYS         0.0792
     32 O2          1.2200  133.1010   26.7950 O.3       1 XYS        -0.3841
     33 O3          3.1120  132.6410   24.7760 O.3       1 XYS        -0.3864
     34 O4          3.7070  129.9800   24.0260 O.3       1 XYS        -0.3869
     35 O5          2.5950  129.7280   27.4500 O.3       1 XYS        -0.3461
     36 C2         -3.9680  132.0430   29.2860 C.3       1 BGC         0.1341
     37 C3         -4.4580  132.4310   30.6770 C.3       1 BGC         0.1144
     38 C4         -5.6070  131.5200   31.0970 C.3       1 BGC         0.1184
     39 C5         -5.3510  130.0280   30.8720 C.3       1 BGC         0.1137
     40 C6         -6.6120  129.2270   31.2550 C.3       1 BGC         0.0796
     41 C1         -3.7490  130.5270   29.2230 C.3       1 BGC         0.1884
     42 O2         -2.7040  132.6280   29.0030 O.3       1 BGC        -0.3841
     43 O3         -5.0170  133.7230   30.7190 O.3       1 BGC        -0.3864
     44 O4         -5.8280  131.6580   32.5120 O.3       1 BGC        -0.3401
     45 O5         -4.9560  129.8250   29.5230 O.3       1 BGC        -0.3405
     46 O6         -7.8250  129.7690   30.6830 O.3       1 BGC        -0.3461
     47 C1         -7.9710  129.5740   29.2410 C.3       1 XYS         0.1876
     48 C2         -9.3550  130.0130   28.7990 C.3       1 XYS         0.1341
     49 C3        -10.4230  128.9690   29.2220 C.3       1 XYS         0.1137
     50 C4        -10.0170  127.5260   28.8770 C.3       1 XYS         0.1069
     51 C5         -8.6500  127.2440   29.4850 C.3       1 XYS         0.0792
     52 O2         -9.6460  131.2630   29.4540 O.3       1 XYS        -0.3841
     53 O3        -11.6800  129.2760   28.6100 O.3       1 XYS        -0.3864
     54 O4        -10.9190  126.5890   29.4310 O.3       1 XYS        -0.3869
     55 O5         -7.7770  128.2060   28.8830 O.3       1 XYS        -0.3461
     56 C2         -7.2860  132.1950   34.2570 C.3       1 BGC         0.1341
     57 C3         -8.4640  133.0350   34.6790 C.3       1 BGC         0.1141
     58 C4         -8.3560  134.4850   34.1920 C.3       1 BGC         0.1119
     59 C5         -8.0420  134.5390   32.6840 C.3       1 BGC         0.1130
     60 C6         -7.8020  135.9310   32.0860 C.3       1 BGC         0.0730
     61 C1         -7.0370  132.3750   32.7930 C.3       1 BGC         0.1884
     62 O2         -7.6960  130.8240   34.4940 O.3       1 BGC        -0.3841
     63 O3         -8.6490  132.8390   36.0950 O.3       1 BGC        -0.3864
     64 O4         -9.6650  135.0260   34.3360 O.3       1 BGC        -0.3865
     65 O5         -6.8750  133.7420   32.4440 O.3       1 BGC        -0.3405
     66 O6         -7.3420  136.8150   33.1220 O.3       1 BGC        -0.3924
     67 H1          2.2492  124.2157   22.6029 H         1 NBG         0.0896
     68 H2          2.9782  126.6084   24.2468 H         1 NBG         0.0668
     69 H3          1.2966  124.2860   25.1918 H         1 NBG         0.0648
     70 H4          0.3796  127.1240   24.4844 H         1 NBG         0.0651
     71 H5         -0.1180  124.3667   23.3339 H         1 NBG         0.0647
     72 H6         -2.2582  125.4714   23.1478 H         1 NBG         0.0584
     73 H7         -1.4440  125.4773   21.5466 H         1 NBG         0.0584
     74 H8          4.6738  125.0944   18.8217 H         1 NBG         0.0467
     75 H9          4.9733  126.5469   19.8351 H         1 NBG         0.0467
     76 H10         3.4192  126.3734   18.9511 H         1 NBG         0.0467
     77 H11         3.0675  126.8638   21.5248 H         1 NBG         0.1877
     78 H12         1.1349  125.6649   27.0449 H         1 NBG         0.2100
     79 H13         3.4400  123.7993   24.5123 H         1 NBG         0.2101
     80 H14        -0.6799  127.5952   22.0800 H         1 NBG         0.2095
     81 H15        -2.6343  126.1557   27.4420 H         1 NBG         0.0671
     82 H16        -3.8519  128.5412   25.8920 H         1 NBG         0.0648
     83 H17        -2.6420  128.4040   28.7153 H         1 NBG         0.0651
     84 H18        -1.6587  129.7447   26.1141 H         1 NBG         0.0647
     85 H19         0.0168  129.2166   28.6227 H         1 NBG         0.0587
     86 H20        -0.9928  130.6990   28.5225 H         1 NBG         0.0587
     87 H21        -1.7307  127.6536   24.9228 H         1 NBG         0.0938
     88 H22        -3.8859  126.3860   24.9031 H         1 NBG         0.2101
     89 H23        -5.3187  127.0504   26.8513 H         1 NBG         0.2100
     90 H24         1.5751  131.0716   28.6355 H         1 NBG         0.0937
     91 H25         3.0967  132.3745   27.2052 H         1 NBG         0.0671
     92 H26         1.4984  131.3256   24.7921 H         1 NBG         0.0647
     93 H27         4.2915  130.6345   25.8722 H         1 NBG         0.0643
     94 H28         3.2143  128.3281   26.0557 H         1 NBG         0.0587
     95 H29         1.6367  129.1182   25.7188 H         1 NBG         0.0587
     96 H30         0.4003  132.8224   26.4036 H         1 NBG         0.2101
     97 H31         2.5419  133.4007   24.7602 H         1 NBG         0.2100
     98 H32         4.2837  129.2258   24.0584 H         1 NBG         0.2100
     99 H33        -4.7085  132.3576   28.5359 H         1 NBG         0.0671
    100 H34        -3.6205  132.3561   31.3862 H         1 NBG         0.0648
    101 H35        -6.5076  131.8190   30.5406 H         1 NBG         0.0651
    102 H36        -4.5272  129.7042   31.5250 H         1 NBG         0.0647
    103 H37        -6.7097  129.2309   32.3506 H         1 NBG         0.0587
    104 H38        -6.4903  128.1925   30.9014 H         1 NBG         0.0587
    105 H39        -2.9611  130.2410   29.9353 H         1 NBG         0.0938
    106 H40        -2.4167  132.3561   28.1392 H         1 NBG         0.2101
    107 H41        -5.3179  133.9081   31.6009 H         1 NBG         0.2100
    108 H42        -7.2172  130.1863   28.7244 H         1 NBG         0.0937
    109 H43        -9.3754  130.1414   27.7067 H         1 NBG         0.0671
    110 H44       -10.5429  129.0341   30.3135 H         1 NBG         0.0647
    111 H45        -9.9811  127.4068   27.7841 H         1 NBG         0.0643
    112 H46        -8.3231  126.2212   29.2463 H         1 NBG         0.0587
    113 H47        -8.6769  127.3749   30.5768 H         1 NBG         0.0587
    114 H48        -9.6216  131.1391   30.3955 H         1 NBG         0.2101
    115 H49       -12.3426  128.6763   28.9321 H         1 NBG         0.2100
    116 H50       -11.7864  126.7359   29.0725 H         1 NBG         0.2100
    117 H51        -6.3862  132.4513   34.8355 H         1 NBG         0.0671
    118 H52        -9.3565  132.6226   34.1857 H         1 NBG         0.0648
    119 H53        -7.6076  135.0448   34.7722 H         1 NBG         0.0647
    120 H54        -8.8969  134.0951   32.1529 H         1 NBG         0.0647
    121 H55        -8.7410  136.3169   31.6626 H         1 NBG         0.0584
    122 H56        -7.0420  135.8654   31.2935 H         1 NBG         0.0584
    123 H57        -7.8741  131.9536   32.2171 H         1 NBG         0.0938
    124 H58        -7.8569  130.6987   35.4218 H         1 NBG         0.2101
    125 H59        -8.7023  131.9088   36.2805 H         1 NBG         0.2100
    126 H60        -9.9111  135.0167   35.2535 H         1 NBG         0.2100
    127 H61        -7.9996  136.8692   33.8055 H         1 NBG         0.2095
@<TRIPOS>BOND
     1    2    1 1  
     2    1    9 1  
     3   13    1 1  
     4    3    2 1  
     5    2   11 1  
     6    4    3 1  
     7    3   10 1  
     8    4    5 1  
     9   12    4 1  
    10    5    6 1  
    11    5   13 1  
    12    6   14 1  
    13    7    8 1  
    14    9    7 am 
    15    7   15 2  
    16   21   12 1  
    17   17   16 1  
    18   16   21 1  
    19   16   22 1  
    20   18   17 1  
    21   17   23 1  
    22   18   19 1  
    23   24   18 1  
    24   19   20 1  
    25   19   25 1  
    26   20   26 1  
    27   25   21 1  
    28   41   24 1  
    29   26   27 1  
    30   27   28 1  
    31   27   35 1  
    32   28   29 1  
    33   28   32 1  
    34   29   30 1  
    35   29   33 1  
    36   31   30 1  
    37   30   34 1  
    38   35   31 1  
    39   37   36 1  
    40   36   41 1  
    41   36   42 1  
    42   38   37 1  
    43   37   43 1  
    44   38   39 1  
    45   44   38 1  
    46   39   40 1  
    47   39   45 1  
    48   40   46 1  
    49   45   41 1  
    50   61   44 1  
    51   46   47 1  
    52   47   48 1  
    53   47   55 1  
    54   48   49 1  
    55   48   52 1  
    56   49   50 1  
    57   49   53 1  
    58   51   50 1  
    59   50   54 1  
    60   55   51 1  
    61   56   57 1  
    62   56   61 1  
    63   56   62 1  
    64   57   58 1  
    65   57   63 1  
    66   58   59 1  
    67   58   64 1  
    68   59   60 1  
    69   59   65 1  
    70   60   66 1  
    71   61   65 1  
    72    1   67 1  
    73    2   68 1  
    74    3   69 1  
    75    4   70 1  
    76    5   71 1  
    77    6   72 1  
    78    6   73 1  
    79    8   74 1  
    80    8   75 1  
    81    8   76 1  
    82    9   77 1  
    83   10   78 1  
    84   11   79 1  
    85   14   80 1  
    86   16   81 1  
    87   17   82 1  
    88   18   83 1  
    89   19   84 1  
    90   20   85 1  
    91   20   86 1  
    92   21   87 1  
    93   22   88 1  
    94   23   89 1  
    95   27   90 1  
    96   28   91 1  
    97   29   92 1  
    98   30   93 1  
    99   31   94 1  
   100   31   95 1  
   101   32   96 1  
   102   33   97 1  
   103   34   98 1  
   104   36   99 1  
   105   37  100 1  
   106   38  101 1  
   107   39  102 1  
   108   40  103 1  
   109   40  104 1  
   110   41  105 1  
   111   42  106 1  
   112   43  107 1  
   113   47  108 1  
   114   48  109 1  
   115   49  110 1  
   116   50  111 1  
   117   51  112 1  
   118   51  113 1  
   119   52  114 1  
   120   53  115 1  
   121   54  116 1  
   122   56  117 1  
   123   57  118 1  
   124   58  119 1  
   125   59  120 1  
   126   60  121 1  
   127   60  122 1  
   128   61  123 1  
   129   62  124 1  
   130   63  125 1  
   131   64  126 1  
   132   66  127 1  
@<TRIPOS>SUBSTRUCTURE
     1 NBG         1

