### 
### Created by X-TOOL on Mon Sep 10 21:12:47 2018
### 

@<TRIPOS>MOLECULE
5prc_ligand
   28    28     1     0     0
SMALL
GAST_HUCK


@<TRIPOS>ATOM
      1 N1        132.1360   70.9300   -2.6790 N.ar      1 ATZ        -0.2288
      2 C2        131.6490   69.8030   -2.2030 C.ar      1 ATZ         0.1794
      3 CL2       131.2140   69.8750   -0.5110 Cl        1 ATZ        -0.0063
      4 N3        131.4490   68.6260   -2.7890 N.ar      1 ATZ        -0.2288
      5 C4        131.8420   68.6520   -4.1050 C.ar      1 ATZ         0.1846
      6 N5        132.3550   69.7100   -4.7360 N.ar      1 ATZ        -0.2218
      7 C6        132.4800   70.8130   -3.9950 C.ar      1 ATZ         0.1844
      8 N7        131.7170   67.5200   -4.8420 N.pl3     1 ATZ        -0.2841
      9 C8        131.1960   66.2100   -4.4520 C.3       1 ATZ         0.0383
     10 C9        131.8540   65.6470   -3.1750 C.3       1 ATZ        -0.0415
     11 C10       129.6910   66.2090   -4.4660 C.3       1 ATZ        -0.0415
     12 N11       132.9920   71.9220   -4.5770 N.pl3     1 ATZ        -0.2869
     13 C12       133.2070   73.2080   -3.9260 C.3       1 ATZ         0.0300
     14 C13       133.8530   74.1130   -4.9060 C.3       1 ATZ        -0.0441
     15 H         132.0354   67.5937   -5.8188 H         1 ATZ         0.1901
     16 H         131.4952   65.5175   -5.2525 H         1 ATZ         0.0560
     17 H         131.4177   64.6649   -2.9402 H         1 ATZ         0.0252
     18 H         131.6770   66.3368   -2.3366 H         1 ATZ         0.0252
     19 H         132.9364   65.5378   -3.3378 H         1 ATZ         0.0252
     20 H         129.3223   65.2158   -4.1701 H         1 ATZ         0.0252
     21 H         129.3336   66.4459   -5.4790 H         1 ATZ         0.0252
     22 H         129.3172   66.9644   -3.7592 H         1 ATZ         0.0252
     23 H         133.2536   71.8508   -5.5707 H         1 ATZ         0.1897
     24 H         133.8597   73.0789   -3.0500 H         1 ATZ         0.0526
     25 H         132.2431   73.6306   -3.6061 H         1 ATZ         0.0526
     26 H         134.0274   75.0939   -4.4397 H         1 ATZ         0.0250
     27 H         133.1973   74.2343   -5.7808 H         1 ATZ         0.0250
     28 H         134.8138   73.6826   -5.2248 H         1 ATZ         0.0250
@<TRIPOS>BOND
     1    1    2 ar 
     2    1    7 ar 
     3    2    3 1  
     4    2    4 ar 
     5    4    5 ar 
     6    5    6 ar 
     7    5    8 1  
     8    6    7 ar 
     9    7   12 1  
    10    8    9 1  
    11    9   10 1  
    12    9   11 1  
    13   12   13 1  
    14   13   14 1  
    15    8   15 1  
    16    9   16 1  
    17   10   17 1  
    18   10   18 1  
    19   10   19 1  
    20   11   20 1  
    21   11   21 1  
    22   11   22 1  
    23   12   23 1  
    24   13   24 1  
    25   13   25 1  
    26   14   26 1  
    27   14   27 1  
    28   14   28 1  
@<TRIPOS>SUBSTRUCTURE
     1 ATZ         1

