### 
### Created by X-TOOL on Tue Oct 16 15:17:54 2018
### 

@<TRIPOS>MOLECULE
5pzm_ligand
   44    47     1     0     0
SMALL
GAST_HUCK


@<TRIPOS>ATOM
      1 C13        18.6910    4.7120   73.4070 C.ar      1 MOL        -0.0418
      2 C17        18.1410    7.5010   74.3830 C.ar      1 MOL        -0.0641
      3 C19        17.6390   13.8770   71.5120 C.ar      1 MOL        -0.0491
      4 C20        17.1390   13.8490   73.8550 C.ar      1 MOL        -0.0491
      5 C22        17.0790   15.8770   72.6350 C.ar      1 MOL         0.1355
      6 C23        17.4030   15.2390   71.4710 C.ar      1 MOL        -0.0248
      7 C24        16.9270   15.2180   73.8290 C.ar      1 MOL        -0.0248
      8 C11        18.5040    3.3530   73.1500 C.ar      1 MOL         0.0096
      9 C12        18.0490    5.6910   72.6400 C.ar      1 MOL        -0.0207
     10 C27        17.2460    5.2750   71.5720 C.ar      1 MOL        -0.0535
     11 C1         17.7520   10.7400   71.7480 C.2       1 MOL         0.0735
     12 C2         17.7020   11.7030   72.7140 C.2       1 MOL         0.1486
     13 C3         17.9760    9.4730   72.4390 C.ar      1 MOL         0.0108
     14 O4         17.8630   11.1520   73.9740 O.3       1 MOL        -0.2425
     15 C5         18.0090    9.7900   73.7890 C.ar      1 MOL         0.1301
     16 C6         17.6290   10.8970   70.2870 C.2       1 MOL         0.1837
     17 C7         18.0840    8.1340   72.0570 C.ar      1 MOL        -0.0600
     18 C8         19.1420    2.3210   74.0280 C.2       1 MOL         0.0627
     19 C9         18.1300    7.1270   73.0310 C.ar      1 MOL        -0.0306
     20 C10        17.5040   13.1600   72.7000 C.ar      1 MOL         0.0219
     21 C14        18.1090    8.8300   74.7760 C.ar      1 MOL        -0.0282
     22 O15        18.6040   10.7200   69.5690 O.2       1 MOL        -0.4007
     23 O16        19.0470    1.1190   73.7850 O.co2     1 MOL        -0.5606
     24 N18        16.4300   11.2390   69.8190 N.am      1 MOL        -0.2943
     25 O21        19.8200    2.7830   75.0540 O.co2     1 MOL        -0.5606
     26 F25        16.9520   17.2310   72.6160 F         1 MOL        -0.1808
     27 C26        17.6920    2.9700   72.0840 C.ar      1 MOL        -0.0487
     28 C28        17.0740    3.9270   71.2970 C.ar      1 MOL        -0.0589
     29 C29        16.1660   11.3940   68.3970 C.3       1 MOL         0.0182
     30 H1         19.3459    5.0150   74.2160 H         1 MOL         0.0648
     31 H2         18.1755    6.7283   75.1425 H         1 MOL         0.0557
     32 H3         17.9335   13.3589   70.6065 H         1 MOL         0.0635
     33 H4         17.0194   13.3068   74.7860 H         1 MOL         0.0635
     34 H5         17.4733   15.7870   70.5383 H         1 MOL         0.0612
     35 H6         16.6483   15.7546   74.7287 H         1 MOL         0.0612
     36 H7         16.7527    6.0153   70.9525 H         1 MOL         0.0633
     37 H8         18.1323    7.8731   71.0060 H         1 MOL         0.0557
     38 H9         18.1608    9.1061   75.8230 H         1 MOL         0.0567
     39 H10        15.6852   11.3947   70.4678 H         1 MOL         0.1829
     40 H11        17.5435    1.9178   71.8700 H         1 MOL         0.0642
     41 H12        16.4533    3.6211   70.4626 H         1 MOL         0.0621
     42 H13        15.1138   11.6783   68.2483 H         1 MOL         0.0482
     43 H14        16.3652   10.4431   67.8813 H         1 MOL         0.0482
     44 H15        16.8192   12.1779   67.9861 H         1 MOL         0.0482
@<TRIPOS>BOND
     1    1    8 ar 
     2    9    1 ar 
     3    2   19 ar 
     4   21    2 ar 
     5    3    6 ar 
     6   20    3 ar 
     7    4    7 ar 
     8   20    4 ar 
     9    6    5 ar 
    10    7    5 ar 
    11    5   26 1  
    12    8   18 1  
    13    8   27 ar 
    14    9   10 ar 
    15   19    9 1  
    16   10   28 ar 
    17   12   11 2  
    18   13   11 1  
    19   11   16 1  
    20   14   12 1  
    21   12   20 1  
    22   15   13 ar 
    23   13   17 ar 
    24   15   14 1  
    25   15   21 ar 
    26   16   22 2  
    27   16   24 am 
    28   17   19 ar 
    29   18   23 ar 
    30   18   25 ar 
    31   24   29 1  
    32   27   28 ar 
    33    1   30 1  
    34    2   31 1  
    35    3   32 1  
    36    4   33 1  
    37    6   34 1  
    38    7   35 1  
    39   10   36 1  
    40   17   37 1  
    41   21   38 1  
    42   24   39 1  
    43   27   40 1  
    44   28   41 1  
    45   29   42 1  
    46   29   43 1  
    47   29   44 1  
@<TRIPOS>SUBSTRUCTURE
     1 MOL         1

