### 
### Created by X-TOOL on Mon Sep 10 21:13:32 2018
### 

@<TRIPOS>MOLECULE
5pzn_ligand
   58    61     1     0     0
SMALL
GAST_HUCK


@<TRIPOS>ATOM
      1 C13        23.2340    8.0220   14.9430 C.ar      1 8XP        -0.0187
      2 C18        23.0420    6.9310   15.7960 C.ar      1 8XP        -0.0519
      3 C17        20.6550    7.2510   15.7200 C.ar      1 8XP        -0.0431
      4 C16        17.2690    9.1690   13.5390 C.3       1 8XP         0.0442
      5 C19        21.7620    6.5520   16.1810 C.ar      1 8XP        -0.0570
      6 C20        17.5590    9.6560   12.1210 C.3       1 8XP        -0.0397
      7 C21        16.1460    8.1340   13.5150 C.3       1 8XP        -0.0397
      8 C22        16.8750   10.3480   14.4270 C.3       1 8XP        -0.0397
      9 C23        30.0600   11.0360   15.0810 C.ar      1 8XP         0.0219
     10 C24        28.2200    9.4160   17.3340 C.2       1 8XP         0.1837
     11 C12        20.8190    8.3200   14.8400 C.ar      1 8XP         0.0493
     12 C27        29.7430    8.5230   19.0220 C.3       1 8XP         0.0182
     13 C1         24.5960    8.4730   14.5410 C.ar      1 8XP        -0.0302
     14 C2         24.8540    8.8900   13.2260 C.ar      1 8XP        -0.0640
     15 C3         26.0550    9.4790   12.8640 C.ar      1 8XP        -0.0282
     16 C4         27.0010    9.6580   13.8540 C.ar      1 8XP         0.1301
     17 C5         26.8080    9.2330   15.1610 C.ar      1 8XP         0.0108
     18 C6         25.6030    8.6230   15.5040 C.ar      1 8XP        -0.0600
     19 O7         28.2130   10.3150   13.7280 O.3       1 8XP        -0.2425
     20 C8         28.8000   10.2940   14.9810 C.2       1 8XP         0.1486
     21 C9         28.0040    9.6490   15.8850 C.2       1 8XP         0.0735
     22 C10        19.7050    9.1150   14.2190 C.2       1 8XP         0.2052
     23 N11        18.4930    8.5300   14.0900 N.am      1 8XP        -0.2810
     24 C14        22.1090    8.7060   14.4730 C.ar      1 8XP        -0.0361
     25 O15        19.9000   10.2650   13.8270 O.2       1 8XP        -0.3846
     26 O25        27.4460    9.8860   18.1670 O.2       1 8XP        -0.4007
     27 N26        29.2890    8.6880   17.6470 N.am      1 8XP        -0.2943
     28 C28        30.8230   11.3250   13.9470 C.ar      1 8XP        -0.0491
     29 C29        31.9800   12.0800   14.0450 C.ar      1 8XP        -0.0248
     30 C30        32.3570   12.5350   15.2820 C.ar      1 8XP         0.1355
     31 C31        31.6640   12.2430   16.4250 C.ar      1 8XP        -0.0248
     32 C32        30.5030   11.5020   16.3210 C.ar      1 8XP        -0.0491
     33 F33        33.4030   13.3930   15.3670 F         1 8XP        -0.1808
     34 H1         23.8991    6.3761   16.1601 H         1 8XP         0.0647
     35 H2         19.6610    6.9653   16.0448 H         1 8XP         0.0659
     36 H3         21.6271    5.7058   16.8450 H         1 8XP         0.0626
     37 H4         16.6581   10.1307   11.7049 H         1 8XP         0.0254
     38 H5         17.8471    8.8012   11.4914 H         1 8XP         0.0254
     39 H6         18.3806   10.3870   12.1452 H         1 8XP         0.0254
     40 H7         15.9436    7.7888   14.5396 H         1 8XP         0.0254
     41 H8         16.4488    7.2788   12.8930 H         1 8XP         0.0254
     42 H9         15.2368    8.5891   13.0952 H         1 8XP         0.0254
     43 H10        17.6895   11.0872   14.4377 H         1 8XP         0.0254
     44 H11        16.6909    9.9905   15.4508 H         1 8XP         0.0254
     45 H12        15.9610   10.8153   14.0318 H         1 8XP         0.0254
     46 H13        30.6386    7.8845   19.0383 H         1 8XP         0.0482
     47 H14        28.9465    8.0526   19.6172 H         1 8XP         0.0482
     48 H15        29.9867    9.5073   19.4483 H         1 8XP         0.0482
     49 H16        24.0902    8.7469   12.4702 H         1 8XP         0.0557
     50 H17        26.2447    9.7876   11.8423 H         1 8XP         0.0567
     51 H18        25.4447    8.2648   16.5148 H         1 8XP         0.0557
     52 H19        18.4125    7.5804   14.3930 H         1 8XP         0.1851
     53 H20        22.2413    9.5534   13.8101 H         1 8XP         0.0666
     54 H21        29.7985    8.2385   16.9133 H         1 8XP         0.1829
     55 H22        30.5058   10.9540   12.9791 H         1 8XP         0.0635
     56 H23        32.5725   12.3055   13.1657 H         1 8XP         0.0612
     57 H24        32.0182   12.5855   17.3906 H         1 8XP         0.0612
     58 H25        29.9285   11.2793   17.2128 H         1 8XP         0.0635
@<TRIPOS>BOND
     1    1    2 ar 
     2    1   13 1  
     3   24    1 ar 
     4    5    2 ar 
     5    3    5 ar 
     6   11    3 ar 
     7    4    6 1  
     8    4    7 1  
     9    4    8 1  
    10   23    4 1  
    11   20    9 1  
    12    9   28 ar 
    13    9   32 ar 
    14   21   10 1  
    15   10   26 2  
    16   10   27 am 
    17   22   11 1  
    18   11   24 ar 
    19   27   12 1  
    20   13   14 ar 
    21   13   18 ar 
    22   14   15 ar 
    23   15   16 ar 
    24   17   16 ar 
    25   16   19 1  
    26   18   17 ar 
    27   17   21 1  
    28   20   19 1  
    29   21   20 2  
    30   22   23 am 
    31   22   25 2  
    32   28   29 ar 
    33   29   30 ar 
    34   30   31 ar 
    35   30   33 1  
    36   31   32 ar 
    37    2   34 1  
    38    3   35 1  
    39    5   36 1  
    40    6   37 1  
    41    6   38 1  
    42    6   39 1  
    43    7   40 1  
    44    7   41 1  
    45    7   42 1  
    46    8   43 1  
    47    8   44 1  
    48    8   45 1  
    49   12   46 1  
    50   12   47 1  
    51   12   48 1  
    52   14   49 1  
    53   15   50 1  
    54   18   51 1  
    55   23   52 1  
    56   24   53 1  
    57   27   54 1  
    58   28   55 1  
    59   29   56 1  
    60   31   57 1  
    61   32   58 1  
@<TRIPOS>SUBSTRUCTURE
     1 8XP         1

