### 
### Created by X-TOOL on Mon Sep 10 21:13:31 2018
### 

@<TRIPOS>MOLECULE
5q0d_ligand
   67    71     1     0     0
SMALL
GAST_HUCK


@<TRIPOS>ATOM
      1 C13        37.7100  -17.0670   27.9770 C.2       1 9EY        -0.0388
      2 C18        39.3210  -22.0690   27.7680 C.3       1 9EY        -0.0137
      3 C17        39.7410  -20.9110   28.6950 C.3       1 9EY         0.1165
      4 C15        39.0270  -18.7060   29.4130 C.2       1 9EY         0.1910
      5 C19        40.1100  -23.3990   28.0280 C.3       1 9EY        -0.0466
      6 C20        40.1920  -23.8910   29.5030 C.3       1 9EY        -0.0353
      7 C22        41.2350  -20.7630   28.6700 C.2       1 9EY         0.1375
      8 C24        43.2680  -20.6740   27.8740 C.2       1 9EY         0.0292
      9 C34        48.7380  -22.0780   32.8530 C.2       1 9EY         0.3495
     10 C27        44.3760  -21.4180   30.1090 C.ar      1 9EY        -0.0212
     11 CL1        33.8220  -14.0500   29.5580 Cl        1 9EY        -0.0754
     12 C2         36.7570  -13.5610   26.8840 C.ar      1 9EY        -0.0176
     13 C3         35.6410  -13.3410   27.6810 C.ar      1 9EY        -0.0476
     14 C4         35.2190  -14.3340   28.5420 C.ar      1 9EY         0.0380
     15 C5         35.8760  -15.5490   28.6220 C.ar      1 9EY        -0.0382
     16 C6         36.9970  -15.7910   27.8070 C.ar      1 9EY         0.0262
     17 C7         37.4290  -14.7810   26.9310 C.ar      1 9EY         0.1410
     18 N8         38.5330  -14.9950   26.0480 N.pl3     1 9EY        -0.0913
     19 C9         38.6330  -14.9600   24.7140 C.2       1 9EY         0.1690
     20 N10        39.8520  -15.2550   24.3570 N.2       1 9EY        -0.2058
     21 N11        40.5280  -15.4720   25.5120 N.2       1 9EY        -0.1365
     22 N12        39.7500  -15.3240   26.5380 N.2       1 9EY        -0.0466
     23 C14        38.2700  -17.4680   29.1170 C.2       1 9EY         0.0072
     24 O16        39.6830  -18.8360   30.4560 O.2       1 9EY        -0.3927
     25 N21        39.0200  -19.6590   28.4530 N.am      1 9EY        -0.2688
     26 N23        41.9530  -20.5340   27.5510 N.pl3     1 9EY        -0.2633
     27 C25        43.2990  -20.9920   29.2030 C.2       1 9EY        -0.0044
     28 N26        42.0150  -21.0220   29.6990 N.2       1 9EY        -0.3327
     29 C28        45.5470  -20.6550   30.1600 C.ar      1 9EY        -0.0842
     30 C29        46.5710  -20.9810   31.0310 C.ar      1 9EY        -0.0583
     31 C30        46.4410  -22.0720   31.8910 C.ar      1 9EY         0.0525
     32 C31        45.2920  -22.8600   31.8270 C.ar      1 9EY        -0.0236
     33 C32        44.2620  -22.5550   30.9470 C.ar      1 9EY         0.0584
     34 N33        47.4450  -22.4970   32.8000 N.am      1 9EY        -0.2133
     35 O35        49.2970  -21.3810   32.0330 O.2       1 9EY        -0.3669
     36 O36        49.3250  -22.5590   33.9660 O.3       1 9EY        -0.2623
     37 C37        50.7520  -22.3200   34.0890 C.3       1 9EY         0.0668
     38 C38        41.3990  -24.7810   29.8350 C.3       1 9EY         0.0433
     39 C39        42.7350  -24.0660   29.7410 C.2       1 9EY         0.2039
     40 N40        43.1160  -23.4020   30.8580 N.am      1 9EY        -0.2367
     41 O41        43.3890  -24.0490   28.7000 O.2       1 9EY        -0.3846
     42 H1         37.7847  -17.7269   27.1139 H         1 9EY         0.0739
     43 H2         39.4932  -21.7605   26.7263 H         1 9EY         0.0315
     44 H3         38.2494  -22.2650   27.9200 H         1 9EY         0.0315
     45 H4         39.4729  -21.2160   29.7173 H         1 9EY         0.0795
     46 H5         41.1392  -23.2507   27.6692 H         1 9EY         0.0269
     47 H6         39.6271  -24.1927   27.4391 H         1 9EY         0.0269
     48 H7         39.2783  -24.4634   29.7210 H         1 9EY         0.0290
     49 H8         40.2342  -23.0055   30.1542 H         1 9EY         0.0290
     50 H9         44.1220  -20.5565   27.2086 H         1 9EY         0.0770
     51 H10        37.1077  -12.7784   26.2209 H         1 9EY         0.0602
     52 H11        35.1069  -12.3992   27.6275 H         1 9EY         0.0635
     53 H12        35.5285  -16.3114   29.3098 H         1 9EY         0.0642
     54 H13        37.8197  -14.7213   24.0302 H         1 9EY         0.1430
     55 H14        38.1540  -16.7838   29.9562 H         1 9EY         0.0628
     56 H15        38.5312  -19.5114   27.5932 H         1 9EY         0.1870
     57 H16        41.5754  -20.2967   26.6225 H         1 9EY         0.2370
     58 H17        45.6537  -19.7959   29.5076 H         1 9EY         0.0509
     59 H18        47.4775  -20.3868   31.0455 H         1 9EY         0.0383
     60 H19        45.2016  -23.7245   32.4747 H         1 9EY         0.0370
     61 H20        47.1713  -23.1805   33.4767 H         1 9EY         0.2271
     62 H21        51.1168  -22.7554   35.0310 H         1 9EY         0.0575
     63 H22        50.9439  -21.2369   34.0872 H         1 9EY         0.0575
     64 H23        51.2763  -22.7867   33.2421 H         1 9EY         0.0575
     65 H24        41.4090  -25.6273   29.1324 H         1 9EY         0.0508
     66 H25        41.2795  -25.1580   30.8614 H         1 9EY         0.0508
     67 H26        42.5551  -23.5127   31.6785 H         1 9EY         0.2263
@<TRIPOS>BOND
     1    1   16 1  
     2   23    1 2  
     3    3    2 1  
     4    2    5 1  
     5    7    3 1  
     6    3   25 1  
     7    4   23 1  
     8    4   24 2  
     9   25    4 am 
    10    5    6 1  
    11    6   38 1  
    12    7   26 1  
    13   28    7 2  
    14    8   26 1  
    15   27    8 2  
    16   34    9 am 
    17    9   35 2  
    18    9   36 1  
    19   10   27 1  
    20   29   10 ar 
    21   10   33 ar 
    22   14   11 1  
    23   12   13 ar 
    24   17   12 ar 
    25   14   13 ar 
    26   15   14 ar 
    27   16   15 ar 
    28   16   17 ar 
    29   17   18 1  
    30   18   19 1  
    31   18   22 1  
    32   19   20 2  
    33   21   20 1  
    34   22   21 2  
    35   27   28 1  
    36   30   29 ar 
    37   31   30 ar 
    38   31   32 ar 
    39   31   34 1  
    40   32   33 ar 
    41   33   40 1  
    42   36   37 1  
    43   38   39 1  
    44   39   40 am 
    45   39   41 2  
    46    1   42 1  
    47    2   43 1  
    48    2   44 1  
    49    3   45 1  
    50    5   46 1  
    51    5   47 1  
    52    6   48 1  
    53    6   49 1  
    54    8   50 1  
    55   12   51 1  
    56   13   52 1  
    57   15   53 1  
    58   19   54 1  
    59   23   55 1  
    60   25   56 1  
    61   26   57 1  
    62   29   58 1  
    63   30   59 1  
    64   32   60 1  
    65   34   61 1  
    66   37   62 1  
    67   37   63 1  
    68   37   64 1  
    69   38   65 1  
    70   38   66 1  
    71   40   67 1  
@<TRIPOS>SUBSTRUCTURE
     1 9EY         1

