### 
### Created by X-TOOL on Mon Sep 10 21:13:31 2018
### 

@<TRIPOS>MOLECULE
5q0e_ligand
   73    77     1     0     0
SMALL
GAST_HUCK


@<TRIPOS>ATOM
      1 C13        37.7920  -17.1240   28.1300 C.2       1 9FD        -0.0388
      2 C18        39.8750  -20.9410   28.6050 C.3       1 9FD         0.1165
      3 C15        39.2370  -18.7560   29.4390 C.2       1 9FD         0.1910
      4 C19        41.3710  -20.8720   28.6730 C.2       1 9FD         0.1375
      5 C20        39.4240  -21.9370   27.5270 C.3       1 9FD        -0.0138
      6 C21        44.4630  -21.3560   30.3330 C.ar      1 9FD        -0.0212
      7 C22        45.5890  -20.5330   30.4100 C.ar      1 9FD        -0.0842
      8 C23        46.6250  -20.8220   31.2830 C.ar      1 9FD        -0.0583
      9 C24        46.5530  -21.9380   32.1180 C.ar      1 9FD         0.0525
     10 C34        41.1480  -25.2740   28.9060 C.3       1 9FD        -0.0265
     11 C33        40.1780  -24.0710   28.9250 C.3       1 9FD        -0.0481
     12 CL1        33.8130  -14.1530   29.6160 Cl        1 9FD        -0.0754
     13 C2         36.9040  -13.5760   27.1230 C.ar      1 9FD        -0.0176
     14 C3         35.7630  -13.3690   27.8930 C.ar      1 9FD        -0.0476
     15 C4         35.2760  -14.4020   28.6750 C.ar      1 9FD         0.0380
     16 C5         35.9120  -15.6330   28.7250 C.ar      1 9FD        -0.0382
     17 C6         37.0690  -15.8530   27.9590 C.ar      1 9FD         0.0262
     18 C7         37.5330  -14.8250   27.1190 C.ar      1 9FD         0.1410
     19 N8         38.5830  -15.0710   26.1770 N.pl3     1 9FD        -0.0913
     20 C9         38.6070  -15.0540   24.8390 C.2       1 9FD         0.1690
     21 N10        39.8000  -15.3740   24.4160 N.2       1 9FD        -0.2058
     22 N11        40.5370  -15.5990   25.5360 N.2       1 9FD        -0.1365
     23 N12        39.8190  -15.4250   26.6040 N.2       1 9FD        -0.0466
     24 C14        38.4450  -17.5200   29.2230 C.2       1 9FD         0.0072
     25 O16        39.8000  -19.0010   30.5030 O.2       1 9FD        -0.3927
     26 N17        39.2710  -19.6310   28.4150 N.am      1 9FD        -0.2688
     27 C25        45.4290  -22.7580   32.0570 C.ar      1 9FD        -0.0236
     28 C26        44.3920  -22.4890   31.1720 C.ar      1 9FD         0.0584
     29 N27        42.1620  -20.6150   27.6080 N.pl3     1 9FD        -0.2633
     30 C28        43.4600  -20.7180   28.0250 C.2       1 9FD         0.0292
     31 C29        43.4110  -21.0430   29.3510 C.2       1 9FD        -0.0044
     32 N30        42.0820  -21.1350   29.7510 N.2       1 9FD        -0.3327
     33 N31        43.3350  -23.4170   31.0140 N.am      1 9FD        -0.2367
     34 C32        40.0670  -23.3450   27.5610 C.3       1 9FD        -0.0483
     35 C35        42.1140  -25.2930   30.0960 C.3       1 9FD         0.0459
     36 C36        43.2220  -24.2710   29.9710 C.2       1 9FD         0.2042
     37 N37        47.5900  -22.3650   32.9980 N.am      1 9FD        -0.2133
     38 C38        48.8600  -21.8780   33.0800 C.2       1 9FD         0.3495
     39 O39        49.4620  -22.3640   34.1840 O.3       1 9FD        -0.2623
     40 O40        49.3880  -21.1190   32.2930 O.2       1 9FD        -0.3669
     41 C41        50.8450  -21.9730   34.3930 C.3       1 9FD         0.0668
     42 O42        43.9630  -24.2450   28.9890 O.2       1 9FD        -0.3845
     43 C43        40.4150  -26.6100   28.8200 C.3       1 9FD        -0.0603
     44 H1         37.7936  -17.8068   27.2817 H         1 9FD         0.0739
     45 H2         39.5210  -21.3228   29.5740 H         1 9FD         0.0795
     46 H3         39.6511  -21.4916   26.5472 H         1 9FD         0.0315
     47 H4         38.3363  -22.0660   27.6279 H         1 9FD         0.0315
     48 H5         45.6531  -19.6552   29.7772 H         1 9FD         0.0509
     49 H6         47.4962  -20.1779   31.3178 H         1 9FD         0.0383
     50 H7         41.7564  -25.1740   27.9950 H         1 9FD         0.0323
     51 H8         40.5329  -23.3494   29.6756 H         1 9FD         0.0269
     52 H9         39.1790  -24.4337   29.2086 H         1 9FD         0.0269
     53 H10        37.3062  -12.7665   26.5246 H         1 9FD         0.0602
     54 H11        35.2609  -12.4084   27.8803 H         1 9FD         0.0635
     55 H12        35.5177  -16.4234   29.3533 H         1 9FD         0.0642
     56 H13        37.7597  -14.8102   24.1998 H         1 9FD         0.1430
     57 H14        38.3894  -16.8431   30.0743 H         1 9FD         0.0628
     58 H15        38.8827  -19.3811   27.5280 H         1 9FD         0.1870
     59 H16        45.3620  -23.6202   32.7106 H         1 9FD         0.0370
     60 H17        41.8449  -20.3837   26.6557 H         1 9FD         0.2370
     61 H18        44.3540  -20.5705   27.4210 H         1 9FD         0.0770
     62 H19        42.6261  -23.4430   31.7188 H         1 9FD         0.2263
     63 H20        41.0869  -23.2466   27.1610 H         1 9FD         0.0268
     64 H21        39.4732  -23.9900   26.8966 H         1 9FD         0.0268
     65 H22        42.5657  -26.2936   30.1655 H         1 9FD         0.0510
     66 H23        41.5448  -25.0831   31.0136 H         1 9FD         0.0510
     67 H24        47.3589  -23.1070   33.6273 H         1 9FD         0.2271
     68 H25        51.2194  -22.4312   35.3203 H         1 9FD         0.0575
     69 H26        50.9083  -20.8778   34.4737 H         1 9FD         0.0575
     70 H27        51.4549  -22.3139   33.5434 H         1 9FD         0.0575
     71 H28        39.7225  -26.5939   27.9655 H         1 9FD         0.0234
     72 H29        39.8485  -26.7778   29.7478 H         1 9FD         0.0234
     73 H30        41.1456  -27.4211   28.6846 H         1 9FD         0.0234
@<TRIPOS>BOND
     1    1   17 1  
     2   24    1 2  
     3    4    2 1  
     4    2    5 1  
     5    2   26 1  
     6    3   24 1  
     7    3   25 2  
     8   26    3 am 
     9   29    4 1  
    10    4   32 2  
    11    5   34 1  
    12    6    7 ar 
    13    6   28 ar 
    14   31    6 1  
    15    7    8 ar 
    16    8    9 ar 
    17   27    9 ar 
    18    9   37 1  
    19   11   10 1  
    20   10   35 1  
    21   10   43 1  
    22   34   11 1  
    23   15   12 1  
    24   13   14 ar 
    25   18   13 ar 
    26   15   14 ar 
    27   16   15 ar 
    28   17   16 ar 
    29   17   18 ar 
    30   18   19 1  
    31   19   20 1  
    32   19   23 1  
    33   20   21 2  
    34   22   21 1  
    35   23   22 2  
    36   28   27 ar 
    37   28   33 1  
    38   30   29 1  
    39   30   31 2  
    40   31   32 1  
    41   33   36 am 
    42   35   36 1  
    43   36   42 2  
    44   37   38 am 
    45   38   39 1  
    46   38   40 2  
    47   39   41 1  
    48    1   44 1  
    49    2   45 1  
    50    5   46 1  
    51    5   47 1  
    52    7   48 1  
    53    8   49 1  
    54   10   50 1  
    55   11   51 1  
    56   11   52 1  
    57   13   53 1  
    58   14   54 1  
    59   16   55 1  
    60   20   56 1  
    61   24   57 1  
    62   26   58 1  
    63   27   59 1  
    64   29   60 1  
    65   30   61 1  
    66   33   62 1  
    67   34   63 1  
    68   34   64 1  
    69   35   65 1  
    70   35   66 1  
    71   37   67 1  
    72   41   68 1  
    73   41   69 1  
    74   41   70 1  
    75   43   71 1  
    76   43   72 1  
    77   43   73 1  
@<TRIPOS>SUBSTRUCTURE
     1 9FD         1

