### 
### Created by X-TOOL on Mon Sep 10 21:13:32 2018
### 

@<TRIPOS>MOLECULE
5q0f_ligand
   71    75     1     0     0
SMALL
GAST_HUCK


@<TRIPOS>ATOM
      1 C13        37.7560  -16.9930   28.0380 C.2       1 9FA        -0.0388
      2 C18        41.1880  -20.7750   28.6380 C.2       1 9FA         0.1393
      3 C17        39.6910  -20.8870   28.5600 C.3       1 9FA         0.1229
      4 C15        39.0370  -18.6870   29.4250 C.2       1 9FA         0.1911
      5 C19        39.2830  -21.9100   27.4870 C.3       1 9FA         0.0028
      6 C20        44.2990  -21.2340   30.2640 C.ar      1 9FA        -0.0212
      7 C21        45.4110  -20.3910   30.3710 C.ar      1 9FA        -0.0842
      8 C22        46.4360  -20.6730   31.2580 C.ar      1 9FA        -0.0583
      9 C23        46.3530  -21.7850   32.0960 C.ar      1 9FA         0.0525
     10 C24        45.2590  -22.6420   31.9890 C.ar      1 9FA        -0.0236
     11 C34        41.9820  -25.1810   29.9670 C.3       1 9FA         0.0523
     12 C27        43.2660  -20.5190   28.0020 C.2       1 9FA         0.0292
     13 C33        41.0300  -25.2180   28.7540 C.3       1 9FA        -0.0100
     14 CL1        33.8070  -14.0650   29.6160 Cl        1 9FA        -0.0754
     15 C2         36.7460  -13.4950   26.9670 C.ar      1 9FA        -0.0176
     16 C3         35.6290  -13.2990   27.7680 C.ar      1 9FA        -0.0476
     17 C4         35.2200  -14.3080   28.6180 C.ar      1 9FA         0.0380
     18 C5         35.8930  -15.5130   28.6840 C.ar      1 9FA        -0.0382
     19 C6         37.0180  -15.7290   27.8690 C.ar      1 9FA         0.0262
     20 C7         37.4330  -14.7060   26.9970 C.ar      1 9FA         0.1410
     21 N8         38.5230  -14.9030   26.0940 N.pl3     1 9FA        -0.0913
     22 C9         38.5900  -14.9040   24.7580 C.2       1 9FA         0.1690
     23 N10        39.7910  -15.2420   24.3770 N.2       1 9FA        -0.2058
     24 N11        40.4940  -15.4350   25.5200 N.2       1 9FA        -0.1365
     25 N12        39.7470  -15.2410   26.5630 N.2       1 9FA        -0.0466
     26 C14        38.2980  -17.4260   29.1820 C.2       1 9FA         0.0072
     27 O16        39.6560  -18.8900   30.4770 O.2       1 9FA        -0.3927
     28 C25        44.2420  -22.3890   31.0760 C.ar      1 9FA         0.0584
     29 N26        41.9710  -20.4520   27.5860 N.pl3     1 9FA        -0.2632
     30 C28        43.2290  -20.8890   29.3150 C.2       1 9FA        -0.0044
     31 N29        41.9040  -21.0380   29.7110 N.2       1 9FA        -0.3325
     32 N30        43.1770  -23.3120   30.9270 N.am      1 9FA        -0.2366
     33 C31        40.0590  -23.2120   27.5730 C.2       1 9FA        -0.0936
     34 C32        40.2070  -23.9600   28.6590 C.2       1 9FA        -0.0934
     35 C35        43.0370  -24.1000   29.8430 C.2       1 9FA         0.2059
     36 N36        47.3570  -22.1820   33.0190 N.am      1 9FA        -0.2133
     37 C37        48.6390  -21.7280   33.0980 C.2       1 9FA         0.3495
     38 O38        49.2240  -22.2140   34.2140 O.3       1 9FA        -0.2623
     39 O39        49.1980  -21.0190   32.2870 O.2       1 9FA        -0.3669
     40 C40        50.6670  -22.0470   34.3160 C.3       1 9FA         0.0668
     41 O41        43.7070  -23.9650   28.8190 O.2       1 9FA        -0.3844
     42 C42        40.1850  -26.4930   28.7870 C.3       1 9FA        -0.0536
     43 N43        39.0360  -19.5820   28.4130 N.am      1 9FA        -0.2673
     44 H1         37.8696  -17.6268   27.1597 H         1 9FA         0.0739
     45 H2         39.3519  -21.2926   29.5246 H         1 9FA         0.0816
     46 H3         39.4566  -21.4649   26.4962 H         1 9FA         0.0438
     47 H4         38.2125  -22.1331   27.6063 H         1 9FA         0.0438
     48 H5         45.4707  -19.5043   29.7503 H         1 9FA         0.0509
     49 H6         47.3058  -20.0275   31.3014 H         1 9FA         0.0383
     50 H7         45.2006  -23.5171   32.6261 H         1 9FA         0.0370
     51 H8         42.4841  -26.1561   30.0515 H         1 9FA         0.0530
     52 H9         41.3898  -24.9936   30.8748 H         1 9FA         0.0530
     53 H10        44.1545  -20.3174   27.4054 H         1 9FA         0.0770
     54 H11        41.6507  -25.2633   27.8470 H         1 9FA         0.0445
     55 H12        37.0858  -12.6996   26.3135 H         1 9FA         0.0602
     56 H13        35.0833  -12.3633   27.7267 H         1 9FA         0.0635
     57 H14        35.5549  -16.2887   29.3615 H         1 9FA         0.0642
     58 H15        37.7661  -14.6595   24.0892 H         1 9FA         0.1430
     59 H16        38.1814  -16.7691   30.0427 H         1 9FA         0.0628
     60 H17        41.6475  -20.2007   26.6410 H         1 9FA         0.2370
     61 H18        42.4992  -23.3816   31.6590 H         1 9FA         0.2263
     62 H19        40.5377  -23.5641   26.6604 H         1 9FA         0.0453
     63 H20        39.6883  -23.6362   29.5601 H         1 9FA         0.0454
     64 H21        47.0919  -22.8756   33.6889 H         1 9FA         0.2271
     65 H22        51.0203  -22.4811   35.2629 H         1 9FA         0.0575
     66 H23        50.9150  -20.9757   34.2888 H         1 9FA         0.0575
     67 H24        51.1558  -22.5581   33.4734 H         1 9FA         0.0575
     68 H25        39.5106  -26.5085   27.9181 H         1 9FA         0.0253
     69 H26        39.5910  -26.5154   29.7126 H         1 9FA         0.0253
     70 H27        40.8458  -27.3718   28.7539 H         1 9FA         0.0253
     71 H28        38.5827  -19.3520   27.5518 H         1 9FA         0.1872
@<TRIPOS>BOND
     1    1   19 1  
     2   26    1 2  
     3    2    3 1  
     4    2   29 1  
     5   31    2 2  
     6    3    5 1  
     7    3   43 1  
     8    4   26 1  
     9    4   27 2  
    10   43    4 am 
    11    5   33 1  
    12    6    7 ar 
    13   28    6 ar 
    14    6   30 1  
    15    7    8 ar 
    16    9    8 ar 
    17   10    9 ar 
    18    9   36 1  
    19   28   10 ar 
    20   11   13 1  
    21   35   11 1  
    22   12   29 1  
    23   30   12 2  
    24   13   34 1  
    25   13   42 1  
    26   17   14 1  
    27   15   16 ar 
    28   20   15 ar 
    29   17   16 ar 
    30   18   17 ar 
    31   19   18 ar 
    32   19   20 ar 
    33   20   21 1  
    34   21   22 1  
    35   21   25 1  
    36   22   23 2  
    37   24   23 1  
    38   25   24 2  
    39   32   28 1  
    40   30   31 1  
    41   32   35 am 
    42   33   34 2  
    43   35   41 2  
    44   36   37 am 
    45   37   38 1  
    46   37   39 2  
    47   38   40 1  
    48    1   44 1  
    49    3   45 1  
    50    5   46 1  
    51    5   47 1  
    52    7   48 1  
    53    8   49 1  
    54   10   50 1  
    55   11   51 1  
    56   11   52 1  
    57   12   53 1  
    58   13   54 1  
    59   15   55 1  
    60   16   56 1  
    61   18   57 1  
    62   22   58 1  
    63   26   59 1  
    64   29   60 1  
    65   32   61 1  
    66   33   62 1  
    67   34   63 1  
    68   36   64 1  
    69   40   65 1  
    70   40   66 1  
    71   40   67 1  
    72   42   68 1  
    73   42   69 1  
    74   42   70 1  
    75   43   71 1  
@<TRIPOS>SUBSTRUCTURE
     1 9FA         1

