### 
### Created by X-TOOL on Mon Sep 10 21:13:32 2018
### 

@<TRIPOS>MOLECULE
5q0g_ligand
   73    77     1     0     0
SMALL
GAST_HUCK


@<TRIPOS>ATOM
      1 C13        46.7490  -20.9280   31.0340 C.ar      1 9F7        -0.0583
      2 C18        48.8900  -22.0050   32.9840 C.2       1 9F7         0.3495
      3 C16        44.3820  -22.5010   31.0080 C.ar      1 9F7         0.0584
      4 C15        45.4290  -22.8390   31.8650 C.ar      1 9F7        -0.0236
      5 C21        50.8210  -22.3080   34.4890 C.3       1 9F7         0.0668
      6 C22        41.4170  -24.8260   29.8620 C.3       1 9F7         0.0544
      7 C23        42.7780  -24.0300   29.8700 C.2       1 9F7         0.2070
      8 C11        44.5280  -21.3240   30.1470 C.ar      1 9F7        -0.0212
      9 C12        45.7050  -20.5850   30.1900 C.ar      1 9F7        -0.0842
     10 C27        40.4990  -27.0620   29.0700 C.3       1 9F7        -0.0629
     11 C33        36.8380  -13.6550   26.8840 C.ar      1 9F7        -0.0176
     12 C1         39.9210  -20.9440   28.6280 C.3       1 9F7         0.1165
     13 C2         39.4980  -22.1000   27.7150 C.3       1 9F7        -0.0137
     14 C3         40.2390  -23.4330   27.9890 C.3       1 9F7        -0.0463
     15 C4         40.1970  -23.9890   29.4380 C.3       1 9F7        -0.0325
     16 N5         39.1450  -19.7060   28.3840 N.am      1 9F7        -0.2688
     17 C6         41.4310  -20.7300   28.5630 C.2       1 9F7         0.1375
     18 N7         42.2440  -20.4640   27.4580 N.pl3     1 9F7        -0.2633
     19 C8         43.5610  -20.5630   27.8900 C.2       1 9F7         0.0292
     20 C9         43.4930  -20.8970   29.2370 C.2       1 9F7        -0.0044
     21 N10        42.1820  -20.9550   29.6480 N.2       1 9F7        -0.3327
     22 C14        46.6200  -22.0440   31.9030 C.ar      1 9F7         0.0525
     23 N17        47.5930  -22.4670   32.8550 N.am      1 9F7        -0.2133
     24 O19        49.5090  -21.2610   32.2440 O.2       1 9F7        -0.3669
     25 O20        49.4720  -22.6000   34.0980 O.3       1 9F7        -0.2623
     26 N24        43.1920  -23.2740   30.9630 N.am      1 9F7        -0.2365
     27 O25        43.5070  -24.0620   28.8860 O.2       1 9F7        -0.3843
     28 C26        41.6120  -26.0650   28.9710 C.3       1 9F7        -0.0356
     29 C28        39.1490  -18.6990   29.3840 C.2       1 9F7         0.1910
     30 C29        38.3980  -17.4260   29.2120 C.2       1 9F7         0.0072
     31 C30        37.8590  -17.0760   28.0550 C.2       1 9F7        -0.0388
     32 C31        37.1350  -15.8240   27.9010 C.ar      1 9F7         0.0262
     33 C32        37.5420  -14.8650   26.9910 C.ar      1 9F7         0.1410
     34 O34        39.7640  -18.8880   30.4470 O.2       1 9F7        -0.3927
     35 C35        35.7150  -13.4240   27.6710 C.ar      1 9F7        -0.0476
     36 C36        35.3030  -14.4050   28.5660 C.ar      1 9F7         0.0380
     37 C37        35.9960  -15.6030   28.6850 C.ar      1 9F7        -0.0382
     38 N38        38.6340  -15.1280   26.0770 N.pl3     1 9F7        -0.0913
     39 C39        38.6320  -15.0260   24.6800 C.2       1 9F7         0.1690
     40 N40        39.8990  -15.2670   24.2450 N.2       1 9F7        -0.2058
     41 N41        40.6470  -15.5120   25.3330 N.2       1 9F7        -0.1365
     42 N42        39.9430  -15.4460   26.4270 N.2       1 9F7        -0.0466
     43 CL43       33.8990  -14.1170   29.5410 Cl        1 9F7        -0.0754
     44 H1         47.6631  -20.3453   31.0311 H         1 9F7         0.0383
     45 H2         45.3410  -23.7086   32.5062 H         1 9F7         0.0370
     46 H3         51.0744  -22.8848   35.3907 H         1 9F7         0.0575
     47 H4         50.9164  -21.2332   34.7025 H         1 9F7         0.0575
     48 H5         51.5066  -22.5822   33.6737 H         1 9F7         0.0575
     49 H6         41.2246  -25.1701   30.8889 H         1 9F7         0.0543
     50 H7         45.8085  -19.7185   29.5469 H         1 9F7         0.0509
     51 H8         40.7103  -27.9143   28.4075 H         1 9F7         0.0231
     52 H9         39.5538  -26.5877   28.7672 H         1 9F7         0.0231
     53 H10        40.4154  -27.4164   30.1080 H         1 9F7         0.0231
     54 H11        37.1715  -12.8971   26.1844 H         1 9F7         0.0602
     55 H12        39.6906  -21.2535   29.6581 H         1 9F7         0.0795
     56 H13        39.6930  -21.8054   26.6733 H         1 9F7         0.0315
     57 H14        38.4200  -22.2706   27.8522 H         1 9F7         0.0315
     58 H15        41.2960  -23.2836   27.7235 H         1 9F7         0.0269
     59 H16        39.7997  -24.1963   27.3299 H         1 9F7         0.0269
     60 H17        40.1161  -23.1349   30.1265 H         1 9F7         0.0292
     61 H18        39.3024  -24.6220   29.5323 H         1 9F7         0.0292
     62 H19        38.6308  -19.5828   27.5352 H         1 9F7         0.1870
     63 H20        41.9272  -20.2376   26.5044 H         1 9F7         0.2370
     64 H21        44.4606  -20.4103   27.2956 H         1 9F7         0.0770
     65 H22        47.3063  -23.1753   33.5001 H         1 9F7         0.2271
     66 H23        42.6090  -23.2755   31.7754 H         1 9F7         0.2263
     67 H24        42.5486  -26.5605   29.2662 H         1 9F7         0.0290
     68 H25        41.6871  -25.7319   27.9254 H         1 9F7         0.0290
     69 H26        38.2882  -16.7601   30.0667 H         1 9F7         0.0628
     70 H27        37.9599  -17.7409   27.1984 H         1 9F7         0.0739
     71 H28        35.1682  -12.4917   27.5878 H         1 9F7         0.0635
     72 H29        35.6571  -16.3622   29.3806 H         1 9F7         0.0642
     73 H30        37.7712  -14.7953   24.0542 H         1 9F7         0.1430
@<TRIPOS>BOND
     1    9    1 ar 
     2    1   22 ar 
     3   23    2 am 
     4    2   24 2  
     5    2   25 1  
     6    3    4 ar 
     7    8    3 ar 
     8    3   26 1  
     9    4   22 ar 
    10   25    5 1  
    11    6    7 1  
    12   15    6 1  
    13    6   28 1  
    14    7   26 am 
    15    7   27 2  
    16    8    9 ar 
    17   20    8 1  
    18   28   10 1  
    19   33   11 ar 
    20   11   35 ar 
    21   12   13 1  
    22   16   12 1  
    23   12   17 1  
    24   13   14 1  
    25   14   15 1  
    26   29   16 am 
    27   17   18 1  
    28   17   21 2  
    29   18   19 1  
    30   20   19 2  
    31   21   20 1  
    32   22   23 1  
    33   30   29 1  
    34   29   34 2  
    35   31   30 2  
    36   32   31 1  
    37   32   33 ar 
    38   32   37 ar 
    39   33   38 1  
    40   35   36 ar 
    41   36   37 ar 
    42   36   43 1  
    43   38   39 1  
    44   38   42 1  
    45   39   40 2  
    46   40   41 1  
    47   41   42 2  
    48    1   44 1  
    49    4   45 1  
    50    5   46 1  
    51    5   47 1  
    52    5   48 1  
    53    6   49 1  
    54    9   50 1  
    55   10   51 1  
    56   10   52 1  
    57   10   53 1  
    58   11   54 1  
    59   12   55 1  
    60   13   56 1  
    61   13   57 1  
    62   14   58 1  
    63   14   59 1  
    64   15   60 1  
    65   15   61 1  
    66   16   62 1  
    67   18   63 1  
    68   19   64 1  
    69   23   65 1  
    70   26   66 1  
    71   28   67 1  
    72   28   68 1  
    73   30   69 1  
    74   31   70 1  
    75   35   71 1  
    76   37   72 1  
    77   39   73 1  
@<TRIPOS>SUBSTRUCTURE
     1 9F7         1

