### 
### Created by X-TOOL on Mon Sep 10 21:13:31 2018
### 

@<TRIPOS>MOLECULE
5q0h_ligand
   65    68     1     0     0
SMALL
GAST_HUCK


@<TRIPOS>ATOM
      1 N14        41.8810  -20.7550   29.7330 N.2       1 9F1        -0.3308
      2 C13        43.2140  -20.7030   29.3620 C.2       1 9F1         0.0106
      3 C18        41.7630  -24.9090   30.0040 C.3       1 9F1         0.0524
      4 C17        40.8440  -24.8980   28.7630 C.3       1 9F1        -0.0100
      5 C16        39.9730  -22.8620   27.5780 C.2       1 9F1        -0.0936
      6 C19        42.9090  -23.9300   29.8900 C.2       1 9F1         0.2060
      7 C21        48.5960  -21.7020   33.1850 C.2       1 9F1         0.3496
      8 C24        50.5800  -22.0190   34.4490 C.3       1 9F1         0.0668
      9 C12        43.3070  -20.3320   28.0520 C.2       1 9F1         0.1308
     10 C27        40.0880  -23.6080   28.6610 C.2       1 9F1        -0.0934
     11 C33        37.0450  -16.6830   29.1260 C.ar      1 9F1         0.1456
     12 CL1        44.6740  -20.1100   27.0460 Cl        1 9F1        -0.0555
     13 C2         39.7020  -20.5180   28.5350 C.3       1 9F1         0.1235
     14 C3         41.2020  -20.4440   28.6450 C.2       1 9F1         0.1397
     15 C4         39.2310  -21.5560   27.5060 C.3       1 9F1         0.0030
     16 C5         44.2800  -21.0910   30.3190 C.ar      1 9F1        -0.0200
     17 C6         45.4100  -20.2770   30.4430 C.ar      1 9F1        -0.0838
     18 C7         46.4120  -20.5750   31.3540 C.ar      1 9F1        -0.0581
     19 C8         46.3090  -21.7020   32.1690 C.ar      1 9F1         0.0527
     20 C9         45.1880  -22.5230   32.0540 C.ar      1 9F1        -0.0234
     21 C10        44.1800  -22.2430   31.1340 C.ar      1 9F1         0.0588
     22 N11        42.0050  -20.1580   27.5910 N.pl3     1 9F1        -0.2528
     23 N15        43.0920  -23.1400   30.9680 N.am      1 9F1        -0.2364
     24 N20        47.3190  -22.1540   33.0680 N.am      1 9F1        -0.2131
     25 O22        49.1520  -22.2110   34.3010 O.3       1 9F1        -0.2623
     26 O23        49.1670  -20.9630   32.4140 O.2       1 9F1        -0.3669
     27 O25        43.6120  -23.8770   28.8780 O.2       1 9F1        -0.3843
     28 C26        39.9030  -26.0980   28.7950 C.3       1 9F1        -0.0536
     29 C28        36.3430  -15.5660   28.7400 C.ar      1 9F1        -0.0250
     30 C29        36.9140  -14.6730   27.8350 C.ar      1 9F1        -0.0451
     31 C30        38.1880  -14.9480   27.3490 C.ar      1 9F1        -0.0250
     32 C31        38.8460  -16.0780   27.7720 C.ar      1 9F1         0.1456
     33 C32        38.3230  -16.9830   28.6830 C.ar      1 9F1         0.1096
     34 F34        36.4470  -17.5640   29.9530 F         1 9F1        -0.1802
     35 C35        39.0640  -18.2160   29.1330 C.2       1 9F1         0.2012
     36 F36        40.0540  -16.3540   27.2340 F         1 9F1        -0.1802
     37 N37        39.1460  -19.2090   28.2290 N.am      1 9F1        -0.2663
     38 O38        39.5260  -18.2980   30.2670 O.2       1 9F1        -0.3921
     39 C39        36.1550  -13.4600   27.3640 C.3       1 9F1        -0.0307
     40 H1         42.1758  -25.9211   30.1272 H         1 9F1         0.0530
     41 H2         41.1634  -24.6473   30.8883 H         1 9F1         0.0530
     42 H3         41.4779  -24.9875   27.8685 H         1 9F1         0.0445
     43 H4         40.4518  -23.2195   26.6676 H         1 9F1         0.0453
     44 H5         50.9154  -22.4749   35.3922 H         1 9F1         0.0575
     45 H6         50.8059  -20.9425   34.4615 H         1 9F1         0.0575
     46 H7         51.1032  -22.4938   33.6059 H         1 9F1         0.0575
     47 H8         39.5884  -23.2541   29.5616 H         1 9F1         0.0454
     48 H9         39.3148  -20.8280   29.5168 H         1 9F1         0.0818
     49 H10        38.1627  -21.7542   27.6774 H         1 9F1         0.0439
     50 H11        39.3688  -21.1339   26.4996 H         1 9F1         0.0439
     51 H12        45.5044  -19.3977   29.8161 H         1 9F1         0.0511
     52 H13        47.2791  -19.9292   31.4330 H         1 9F1         0.0383
     53 H14        45.0992  -23.3949   32.6919 H         1 9F1         0.0370
     54 H15        41.7127  -19.8716   26.6458 H         1 9F1         0.2358
     55 H16        42.4140  -23.1896   31.7014 H         1 9F1         0.2264
     56 H17        47.0563  -22.8934   33.6879 H         1 9F1         0.2272
     57 H18        39.2543  -26.0790   27.9069 H         1 9F1         0.0253
     58 H19        39.2833  -26.0539   29.7027 H         1 9F1         0.0253
     59 H20        40.4928  -27.0265   28.7984 H         1 9F1         0.0253
     60 H21        35.3515  -15.3808   29.1370 H         1 9F1         0.0521
     61 H22        38.6588  -14.2754   26.6412 H         1 9F1         0.0521
     62 H23        38.8088  -19.0393   27.3030 H         1 9F1         0.1877
     63 H24        35.1759  -13.4232   27.8640 H         1 9F1         0.0399
     64 H25        36.0087  -13.5188   26.2754 H         1 9F1         0.0399
     65 H26        36.7260  -12.5523   27.6088 H         1 9F1         0.0399
@<TRIPOS>BOND
     1    1    2 1  
     2   14    1 2  
     3    9    2 2  
     4    2   16 1  
     5    4    3 1  
     6    3    6 1  
     7   10    4 1  
     8    4   28 1  
     9    5   10 2  
    10   15    5 1  
    11    6   23 am 
    12    6   27 2  
    13   24    7 am 
    14    7   25 1  
    15    7   26 2  
    16   25    8 1  
    17    9   12 1  
    18   22    9 1  
    19   11   29 ar 
    20   33   11 ar 
    21   11   34 1  
    22   13   14 1  
    23   13   15 1  
    24   37   13 1  
    25   14   22 1  
    26   16   17 ar 
    27   16   21 ar 
    28   17   18 ar 
    29   18   19 ar 
    30   20   19 ar 
    31   19   24 1  
    32   21   20 ar 
    33   21   23 1  
    34   29   30 ar 
    35   31   30 ar 
    36   30   39 1  
    37   32   31 ar 
    38   33   32 ar 
    39   32   36 1  
    40   35   33 1  
    41   35   37 am 
    42   35   38 2  
    43    3   40 1  
    44    3   41 1  
    45    4   42 1  
    46    5   43 1  
    47    8   44 1  
    48    8   45 1  
    49    8   46 1  
    50   10   47 1  
    51   13   48 1  
    52   15   49 1  
    53   15   50 1  
    54   17   51 1  
    55   18   52 1  
    56   20   53 1  
    57   22   54 1  
    58   23   55 1  
    59   24   56 1  
    60   28   57 1  
    61   28   58 1  
    62   28   59 1  
    63   29   60 1  
    64   31   61 1  
    65   37   62 1  
    66   39   63 1  
    67   39   64 1  
    68   39   65 1  
@<TRIPOS>SUBSTRUCTURE
     1 9F1         1

