### 
### Created by X-TOOL on Mon Sep 10 21:13:32 2018
### 

@<TRIPOS>MOLECULE
5q0i_ligand
   66    67     1     0     0
SMALL
GAST_HUCK


@<TRIPOS>ATOM
      1 O4         31.9670   28.6890   29.6620 O.2       1 0X0        -0.1456
      2 S          32.5430   29.4510   30.7220 S.o2      1 0X0         0.0885
      3 O3         33.8160   29.0900   31.2630 O.2       1 0X0        -0.1456
      4 C17        31.3690   29.5620   32.0380 C.ar      1 0X0         0.1069
      5 C23        30.0900   29.0530   31.8680 C.ar      1 0X0        -0.0414
      6 C22        29.1730   29.1570   32.9020 C.ar      1 0X0        -0.0587
      7 C20        29.5030   29.7620   34.1060 C.ar      1 0X0        -0.0460
      8 C21        28.4950   29.8650   35.2230 C.3       1 0X0        -0.0311
      9 C19        30.7880   30.2720   34.2530 C.ar      1 0X0        -0.0587
     10 C18        31.7250   30.1800   33.2330 C.ar      1 0X0        -0.0414
     11 N          32.6530   31.0610   30.1950 N.am      1 0X0        -0.1647
     12 C8         33.5850   31.9550   30.9060 C.3       1 0X0         0.1417
     13 C9         34.9150   32.4720   30.4050 C.2       1 0X0         0.2014
     14 N1         35.5200   31.8230   29.4080 N.am      1 0X0        -0.2816
     15 C10        36.8150   32.2570   28.8790 C.3       1 0X0         0.0467
     16 C14        37.8610   31.1190   28.9310 C.3       1 0X0        -0.0234
     17 C16        37.8690   30.4070   30.2880 C.3       1 0X0        -0.0606
     18 C15        39.2680   31.6150   28.5790 C.3       1 0X0        -0.0606
     19 C11        36.7220   33.0380   27.5040 C.3       1 0X0        -0.0234
     20 C13        36.1390   32.1940   26.3740 C.3       1 0X0        -0.0606
     21 C12        35.9950   34.3620   27.6450 C.3       1 0X0        -0.0606
     22 O2         35.4000   33.4700   30.9300 O.2       1 0X0        -0.3947
     23 C4         31.8460   31.5940   29.1190 C.ar      1 0X0         0.0485
     24 C3         30.7410   32.3750   29.4430 C.ar      1 0X0        -0.0644
     25 C2         29.9360   32.9090   28.4600 C.ar      1 0X0        -0.0564
     26 C5         32.1520   31.3420   27.7710 C.ar      1 0X0        -0.0246
     27 C6         31.3320   31.8810   26.7670 C.ar      1 0X0         0.1048
     28 O1         31.5210   31.7140   25.4100 O.3       1 0X0        -0.3288
     29 C7         31.8540   30.4170   24.9340 C.3       1 0X0         0.0566
     30 C1         30.2180   32.6720   27.1240 C.ar      1 0X0         0.1020
     31 O          29.4790   33.1580   26.0830 O.3       1 0X0        -0.3358
     32 C          28.1220   33.5400   26.3480 C.3       1 0X0         0.0533
     33 H1         29.8101   28.5780   30.9346 H         1 0X0         0.0619
     34 H2         28.1749   28.7563   32.7668 H         1 0X0         0.0557
     35 H3         28.9524   30.3748   36.0838 H         1 0X0         0.0391
     36 H4         28.1748   28.8561   35.5222 H         1 0X0         0.0391
     37 H5         27.6226   30.4394   34.8779 H         1 0X0         0.0391
     38 H6         31.0643   30.7521   35.1848 H         1 0X0         0.0557
     39 H7         32.7219   30.5846   33.3657 H         1 0X0         0.0619
     40 H8         33.8207   31.4300   31.8435 H         1 0X0         0.0792
     41 H9         32.9967   32.8573   31.1289 H         1 0X0         0.0792
     42 H10        35.0772   31.0188   29.0115 H         1 0X0         0.1855
     43 H11        37.1803   33.0080   29.5949 H         1 0X0         0.0561
     44 H12        37.5724   30.3780   28.1710 H         1 0X0         0.0318
     45 H13        38.6254   29.6084   30.2786 H         1 0X0         0.0233
     46 H14        36.8775   29.9706   30.4790 H         1 0X0         0.0233
     47 H15        38.1099   31.1308   31.0805 H         1 0X0         0.0233
     48 H16        39.2444   32.1229   27.6035 H         1 0X0         0.0233
     49 H17        39.9570   30.7589   28.5300 H         1 0X0         0.0233
     50 H18        39.6123   32.3192   29.3507 H         1 0X0         0.0233
     51 H19        37.7557   33.2762   27.2131 H         1 0X0         0.0318
     52 H20        36.1018   32.7919   25.4514 H         1 0X0         0.0233
     53 H21        35.1223   31.8723   26.6436 H         1 0X0         0.0233
     54 H22        36.7727   31.3096   26.2124 H         1 0X0         0.0233
     55 H23        36.4424   34.9402   28.4669 H         1 0X0         0.0233
     56 H24        34.9331   34.1758   27.8634 H         1 0X0         0.0233
     57 H25        36.0824   34.9300   26.7071 H         1 0X0         0.0233
     58 H26        30.5097   32.5664   30.4846 H         1 0X0         0.0364
     59 H27        29.0801   33.5159   28.7325 H         1 0X0         0.0470
     60 H28        33.0127   30.7374   27.5089 H         1 0X0         0.0376
     61 H29        31.9709   30.4466   23.8406 H         1 0X0         0.0573
     62 H30        31.0517   29.7123   25.1980 H         1 0X0         0.0573
     63 H31        32.7971   30.0882   25.3948 H         1 0X0         0.0573
     64 H32        27.6575   33.9092   25.4218 H         1 0X0         0.0566
     65 H33        28.1066   34.3350   27.1081 H         1 0X0         0.0566
     66 H34        27.5612   32.6687   26.7173 H         1 0X0         0.0566
@<TRIPOS>BOND
     1    1    2 2  
     2    2    3 2  
     3    2    4 1  
     4    2   11 am 
     5    4    5 ar 
     6    4   10 ar 
     7    5    6 ar 
     8    6    7 ar 
     9    7    8 1  
    10    7    9 ar 
    11    9   10 ar 
    12   11   12 1  
    13   11   23 1  
    14   12   13 1  
    15   13   14 am 
    16   13   22 2  
    17   14   15 1  
    18   15   16 1  
    19   15   19 1  
    20   16   17 1  
    21   16   18 1  
    22   19   20 1  
    23   19   21 1  
    24   23   24 ar 
    25   23   26 ar 
    26   24   25 ar 
    27   25   30 ar 
    28   26   27 ar 
    29   27   28 1  
    30   27   30 ar 
    31   28   29 1  
    32   30   31 1  
    33   31   32 1  
    34    5   33 1  
    35    6   34 1  
    36    8   35 1  
    37    8   36 1  
    38    8   37 1  
    39    9   38 1  
    40   10   39 1  
    41   12   40 1  
    42   12   41 1  
    43   14   42 1  
    44   15   43 1  
    45   16   44 1  
    46   17   45 1  
    47   17   46 1  
    48   17   47 1  
    49   18   48 1  
    50   18   49 1  
    51   18   50 1  
    52   19   51 1  
    53   20   52 1  
    54   20   53 1  
    55   20   54 1  
    56   21   55 1  
    57   21   56 1  
    58   21   57 1  
    59   24   58 1  
    60   25   59 1  
    61   26   60 1  
    62   29   61 1  
    63   29   62 1  
    64   29   63 1  
    65   32   64 1  
    66   32   65 1  
    67   32   66 1  
@<TRIPOS>SUBSTRUCTURE
     1 0X0         1

