### 
### Created by X-TOOL on Mon Sep 10 21:13:33 2018
### 

@<TRIPOS>MOLECULE
5q0j_ligand
   71    76     1     0     0
SMALL
GAST_HUCK


@<TRIPOS>ATOM
      1 N3         13.0760   25.9260    2.3070 N.2       1 9KV        -0.3101
      2 C4         15.1360   24.6760    2.8050 C.2       1 9KV         0.0863
      3 C5         12.6390   21.9040    4.4030 C.2       1 9KV         0.2089
      4 C7         13.3670   23.2190    4.7330 C.3       1 9KV         0.1564
      5 C8         11.6500   24.8830    3.7620 C.ar      1 9KV         0.0856
      6 C10        11.7680   25.8720    2.8010 C.ar      1 9KV         0.0302
      7 C15        18.5320   22.9910    1.6510 C.ar      1 9KV        -0.0045
      8 C17        11.7530   20.4680    2.6090 C.3       1 9KV         0.0421
      9 C20        19.8280   23.5120    1.6570 C.ar      1 9KV        -0.0529
     10 C21        18.3320   21.7220    1.1210 C.ar      1 9KV        -0.0529
     11 C22        13.7650   25.0670    6.4280 C.3       1 9KV        -0.0454
     12 C24        12.7380   19.6840    1.7410 C.3       1 9KV        -0.0299
     13 C26         9.3610   25.3830    4.0580 C.ar      1 9KV        -0.0749
     14 C28        19.3930   20.9920    0.6070 C.ar      1 9KV        -0.0613
     15 C1         13.7190   24.9890    2.9810 C.2       1 9KV         0.1486
     16 C16        13.3110   23.6200    6.2240 C.3       1 9KV         0.0056
     17 C18        10.4660   24.6180    4.4050 C.ar      1 9KV        -0.0396
     18 C19        10.6600   26.6350    2.4530 C.ar      1 9KV        -0.0618
     19 C23        14.1790   22.7010    7.0800 C.3       1 9KV        -0.0454
     20 C25        10.5090   20.8210    1.8170 C.3       1 9KV        -0.0299
     21 C27         9.4530   26.3760    3.0970 C.ar      1 9KV        -0.0766
     22 C30        14.0840   23.0670    8.5670 C.3       1 9KV        -0.0526
     23 C31        13.7360   25.4880    7.9470 C.3       1 9KV        -0.0526
     24 C32         9.8610   19.5660    1.2400 C.3       1 9KV        -0.0510
     25 C33        12.0770   18.4560    1.0620 C.3       1 9KV        -0.0510
     26 C35        10.8250   18.8270    0.3320 C.3       1 9KV        -0.0529
     27 C36        14.5110   24.5150    8.8220 C.3       1 9KV        -0.0530
     28 N13        12.4210   21.6680    3.1090 N.am      1 9KV        -0.2815
     29 N2         12.9350   24.3220    3.8640 N.pl3     1 9KV        -0.2160
     30 O14        12.2940   21.1400    5.2800 O.2       1 9KV        -0.3938
     31 C11        16.1910   25.3470    3.3880 C.2       1 9KV        -0.0512
     32 C12        17.4530   24.8360    3.0470 C.2       1 9KV        -0.0547
     33 C29        20.8850   22.7730    1.1400 C.ar      1 9KV        -0.0613
     34 C34        20.6680   21.5170    0.6160 C.ar      1 9KV        -0.0619
     35 C9         17.4030   23.7680    2.1990 C.2       1 9KV         0.0437
     36 S6         15.7280   23.3760    1.8070 S.3       1 9KV        -0.0225
     37 H1         14.4285   23.0409    4.5062 H         1 9KV         0.0881
     38 H2         11.4558   19.8444    3.4650 H         1 9KV         0.0556
     39 H3         20.0102   24.4986    2.0674 H         1 9KV         0.0624
     40 H4         17.3346   21.2977    1.1093 H         1 9KV         0.0624
     41 H5         13.0956   25.7320    5.8626 H         1 9KV         0.0270
     42 H6         14.7925   25.1732    6.0499 H         1 9KV         0.0270
     43 H7         13.5668   19.3344    2.3742 H         1 9KV         0.0287
     44 H8         13.1299   20.3517    0.9596 H         1 9KV         0.0287
     45 H9          8.4109   25.2003    4.5470 H         1 9KV         0.0542
     46 H10        19.2193   20.0040    0.1962 H         1 9KV         0.0617
     47 H11        12.2682   23.5301    6.5623 H         1 9KV         0.0354
     48 H12        10.3968   23.8397    5.1563 H         1 9KV         0.0543
     49 H13        10.7334   27.4113    1.7000 H         1 9KV         0.0547
     50 H14        15.2259   22.7925    6.7551 H         1 9KV         0.0270
     51 H15        13.8425   21.6625    6.9448 H         1 9KV         0.0270
     52 H16        10.7850   21.4958    0.9933 H         1 9KV         0.0287
     53 H17         9.7906   21.3259    2.4796 H         1 9KV         0.0287
     54 H18         8.5748   26.9586    2.8432 H         1 9KV         0.0522
     55 H19        14.7389   22.3957    9.1419 H         1 9KV         0.0265
     56 H20        13.0436   22.9382    8.9001 H         1 9KV         0.0265
     57 H21        12.6905   25.5170    8.2878 H         1 9KV         0.0265
     58 H22        14.1821   26.4885    8.0470 H         1 9KV         0.0265
     59 H23         8.9707   19.8539    0.6617 H         1 9KV         0.0266
     60 H24         9.5634   18.9025    2.0653 H         1 9KV         0.0266
     61 H25        11.8308   17.7125    1.8344 H         1 9KV         0.0266
     62 H26        12.7893   18.0193    0.3465 H         1 9KV         0.0266
     63 H27        11.0840   19.4738   -0.5192 H         1 9KV         0.0265
     64 H28        10.3401   17.9114   -0.0374 H         1 9KV         0.0265
     65 H29        15.5844   24.6148    8.6031 H         1 9KV         0.0265
     66 H30        14.3278   24.7608    9.8784 H         1 9KV         0.0265
     67 H31        12.7311   22.3484    2.4450 H         1 9KV         0.1855
     68 H32        16.0565   26.1980    4.0540 H         1 9KV         0.0540
     69 H33        18.3856   25.2531    3.4242 H         1 9KV         0.0483
     70 H34        21.8868   23.1871    1.1489 H         1 9KV         0.0617
     71 H35        21.4956   20.9446    0.2129 H         1 9KV         0.0616
@<TRIPOS>BOND
     1    1    6 1  
     2   15    1 2  
     3    2   15 1  
     4   31    2 2  
     5    2   36 1  
     6    4    3 1  
     7    3   28 am 
     8    3   30 2  
     9    4   16 1  
    10   29    4 1  
    11    5    6 ar 
    12    5   17 ar 
    13   29    5 1  
    14    6   18 ar 
    15    7    9 ar 
    16    7   10 ar 
    17   35    7 1  
    18    8   12 1  
    19    8   20 1  
    20   28    8 1  
    21    9   33 ar 
    22   10   14 ar 
    23   16   11 1  
    24   11   23 1  
    25   12   25 1  
    26   17   13 ar 
    27   13   21 ar 
    28   14   34 ar 
    29   15   29 1  
    30   16   19 1  
    31   18   21 ar 
    32   19   22 1  
    33   20   24 1  
    34   22   27 1  
    35   23   27 1  
    36   24   26 1  
    37   25   26 1  
    38   32   31 1  
    39   32   35 2  
    40   33   34 ar 
    41   35   36 1  
    42    4   37 1  
    43    8   38 1  
    44    9   39 1  
    45   10   40 1  
    46   11   41 1  
    47   11   42 1  
    48   12   43 1  
    49   12   44 1  
    50   13   45 1  
    51   14   46 1  
    52   16   47 1  
    53   17   48 1  
    54   18   49 1  
    55   19   50 1  
    56   19   51 1  
    57   20   52 1  
    58   20   53 1  
    59   21   54 1  
    60   22   55 1  
    61   22   56 1  
    62   23   57 1  
    63   23   58 1  
    64   24   59 1  
    65   24   60 1  
    66   25   61 1  
    67   25   62 1  
    68   26   63 1  
    69   26   64 1  
    70   27   65 1  
    71   27   66 1  
    72   28   67 1  
    73   31   68 1  
    74   32   69 1  
    75   33   70 1  
    76   34   71 1  
@<TRIPOS>SUBSTRUCTURE
     1 9KV         1

