### 
### Created by X-TOOL on Mon Sep 10 21:13:33 2018
### 

@<TRIPOS>MOLECULE
5q0l_ligand
   68    72     1     0     0
SMALL
GAST_HUCK


@<TRIPOS>ATOM
      1 N3         12.9300   15.7100   -2.2710 N.2       1 9KY        -0.3073
      2 C4         12.4950   19.6970   -4.4660 C.2       1 9KY         0.2092
      3 C5         13.2890   18.4180   -4.7460 C.3       1 9KY         0.1574
      4 C6         11.4780   16.8110   -3.6720 C.ar      1 9KY         0.0868
      5 C7         11.6040   15.8160   -2.6980 C.ar      1 9KY         0.0316
      6 C13        16.0130   16.2820   -3.6240 C.ar      1 9KY        -0.0499
      7 C15        16.7390   18.0730   -1.6460 C.ar      1 9KY        -0.0521
      8 C17        17.7280   17.4950   -2.4210 C.ar      1 9KY        -0.0126
      9 C21        19.1700   17.8450   -2.1830 C.3       1 9KY         0.0805
     10 C22        13.0030   16.6210   -6.5930 C.3       1 9KY        -0.0454
     11 C24        12.7790   21.9720   -1.6800 C.3       1 9KY        -0.0299
     12 C26         9.1340   16.3800   -3.8430 C.ar      1 9KY        -0.0745
     13 C28        13.8750   18.5770   -8.6680 C.3       1 9KY        -0.0526
     14 C1         13.5910   16.6120   -2.9760 C.2       1 9KY         0.1411
     15 N2         12.7890   17.3140   -3.8420 N.pl3     1 9KY        -0.2143
     16 O10        11.9030   20.3030   -5.3470 O.2       1 9KY        -0.3938
     17 N8         12.5150   20.0800   -3.1880 N.am      1 9KY        -0.2815
     18 C14        11.8440   21.2600   -2.6560 C.3       1 9KY         0.0421
     19 C31        12.0990   23.1620   -1.0220 C.3       1 9KY        -0.0510
     20 C32        10.8230   22.7420   -0.3130 C.3       1 9KY        -0.0529
     21 C30         9.8600   22.0560   -1.2960 C.3       1 9KY        -0.0510
     22 C25        10.5310   20.8580   -1.9720 C.3       1 9KY        -0.0299
     23 C11        13.6190   17.9620   -6.1970 C.3       1 9KY         0.0058
     24 C29        13.5950   16.1150   -7.9210 C.3       1 9KY        -0.0526
     25 C33        13.3810   17.1240   -9.0600 C.3       1 9KY        -0.0530
     26 C23        13.3200   19.0170   -7.2700 C.3       1 9KY        -0.0454
     27 C19        10.4780   15.0970   -2.2930 C.ar      1 9KY        -0.0615
     28 C27         9.2490   15.3900   -2.8740 C.ar      1 9KY        -0.0763
     29 C18        10.2550   17.1140   -4.2620 C.ar      1 9KY        -0.0393
     30 C9         15.0290   16.8630   -2.8340 C.ar      1 9KY         0.0285
     31 C12        15.4120   17.7670   -1.8460 C.ar      1 9KY        -0.0499
     32 C16        17.3500   16.5950   -3.4150 C.ar      1 9KY        -0.0521
     33 O20        19.9910   17.5540   -3.2960 O.3       1 9KY        -0.3815
     34 H1         14.2874   18.6594   -4.3525 H         1 9KY         0.0884
     35 H2         15.7368   15.5830   -4.4051 H         1 9KY         0.0649
     36 H3         17.0131   18.7777   -0.8693 H         1 9KY         0.0572
     37 H4         19.5335   17.2714   -1.3176 H         1 9KY         0.0734
     38 H5         19.2401   18.9210   -1.9654 H         1 9KY         0.0734
     39 H6         11.9158   16.7437   -6.7070 H         1 9KY         0.0270
     40 H7         13.2079   15.8833   -5.8032 H         1 9KY         0.0270
     41 H8         13.6653   22.3250   -2.2276 H         1 9KY         0.0287
     42 H9         13.0890   21.2615   -0.8996 H         1 9KY         0.0287
     43 H10         8.1648   16.5883   -4.2815 H         1 9KY         0.0544
     44 H11        13.5279   19.2899   -9.4304 H         1 9KY         0.0265
     45 H12        14.9744   18.5832   -8.6337 H         1 9KY         0.0265
     46 H13        13.0304   19.5135   -2.5450 H         1 9KY         0.1855
     47 H14        11.6116   21.9436   -3.4858 H         1 9KY         0.0556
     48 H15        11.8525   23.9063   -1.7935 H         1 9KY         0.0266
     49 H16        12.7868   23.6081   -0.2886 H         1 9KY         0.0266
     50 H17        10.3345   23.6321    0.1102 H         1 9KY         0.0265
     51 H18        11.0731   22.0410    0.4970 H         1 9KY         0.0265
     52 H19         9.5554   22.7799   -2.0661 H         1 9KY         0.0266
     53 H20         8.9721   21.7090   -0.7473 H         1 9KY         0.0266
     54 H21        10.7441   20.0920   -1.2118 H         1 9KY         0.0287
     55 H22         9.8466   20.4446   -2.7274 H         1 9KY         0.0287
     56 H23        14.7086   17.8121   -6.2124 H         1 9KY         0.0354
     57 H24        13.1082   15.1658   -8.1896 H         1 9KY         0.0265
     58 H25        14.6745   15.9493   -7.7899 H         1 9KY         0.0265
     59 H26        13.9410   16.7852   -9.9441 H         1 9KY         0.0265
     60 H27        12.3083   17.1664   -9.2996 H         1 9KY         0.0265
     61 H28        12.2312   19.1552   -7.3436 H         1 9KY         0.0270
     62 H29        13.7915   19.9675   -6.9798 H         1 9KY         0.0270
     63 H30        10.5603   14.3233   -1.5383 H         1 9KY         0.0551
     64 H31         8.3679   14.8384   -2.5668 H         1 9KY         0.0523
     65 H32        10.1708   17.8876   -5.0167 H         1 9KY         0.0546
     66 H33        14.6555   18.2354   -1.2268 H         1 9KY         0.0649
     67 H34        18.1101   16.1324   -4.0341 H         1 9KY         0.0572
     68 H35        20.8889   17.7920   -3.0966 H         1 9KY         0.2128
@<TRIPOS>BOND
     1    1    5 1  
     2   14    1 2  
     3    3    2 1  
     4    2   16 2  
     5    2   17 am 
     6    3   15 1  
     7   23    3 1  
     8    4    5 ar 
     9   15    4 1  
    10    4   29 ar 
    11    5   27 ar 
    12   30    6 ar 
    13    6   32 ar 
    14    8    7 ar 
    15    7   31 ar 
    16    8    9 1  
    17   32    8 ar 
    18    9   33 1  
    19   23   10 1  
    20   10   24 1  
    21   18   11 1  
    22   11   19 1  
    23   12   28 ar 
    24   29   12 ar 
    25   13   25 1  
    26   26   13 1  
    27   15   14 1  
    28   14   30 1  
    29   17   18 1  
    30   18   22 1  
    31   19   20 1  
    32   21   20 1  
    33   22   21 1  
    34   23   26 1  
    35   24   25 1  
    36   27   28 ar 
    37   30   31 ar 
    38    3   34 1  
    39    6   35 1  
    40    7   36 1  
    41    9   37 1  
    42    9   38 1  
    43   10   39 1  
    44   10   40 1  
    45   11   41 1  
    46   11   42 1  
    47   12   43 1  
    48   13   44 1  
    49   13   45 1  
    50   17   46 1  
    51   18   47 1  
    52   19   48 1  
    53   19   49 1  
    54   20   50 1  
    55   20   51 1  
    56   21   52 1  
    57   21   53 1  
    58   22   54 1  
    59   22   55 1  
    60   23   56 1  
    61   24   57 1  
    62   24   58 1  
    63   25   59 1  
    64   25   60 1  
    65   26   61 1  
    66   26   62 1  
    67   27   63 1  
    68   28   64 1  
    69   29   65 1  
    70   31   66 1  
    71   32   67 1  
    72   33   68 1  
@<TRIPOS>SUBSTRUCTURE
     1 9KY         1

