### 
### Created by X-TOOL on Mon Sep 10 21:13:32 2018
### 

@<TRIPOS>MOLECULE
5q0m_ligand
   82    86     1     0     0
SMALL
GAST_HUCK


@<TRIPOS>ATOM
      1 C4         -3.3950   43.3920    3.4190 C.ar      1 9L1        -0.0246
      2 C5         -2.2290   43.5350    4.1690 C.ar      1 9L1         0.0002
      3 C6         -1.9860   44.7270    4.8450 C.ar      1 9L1        -0.0488
      4 C8         -1.2410   42.4200    4.2500 C.2       1 9L1         0.0600
      5 C15       -11.2670   41.0610   -4.6510 C.3       1 9L1        -0.0344
      6 C17        -9.5470   40.3110   -2.8360 C.3       1 9L1        -0.0492
      7 C20        -9.1870   42.5480   -1.9370 C.3       1 9L1        -0.0326
      8 C21       -11.0600   43.6990   -3.3930 C.3       1 9L1        -0.0468
      9 C22       -11.5390   41.9030   -1.7720 C.3       1 9L1        -0.0590
     10 C24       -12.6220   42.0210   -6.6060 C.3       1 9L1        -0.0260
     11 C26       -11.8620   39.6080   -6.6550 C.3       1 9L1        -0.0494
     12 C28       -12.1120   40.8450   -7.4800 C.3       1 9L1        -0.0330
     13 C1         -2.9060   45.7700    4.7740 C.ar      1 9L1         0.0002
     14 C11        -2.6520   47.0530    5.4840 C.2       1 9L1         0.0600
     15 C14       -10.1480   41.4170   -3.7010 C.3       1 9L1        -0.0323
     16 C16       -10.4720   42.4880   -2.7310 C.3       1 9L1        -0.0259
     17 C18       -11.6000   42.3000   -5.4680 C.3       1 9L1        -0.0323
     18 C19       -10.8490   39.8990   -5.5560 C.3       1 9L1        -0.0494
     19 C2         -4.0650   45.6180    4.0220 C.ar      1 9L1        -0.0246
     20 C23        -8.7880   41.0730   -1.7530 C.3       1 9L1        -0.0492
     21 C25       -12.0180   43.4290   -4.5620 C.3       1 9L1        -0.0489
     22 C27        -9.0920   43.3300   -0.6050 C.3       1 9L1        -0.0385
     23 C29       -12.7860   43.2520   -7.5130 C.3       1 9L1        -0.0448
     24 C3         -4.3160   44.4360    3.3450 C.ar      1 9L1         0.0731
     25 C30       -13.9960   41.6700   -6.0190 C.3       1 9L1        -0.0590
     26 C31        -7.6280   43.2870   -0.1220 C.3       1 9L1        -0.0327
     27 C32        -9.5590   44.7630   -0.6990 C.3       1 9L1        -0.0620
     28 C33       -10.8910   41.2090   -8.3170 C.3       1 9L1        -0.0235
     29 C34       -11.5350   43.5960   -8.3200 C.3       1 9L1        -0.0263
     30 C35        -7.4190   43.8480    1.2760 C.3       1 9L1         0.0434
     31 C36       -11.1210   42.4270   -9.1750 C.3       1 9L1         0.0555
     32 C37        -6.0950   43.4560    1.8820 C.2       1 9L1         0.2036
     33 N7         -5.5350   44.4300    2.6250 N.am      1 9L1        -0.2329
     34 O10        -1.5360   41.3640    3.5400 O.co2     1 9L1        -0.5608
     35 O12        -3.3740   48.0300    5.3120 O.co2     1 9L1        -0.5608
     36 O13        -1.6310   47.0390    6.3060 O.co2     1 9L1        -0.5608
     37 O38        -9.9330   42.7290   -9.9150 O.3       1 9L1        -0.3918
     38 O39        -5.5960   42.3450    1.6970 O.2       1 9L1        -0.3849
     39 O9         -0.2320   42.5030    4.9400 O.co2     1 9L1        -0.5608
     40 H1         -3.5866   42.4649    2.8909 H         1 9L1         0.0556
     41 H2         -1.0793   44.8437    5.4276 H         1 9L1         0.0555
     42 H3        -12.1533   40.7585   -4.0740 H         1 9L1         0.0306
     43 H4         -8.8640   39.6802   -3.4239 H         1 9L1         0.0268
     44 H5        -10.3365   39.6847   -2.3951 H         1 9L1         0.0268
     45 H6         -8.4450   43.0245   -2.5945 H         1 9L1         0.0309
     46 H7        -10.2291   44.3113   -3.7735 H         1 9L1         0.0271
     47 H8        -11.6128   44.2651   -2.6289 H         1 9L1         0.0271
     48 H9        -11.1330   41.0114   -1.2718 H         1 9L1         0.0235
     49 H10       -12.4352   41.6252   -2.3462 H         1 9L1         0.0235
     50 H11       -11.8063   42.6570   -1.0171 H         1 9L1         0.0235
     51 H12       -11.4722   38.8111   -7.3054 H         1 9L1         0.0268
     52 H13       -12.8074   39.2794   -6.1987 H         1 9L1         0.0268
     53 H14       -12.9197   40.6032   -8.1865 H         1 9L1         0.0307
     54 H15        -9.3399   41.7890   -4.3480 H         1 9L1         0.0309
     55 H16       -10.6686   42.6161   -5.9606 H         1 9L1         0.0309
     56 H17       -10.7336   38.9967   -4.9375 H         1 9L1         0.0268
     57 H18        -9.8854   40.1482   -6.0243 H         1 9L1         0.0268
     58 H19        -4.7788   46.4318    3.9648 H         1 9L1         0.0556
     59 H20        -7.7029   40.9486   -1.8832 H         1 9L1         0.0268
     60 H21        -9.0808   40.7166   -0.7544 H         1 9L1         0.0268
     61 H22       -12.0887   44.3454   -5.1662 H         1 9L1         0.0268
     62 H23       -13.0071   43.1867   -4.1461 H         1 9L1         0.0268
     63 H24        -9.7257   42.8195    0.1352 H         1 9L1         0.0302
     64 H25       -13.0397   44.1163   -6.8817 H         1 9L1         0.0271
     65 H26       -13.6092   43.0573   -8.2161 H         1 9L1         0.0271
     66 H27       -13.9016   40.7902   -5.3655 H         1 9L1         0.0235
     67 H28       -14.6975   41.4462   -6.8361 H         1 9L1         0.0235
     68 H29       -14.3736   42.5220   -5.4346 H         1 9L1         0.0235
     69 H30        -7.0152   43.8716   -0.8240 H         1 9L1         0.0292
     70 H31        -7.2930   42.2393   -0.1274 H         1 9L1         0.0292
     71 H32       -10.6033   44.7864   -1.0438 H         1 9L1         0.0233
     72 H33        -8.9249   45.3093   -1.4128 H         1 9L1         0.0233
     73 H34        -9.4891   45.2371    0.2911 H         1 9L1         0.0233
     74 H35       -10.6450   40.3589   -8.9702 H         1 9L1         0.0293
     75 H36       -10.0466   41.4083   -7.6409 H         1 9L1         0.0293
     76 H37       -10.7165   43.8473   -7.6295 H         1 9L1         0.0290
     77 H38       -11.7475   44.4601   -8.9666 H         1 9L1         0.0290
     78 H39        -8.2247   43.4760    1.9260 H         1 9L1         0.0508
     79 H40        -7.4678   44.9456    1.2231 H         1 9L1         0.0508
     80 H41       -11.9317   42.2103   -9.8862 H         1 9L1         0.0593
     81 H42        -6.0609   45.2790    2.6758 H         1 9L1         0.2256
     82 H43       -10.0934   43.4774  -10.4777 H         1 9L1         0.2098
@<TRIPOS>BOND
     1    1    2 ar 
     2   24    1 ar 
     3    2    3 ar 
     4    2    4 1  
     5   13    3 ar 
     6    4   34 ar 
     7    4   39 ar 
     8   15    5 1  
     9    5   17 1  
    10    5   18 1  
    11    6   15 1  
    12   20    6 1  
    13    7   16 1  
    14    7   20 1  
    15   22    7 1  
    16   16    8 1  
    17    8   21 1  
    18   16    9 1  
    19   10   12 1  
    20   17   10 1  
    21   10   23 1  
    22   10   25 1  
    23   11   12 1  
    24   18   11 1  
    25   12   28 1  
    26   13   14 1  
    27   19   13 ar 
    28   14   35 ar 
    29   14   36 ar 
    30   16   15 1  
    31   21   17 1  
    32   24   19 ar 
    33   26   22 1  
    34   22   27 1  
    35   23   29 1  
    36   33   24 1  
    37   30   26 1  
    38   28   31 1  
    39   29   31 1  
    40   32   30 1  
    41   31   37 1  
    42   32   33 am 
    43   32   38 2  
    44    1   40 1  
    45    3   41 1  
    46    5   42 1  
    47    6   43 1  
    48    6   44 1  
    49    7   45 1  
    50    8   46 1  
    51    8   47 1  
    52    9   48 1  
    53    9   49 1  
    54    9   50 1  
    55   11   51 1  
    56   11   52 1  
    57   12   53 1  
    58   15   54 1  
    59   17   55 1  
    60   18   56 1  
    61   18   57 1  
    62   19   58 1  
    63   20   59 1  
    64   20   60 1  
    65   21   61 1  
    66   21   62 1  
    67   22   63 1  
    68   23   64 1  
    69   23   65 1  
    70   25   66 1  
    71   25   67 1  
    72   25   68 1  
    73   26   69 1  
    74   26   70 1  
    75   27   71 1  
    76   27   72 1  
    77   27   73 1  
    78   28   74 1  
    79   28   75 1  
    80   29   76 1  
    81   29   77 1  
    82   30   78 1  
    83   30   79 1  
    84   31   80 1  
    85   33   81 1  
    86   37   82 1  
@<TRIPOS>SUBSTRUCTURE
     1 9L1         1

