### 
### Created by X-TOOL on Mon Sep 10 21:13:32 2018
### 

@<TRIPOS>MOLECULE
5q0n_ligand
   60    64     1     0     0
SMALL
GAST_HUCK


@<TRIPOS>ATOM
      1 N1         23.1390   18.0720    3.5530 N.pl3     1 9L4        -0.2159
      2 N3         22.8210   16.3700    2.1240 N.2       1 9L4        -0.3077
      3 C4         24.3670   17.4450    3.4230 C.ar      1 9L4         0.0828
      4 C5         24.1610   16.3980    2.5430 C.ar      1 9L4         0.0286
      5 C6         23.7590   20.4580    4.0640 C.2       1 9L4         0.2379
      6 C7         22.8020   19.2830    4.4160 C.3       1 9L4         0.1630
      7 C8         25.5940   17.7200    4.0070 C.ar      1 9L4        -0.0062
      8 C10        25.2290   15.5690    2.2070 C.ar      1 9L4        -0.0282
      9 C13        27.5300   24.6340    0.6310 C.2       1 9L4         0.0528
     10 C15        26.4510   15.8450    2.7860 C.ar      1 9L4         0.1515
     11 C17        24.4640   22.8450    1.9740 C.ar      1 9L4         0.0633
     12 C21        26.2870   21.2720    1.9360 C.ar      1 9L4        -0.0366
     13 C22        27.1140   22.2700    1.4270 C.ar      1 9L4        -0.0610
     14 C24        19.8130   16.9100    3.1000 C.ar      1 9L4        -0.0442
     15 O20        27.0220   25.8220    0.6680 O.co2     1 9L4        -0.5648
     16 O29        28.6530   24.4000    0.1800 O.co2     1 9L4        -0.5648
     17 C16        26.6260   23.5520    1.1890 C.ar      1 9L4        -0.0049
     18 C12        24.9440   21.5440    2.2160 C.ar      1 9L4         0.0838
     19 N9         24.0810   20.5510    2.7450 N.am      1 9L4        -0.2286
     20 O19        24.1770   21.2220    4.9230 O.2       1 9L4        -0.3808
     21 C23        22.8370   18.9090    5.9220 C.3       1 9L4         0.0063
     22 C34        21.9730   19.8420    6.7680 C.3       1 9L4        -0.0454
     23 C37        22.1040   19.5200    8.2690 C.3       1 9L4        -0.0526
     24 C38        21.7090   18.0640    8.5760 C.3       1 9L4        -0.0530
     25 C36        22.4800   17.0660    7.6920 C.3       1 9L4        -0.0526
     26 C35        22.3860   17.4570    6.1710 C.3       1 9L4        -0.0454
     27 C2         22.2510   17.3840    2.7470 C.2       1 9L4         0.1435
     28 F27        27.5110   15.0680    2.4890 F         1 9L4        -0.1928
     29 C11        26.6250   16.8980    3.6660 C.ar      1 9L4         0.1540
     30 F26        27.8460   17.1190    4.2030 F         1 9L4        -0.1901
     31 C14        20.8220   17.7420    2.6090 C.ar      1 9L4         0.0335
     32 C32        18.4760   17.2650    2.9690 C.ar      1 9L4        -0.0432
     33 C30        18.1540   18.4590    2.3520 C.ar      1 9L4         0.0443
     34 CL33       16.4820   18.9160    2.1900 Cl        1 9L4        -0.0670
     35 C31        19.1310   19.3040    1.8630 C.ar      1 9L4        -0.0432
     36 C25        20.4610   18.9420    1.9940 C.ar      1 9L4        -0.0442
     37 CL28       22.8020   23.2410    2.3040 Cl        1 9L4        -0.0821
     38 C18        25.2870   23.8340    1.4670 C.ar      1 9L4        -0.0472
     39 H1         21.7767   19.6014    4.1765 H         1 9L4         0.0889
     40 H2         25.7257   18.5449    4.6979 H         1 9L4         0.0521
     41 H3         25.1052   14.7408    1.5187 H         1 9L4         0.0527
     42 H4         26.6858   20.2802    2.1160 H         1 9L4         0.0511
     43 H5         28.1527   22.0455    1.2130 H         1 9L4         0.0613
     44 H6         20.0756   15.9783    3.5880 H         1 9L4         0.0660
     45 H7         23.6874   19.8823    2.1142 H         1 9L4         0.2277
     46 H8         23.8788   19.0063    6.2615 H         1 9L4         0.0355
     47 H9         20.9211   19.7268    6.4675 H         1 9L4         0.0270
     48 H10        22.2921   20.8804    6.5953 H         1 9L4         0.0270
     49 H11        21.4468   20.1949    8.8370 H         1 9L4         0.0265
     50 H12        23.1477   19.6788    8.5778 H         1 9L4         0.0265
     51 H13        20.6309   17.9414    8.3951 H         1 9L4         0.0265
     52 H14        21.9303   17.8497    9.6320 H         1 9L4         0.0265
     53 H15        22.0539   16.0614    7.8305 H         1 9L4         0.0265
     54 H16        23.5372   17.0610    7.9958 H         1 9L4         0.0265
     55 H17        23.0292   16.7802    5.5895 H         1 9L4         0.0270
     56 H18        21.3430   17.3467    5.8394 H         1 9L4         0.0270
     57 H19        17.6956   16.6138    3.3459 H         1 9L4         0.0632
     58 H20        18.8603   20.2376    1.3833 H         1 9L4         0.0632
     59 H21        21.2335   19.6003    1.6133 H         1 9L4         0.0660
     60 H22        24.8929   24.8274    1.2855 H         1 9L4         0.0617
@<TRIPOS>BOND
     1    1    3 1  
     2    1    6 1  
     3   27    1 1  
     4    2    4 1  
     5   27    2 2  
     6    4    3 ar 
     7    3    7 ar 
     8    4    8 ar 
     9    6    5 1  
    10    5   19 am 
    11    5   20 2  
    12    6   21 1  
    13    7   29 ar 
    14    8   10 ar 
    15    9   15 ar 
    16    9   16 ar 
    17   17    9 1  
    18   10   28 1  
    19   10   29 ar 
    20   18   11 ar 
    21   11   37 1  
    22   11   38 ar 
    23   12   13 ar 
    24   18   12 ar 
    25   13   17 ar 
    26   31   14 ar 
    27   14   32 ar 
    28   38   17 ar 
    29   19   18 1  
    30   21   22 1  
    31   21   26 1  
    32   22   23 1  
    33   23   24 1  
    34   25   24 1  
    35   26   25 1  
    36   27   31 1  
    37   29   30 1  
    38   31   36 ar 
    39   32   33 ar 
    40   33   34 1  
    41   33   35 ar 
    42   35   36 ar 
    43    6   39 1  
    44    7   40 1  
    45    8   41 1  
    46   12   42 1  
    47   13   43 1  
    48   14   44 1  
    49   19   45 1  
    50   21   46 1  
    51   22   47 1  
    52   22   48 1  
    53   23   49 1  
    54   23   50 1  
    55   24   51 1  
    56   24   52 1  
    57   25   53 1  
    58   25   54 1  
    59   26   55 1  
    60   26   56 1  
    61   32   57 1  
    62   35   58 1  
    63   36   59 1  
    64   38   60 1  
@<TRIPOS>SUBSTRUCTURE
     1 9L4         1

