### 
### Created by X-TOOL on Mon Sep 10 21:13:32 2018
### 

@<TRIPOS>MOLECULE
5q0o_ligand
   76    81     1     0     0
SMALL
GAST_HUCK


@<TRIPOS>ATOM
      1 C4         10.6860   26.5060    2.8580 C.ar      1 9L7        -0.0601
      2 C5         11.8040   25.7580    3.2460 C.ar      1 9L7         0.0352
      3 C6         11.6710   24.7770    4.2260 C.ar      1 9L7         0.0884
      4 C8         13.7810   24.9040    3.4850 C.2       1 9L7         0.1487
      5 C10        13.4160   23.1390    5.2750 C.3       1 9L7         0.1578
      6 N12        12.5580   21.6180    3.6010 N.am      1 9L7        -0.2815
      7 C15        13.3190   23.4700    6.7770 C.3       1 9L7         0.0059
      8 C17        13.4260   25.3100    8.5610 C.3       1 9L7        -0.0526
      9 C20        14.3190   22.6310    7.6050 C.3       1 9L7        -0.0454
     10 C21        10.6450   20.8950    2.2640 C.3       1 9L7        -0.0299
     11 C22         9.9620   19.7030    1.5670 C.3       1 9L7        -0.0510
     12 C24        12.1540   18.5030    1.4420 C.3       1 9L7        -0.0510
     13 C26        17.9310   23.9690    2.8800 C.ar      1 9L7         0.0371
     14 C28        16.9750   23.7560    1.8830 C.ar      1 9L7        -0.0392
     15 C1          9.4610   26.2550    3.4670 C.ar      1 9L7        -0.0755
     16 C2          9.3400   25.2630    4.4590 C.ar      1 9L7        -0.0738
     17 C3         10.4560   24.5080    4.8510 C.ar      1 9L7        -0.0383
     18 N9         13.1300   25.8230    2.7900 N.2       1 9L7        -0.3015
     19 N7         12.9670   24.2340    4.3720 N.pl3     1 9L7        -0.2125
     20 C11        12.6820   21.8490    4.9110 C.2       1 9L7         0.2093
     21 O13        12.2440   21.0970    5.7760 O.2       1 9L7        -0.3938
     22 C14        11.8920   20.4550    3.0390 C.3       1 9L7         0.0421
     23 C23        10.9400   18.9740    0.6530 C.3       1 9L7        -0.0529
     24 C25        12.8610   19.6790    2.1330 C.3       1 9L7        -0.0299
     25 C16        13.5570   24.9910    7.0660 C.3       1 9L7        -0.0454
     26 C18        14.3990   24.4700    9.4010 C.3       1 9L7        -0.0530
     27 C19        14.2230   22.9550    9.1310 C.3       1 9L7        -0.0526
     28 C36        15.2180   24.6080    3.3130 C.ar      1 9L7         0.0384
     29 C32        15.6390   24.0660    2.0980 C.ar      1 9L7        -0.0392
     30 C27        19.3810   23.6370    2.6640 C.2       1 9L7         0.1624
     31 O31        20.2330   24.2250    3.3180 O.2       1 9L7        -0.3661
     32 C30        19.8130   22.5890    1.6610 C.ar      1 9L7         0.0345
     33 C34        20.9760   22.7840    0.9050 C.ar      1 9L7        -0.0434
     34 C37        21.3890   21.8310   -0.0250 C.ar      1 9L7        -0.0561
     35 C39        20.6550   20.6730   -0.2110 C.ar      1 9L7        -0.0574
     36 C38        19.4990   20.4620    0.5330 C.ar      1 9L7        -0.0561
     37 C35        19.0780   21.4110    1.4660 C.ar      1 9L7        -0.0434
     38 C29        17.5100   24.5040    4.1020 C.ar      1 9L7        -0.0392
     39 C33        16.1720   24.8170    4.3190 C.ar      1 9L7        -0.0392
     40 H1         10.7738   27.2699    2.0939 H         1 9L7         0.0557
     41 H2         14.4834   22.9741    5.0667 H         1 9L7         0.0885
     42 H3         12.9476   22.2869    2.9679 H         1 9L7         0.1855
     43 H4         12.3012   23.2162    7.1083 H         1 9L7         0.0354
     44 H5         12.3968   25.0947    8.8840 H         1 9L7         0.0265
     45 H6         13.6448   26.3762    8.7199 H         1 9L7         0.0265
     46 H7         15.3398   22.8490    7.2581 H         1 9L7         0.0270
     47 H8         14.1001   21.5638    7.4530 H         1 9L7         0.0270
     48 H9          9.9328   21.3550    2.9648 H         1 9L7         0.0287
     49 H10        10.9393   21.6329    1.5032 H         1 9L7         0.0287
     50 H11         9.1164   20.0722    0.9682 H         1 9L7         0.0266
     51 H12         9.5925   19.0028    2.3306 H         1 9L7         0.0266
     52 H13        12.8603   18.0140    0.7550 H         1 9L7         0.0266
     53 H14        11.8273   17.7824    2.2061 H         1 9L7         0.0266
     54 H15        17.2810   23.3430    0.9286 H         1 9L7         0.0677
     55 H16         8.5895   26.8296    3.1746 H         1 9L7         0.0526
     56 H17         8.3775   25.0812    4.9234 H         1 9L7         0.0550
     57 H18        10.3751   23.7420    5.6138 H         1 9L7         0.0548
     58 H19        11.5785   19.7950    3.8612 H         1 9L7         0.0556
     59 H20        11.2687   19.6568   -0.1443 H         1 9L7         0.0265
     60 H21        10.4381   18.1031    0.2062 H         1 9L7         0.0265
     61 H22        13.2580   20.3600    1.3658 H         1 9L7         0.0287
     62 H23        13.6899   19.2910    2.7432 H         1 9L7         0.0287
     63 H24        12.8140   25.5806    6.5090 H         1 9L7         0.0270
     64 H25        14.5683   25.2640    6.7302 H         1 9L7         0.0270
     65 H26        14.2122   24.6668   10.4670 H         1 9L7         0.0265
     66 H27        15.4299   24.7600    9.1498 H         1 9L7         0.0265
     67 H28        15.0111   22.4029    9.6641 H         1 9L7         0.0265
     68 H29        13.2375   22.6377    9.5026 H         1 9L7         0.0265
     69 H30        14.9141   23.8849    1.3126 H         1 9L7         0.0672
     70 H31        21.5613   23.6857    1.0446 H         1 9L7         0.0670
     71 H32        22.2894   21.9980   -0.6051 H         1 9L7         0.0630
     72 H33        20.9796   19.9331   -0.9337 H         1 9L7         0.0654
     73 H34        18.9220   19.5559    0.3876 H         1 9L7         0.0630
     74 H35        18.1773   21.2362    2.0433 H         1 9L7         0.0670
     75 H36        18.2349   24.6767    4.8892 H         1 9L7         0.0677
     76 H37        15.8642   25.2262    5.2745 H         1 9L7         0.0672
@<TRIPOS>BOND
     1    2    1 ar 
     2    1   15 ar 
     3    3    2 ar 
     4   18    2 1  
     5    3   17 ar 
     6   19    3 1  
     7    4   18 2  
     8    4   19 1  
     9   28    4 1  
    10    5    7 1  
    11   19    5 1  
    12    5   20 1  
    13   20    6 am 
    14    6   22 1  
    15    7    9 1  
    16    7   25 1  
    17   25    8 1  
    18    8   26 1  
    19    9   27 1  
    20   10   11 1  
    21   22   10 1  
    22   11   23 1  
    23   12   23 1  
    24   24   12 1  
    25   14   13 ar 
    26   13   30 1  
    27   13   38 ar 
    28   29   14 ar 
    29   16   15 ar 
    30   17   16 ar 
    31   20   21 2  
    32   22   24 1  
    33   27   26 1  
    34   28   29 ar 
    35   28   39 ar 
    36   30   31 2  
    37   30   32 1  
    38   32   33 ar 
    39   32   37 ar 
    40   33   34 ar 
    41   34   35 ar 
    42   35   36 ar 
    43   36   37 ar 
    44   38   39 ar 
    45    1   40 1  
    46    5   41 1  
    47    6   42 1  
    48    7   43 1  
    49    8   44 1  
    50    8   45 1  
    51    9   46 1  
    52    9   47 1  
    53   10   48 1  
    54   10   49 1  
    55   11   50 1  
    56   11   51 1  
    57   12   52 1  
    58   12   53 1  
    59   14   54 1  
    60   15   55 1  
    61   16   56 1  
    62   17   57 1  
    63   22   58 1  
    64   23   59 1  
    65   23   60 1  
    66   24   61 1  
    67   24   62 1  
    68   25   63 1  
    69   25   64 1  
    70   26   65 1  
    71   26   66 1  
    72   27   67 1  
    73   27   68 1  
    74   29   69 1  
    75   33   70 1  
    76   34   71 1  
    77   35   72 1  
    78   36   73 1  
    79   37   74 1  
    80   38   75 1  
    81   39   76 1  
@<TRIPOS>SUBSTRUCTURE
     1 9L7         1

