### 
### Created by X-TOOL on Mon Sep 10 21:13:34 2018
### 

@<TRIPOS>MOLECULE
5q0p_ligand
   60    64     1     0     0
SMALL
GAST_HUCK


@<TRIPOS>ATOM
      1 N1         13.2160   24.1850    3.9470 N.pl3     1 9LA        -0.2322
      2 N3         13.4990   25.6820    2.2890 N.2       1 9LA        -0.3078
      3 C4         11.9940   24.8660    3.8110 C.ar      1 9LA         0.0804
      4 C5         12.1930   25.7860    2.7800 C.ar      1 9LA         0.0285
      5 C6         10.7890   24.7450    4.4920 C.ar      1 9LA        -0.0063
      6 C7         13.5760   23.0860    4.8930 C.3       1 9LA         0.0962
      7 C8         11.1430   26.6310    2.4020 C.ar      1 9LA        -0.0282
      8 C10        15.4560   24.2620    2.8250 C.ar      1 9LA         0.0334
      9 C13        12.7070   21.8560    4.6300 C.3       1 9LA         0.1004
     10 C17        13.5840   23.5520    6.3530 C.3       1 9LA        -0.0092
     11 C20        10.0300   19.0820    2.9600 C.ar      1 9LA        -0.0562
     12 C21        10.7710   19.7040    0.7660 C.ar      1 9LA        -0.0562
     13 C24        11.6390   20.8500    2.6930 C.ar      1 9LA         0.0945
     14 C26        18.0590   23.3580    2.5020 C.ar      1 9LA         0.0443
     15 C28        11.5960   20.6770    1.3150 C.ar      1 9LA        -0.0292
     16 O16        12.4730   21.8220    3.2040 O.3       1 9LA        -0.3130
     17 C27        10.8520   20.0510    3.5150 C.ar      1 9LA        -0.0292
     18 C14         9.9760   18.8950    1.5790 C.ar      1 9LA        -0.0010
     19 C12         9.0880   17.8520    0.9840 C.2       1 9LA         0.0557
     20 O15         8.8890   17.9590   -0.2980 O.co2     1 9LA        -0.5636
     21 O25         8.5820   16.9590    1.6500 O.co2     1 9LA        -0.5636
     22 C32        13.9200   22.4180    7.3220 C.3       1 9LA        -0.0474
     23 C34        13.9000   22.8890    8.7770 C.3       1 9LA        -0.0527
     24 C36        14.8510   24.0520    9.0010 C.3       1 9LA        -0.0530
     25 C35        14.5600   25.1980    8.0350 C.3       1 9LA        -0.0527
     26 C33        14.5540   24.7170    6.5760 C.3       1 9LA        -0.0474
     27 C9          9.7780   25.5850    4.1030 C.ar      1 9LA         0.1540
     28 C11         9.9480   26.5040    3.0840 C.ar      1 9LA         0.1515
     29 C2         14.0640   24.7240    3.0020 C.2       1 9LA         0.1415
     30 C18        15.7260   23.1170    2.0750 C.ar      1 9LA        -0.0442
     31 C30        17.0260   22.6620    1.9100 C.ar      1 9LA        -0.0432
     32 C29        17.8220   24.4900    3.2540 C.ar      1 9LA        -0.0432
     33 C19        16.5190   24.9370    3.4160 C.ar      1 9LA        -0.0442
     34 CL31       19.6990   22.7930    2.3020 Cl        1 9LA        -0.0670
     35 F23         8.9160   27.2930    2.7570 F         1 9LA        -0.1928
     36 F22         8.5570   25.5080    4.7410 F         1 9LA        -0.1901
     37 H1         10.6552   24.0235    5.2899 H         1 9LA         0.0521
     38 H2         14.6105   22.7922    4.6618 H         1 9LA         0.0665
     39 H3         11.2627   27.3565    1.6055 H         1 9LA         0.0527
     40 H4         11.7528   21.9411    5.1706 H         1 9LA         0.0645
     41 H5         13.2307   20.9438    4.9518 H         1 9LA         0.0645
     42 H6         12.5700   23.9069    6.5891 H         1 9LA         0.0330
     43 H7          9.4214   18.4617    3.6080 H         1 9LA         0.0623
     44 H8         10.7442   19.5710   -0.3095 H         1 9LA         0.0623
     45 H9         12.2050   21.3000    0.6700 H         1 9LA         0.0551
     46 H10        10.8811   20.1857    4.5902 H         1 9LA         0.0551
     47 H11        14.9233   22.0337    7.0861 H         1 9LA         0.0269
     48 H12        13.1805   21.6131    7.1982 H         1 9LA         0.0269
     49 H13        14.1987   22.0533    9.4270 H         1 9LA         0.0265
     50 H14        12.8793   23.2077    9.0351 H         1 9LA         0.0265
     51 H15        15.8836   23.7059    8.8462 H         1 9LA         0.0265
     52 H16        14.7368   24.4151   10.0330 H         1 9LA         0.0265
     53 H17        15.3340   25.9705    8.1534 H         1 9LA         0.0265
     54 H18        13.5753   25.6258    8.2743 H         1 9LA         0.0265
     55 H19        14.2559   25.5547    5.9284 H         1 9LA         0.0269
     56 H20        15.5690   24.3889    6.3073 H         1 9LA         0.0269
     57 H21        14.9079   22.5750    1.6145 H         1 9LA         0.0660
     58 H22        17.2270   21.7723    1.3243 H         1 9LA         0.0632
     59 H23        18.6455   25.0246    3.7135 H         1 9LA         0.0632
     60 H24        16.3268   25.8230    4.0103 H         1 9LA         0.0660
@<TRIPOS>BOND
     1    1    3 1  
     2    1    6 1  
     3   29    1 1  
     4    2    4 1  
     5   29    2 2  
     6    4    3 ar 
     7    3    5 ar 
     8    4    7 ar 
     9    5   27 ar 
    10    6    9 1  
    11    6   10 1  
    12    7   28 ar 
    13    8   29 1  
    14   30    8 ar 
    15    8   33 ar 
    16    9   16 1  
    17   10   22 1  
    18   10   26 1  
    19   17   11 ar 
    20   11   18 ar 
    21   15   12 ar 
    22   12   18 ar 
    23   13   15 ar 
    24   16   13 1  
    25   13   17 ar 
    26   31   14 ar 
    27   14   32 ar 
    28   14   34 1  
    29   18   19 1  
    30   19   20 ar 
    31   19   21 ar 
    32   22   23 1  
    33   23   24 1  
    34   25   24 1  
    35   26   25 1  
    36   28   27 ar 
    37   27   36 1  
    38   28   35 1  
    39   30   31 ar 
    40   32   33 ar 
    41    5   37 1  
    42    6   38 1  
    43    7   39 1  
    44    9   40 1  
    45    9   41 1  
    46   10   42 1  
    47   11   43 1  
    48   12   44 1  
    49   15   45 1  
    50   17   46 1  
    51   22   47 1  
    52   22   48 1  
    53   23   49 1  
    54   23   50 1  
    55   24   51 1  
    56   24   52 1  
    57   25   53 1  
    58   25   54 1  
    59   26   55 1  
    60   26   56 1  
    61   30   57 1  
    62   31   58 1  
    63   32   59 1  
    64   33   60 1  
@<TRIPOS>SUBSTRUCTURE
     1 9LA         1

