### 
### Created by X-TOOL on Mon Sep 10 21:13:34 2018
### 

@<TRIPOS>MOLECULE
5q0q_ligand
   61    65     1     0     0
SMALL
GAST_HUCK


@<TRIPOS>ATOM
      1 N3        -28.9080   -4.0370  -13.0910 N.pl3     1 9LD        -0.1602
      2 C7        -31.4290   -3.5180  -13.1460 C.2       1 9LD         0.2530
      3 C8        -28.4870   -4.2980  -15.1800 C.2       1 9LD         0.0290
      4 C10       -30.7400   -3.9250  -16.3260 C.3       1 9LD         0.0555
      5 C13       -35.6300   -0.7550   -8.6620 C.2       1 9LD         0.2512
      6 C17       -28.5290   -3.9970  -11.6500 C.ar      1 9LD         0.1071
      7 C20       -34.5280   -1.2540   -9.5330 C.ar      1 9LD         0.0458
      8 C21       -32.8900   -5.3620  -18.9350 C.2       1 9LD        -0.0523
      9 C22       -32.3070   -7.4390  -19.7710 C.2       1 9LD        -0.0067
     10 C24       -33.2950   -6.6840  -19.2640 C.2       1 9LD        -0.0774
     11 C26       -33.2220   -0.7620   -9.4260 C.ar      1 9LD        -0.0541
     12 C34       -35.2280    0.5280   -5.2480 C.3       1 9LD        -0.0373
     13 C33       -35.7820   -0.3970   -6.2550 C.3       1 9LD         0.0726
     14 O28       -35.1710   -0.0700   -7.5990 O.3       1 9LD        -0.2801
     15 O23       -36.8030   -0.9400   -8.8770 O.2       1 9LD        -0.3648
     16 C29       -32.2120   -1.2410  -10.2430 C.ar      1 9LD        -0.0347
     17 C25       -32.4850   -2.2190  -11.1940 C.ar      1 9LD         0.0715
     18 N11       -31.3870   -2.7190  -12.0460 N.am      1 9LD        -0.2301
     19 O19       -32.4680   -3.9600  -13.6320 O.2       1 9LD        -0.3776
     20 C1        -30.1230   -3.8360  -13.7530 C.2       1 9LD         0.1742
     21 C2        -29.8660   -4.0060  -15.1150 C.2       1 9LD         0.0182
     22 N6        -29.9060   -3.8970  -17.5610 N.am      1 9LD        -0.2249
     23 C18       -28.8060   -4.8990  -17.5440 C.3       1 9LD         0.0400
     24 C16       -27.7820   -4.5490  -16.4730 C.3       1 9LD         0.0033
     25 N5        -27.9040   -4.3210  -14.0110 N.2       1 9LD        -0.2066
     26 C31       -29.4450   -4.3640  -10.6650 C.ar      1 9LD        -0.0264
     27 C36       -29.0720   -4.3210   -9.3260 C.ar      1 9LD        -0.0661
     28 C37       -27.7990   -3.9230   -8.9630 C.ar      1 9LD        -0.0689
     29 C35       -26.8840   -3.5630   -9.9370 C.ar      1 9LD        -0.0661
     30 C32       -27.2380   -3.5970  -11.2810 C.ar      1 9LD        -0.0264
     31 S4        -30.6940   -3.7070  -18.9650 S.o2      1 9LD         0.0805
     32 O14       -31.6420   -2.6530  -18.7830 O.2       1 9LD        -0.1496
     33 O15       -29.7060   -3.5900  -19.9890 O.2       1 9LD        -0.1496
     34 C9        -31.5650   -5.1830  -19.2260 C.2       1 9LD         0.1605
     35 S12       -30.8330   -6.5900  -19.8790 S.3       1 9LD        -0.0178
     36 C30       -33.7830   -2.7180  -11.3030 C.ar      1 9LD        -0.0347
     37 C27       -34.7900   -2.2370  -10.4840 C.ar      1 9LD        -0.0541
     38 H1        -31.3463   -3.0085  -16.2761 H         1 9LD         0.0588
     39 H2        -31.4031   -4.8022  -16.3551 H         1 9LD         0.0588
     40 H3        -33.5419   -4.5995  -18.5113 H         1 9LD         0.0423
     41 H4        -32.4332   -8.4761  -20.0783 H         1 9LD         0.0711
     42 H5        -34.3103   -7.0500  -19.1187 H         1 9LD         0.0404
     43 H6        -32.9982    0.0048   -8.6932 H         1 9LD         0.0632
     44 H7        -35.6638    0.3021   -4.2636 H         1 9LD         0.0255
     45 H8        -35.4717    1.5635   -5.5279 H         1 9LD         0.0255
     46 H9        -34.1356    0.4081   -5.2016 H         1 9LD         0.0255
     47 H10       -36.8744   -0.2783   -6.3059 H         1 9LD         0.0608
     48 H11       -35.5383   -1.4337   -5.9796 H         1 9LD         0.0608
     49 H12       -31.2051   -0.8526  -10.1413 H         1 9LD         0.0518
     50 H13       -30.4714   -2.4247  -11.7718 H         1 9LD         0.2273
     51 H14       -28.3121   -4.9110  -18.5268 H         1 9LD         0.0499
     52 H15       -29.2256   -5.8935  -17.3323 H         1 9LD         0.0499
     53 H16       -27.0773   -5.3848  -16.3512 H         1 9LD         0.0425
     54 H17       -27.2310   -3.6454  -16.7727 H         1 9LD         0.0425
     55 H18       -30.4438   -4.6815  -10.9418 H         1 9LD         0.0583
     56 H19       -29.7858   -4.6021   -8.5602 H         1 9LD         0.0599
     57 H20       -27.5177   -3.8929   -7.9166 H         1 9LD         0.0556
     58 H21       -25.8857   -3.2528   -9.6503 H         1 9LD         0.0599
     59 H22       -26.5178   -3.3151  -12.0406 H         1 9LD         0.0583
     60 H23       -34.0046   -3.4874  -12.0338 H         1 9LD         0.0518
     61 H24       -35.7951   -2.6304  -10.5842 H         1 9LD         0.0632
@<TRIPOS>BOND
     1    1    6 1  
     2   20    1 1  
     3   25    1 1  
     4    2   18 am 
     5    2   19 2  
     6   20    2 1  
     7   21    3 1  
     8   24    3 1  
     9    3   25 2  
    10    4   21 1  
    11   22    4 1  
    12    7    5 1  
    13    5   14 1  
    14    5   15 2  
    15    6   26 ar 
    16    6   30 ar 
    17   11    7 ar 
    18    7   37 ar 
    19    8   10 1  
    20   34    8 2  
    21   10    9 2  
    22    9   35 1  
    23   16   11 ar 
    24   13   12 1  
    25   14   13 1  
    26   17   16 ar 
    27   18   17 1  
    28   17   36 ar 
    29   21   20 2  
    30   22   23 1  
    31   31   22 am 
    32   23   24 1  
    33   26   27 ar 
    34   27   28 ar 
    35   29   28 ar 
    36   30   29 ar 
    37   31   32 2  
    38   31   33 2  
    39   31   34 1  
    40   34   35 1  
    41   36   37 ar 
    42    4   38 1  
    43    4   39 1  
    44    8   40 1  
    45    9   41 1  
    46   10   42 1  
    47   11   43 1  
    48   12   44 1  
    49   12   45 1  
    50   12   46 1  
    51   13   47 1  
    52   13   48 1  
    53   16   49 1  
    54   18   50 1  
    55   23   51 1  
    56   23   52 1  
    57   24   53 1  
    58   24   54 1  
    59   26   55 1  
    60   27   56 1  
    61   28   57 1  
    62   29   58 1  
    63   30   59 1  
    64   36   60 1  
    65   37   61 1  
@<TRIPOS>SUBSTRUCTURE
     1 9LD         1

