### 
### Created by X-TOOL on Mon Sep 10 21:13:33 2018
### 

@<TRIPOS>MOLECULE
5q0r_ligand
   62    66     1     0     0
SMALL
GAST_HUCK


@<TRIPOS>ATOM
      1 C4         31.6950   31.1700   -0.4110 C.2       1 9LG         0.1138
      2 C6         31.7510   31.0670   -7.3360 C.ar      1 9LG         0.1417
      3 C7         30.5080   31.7910   -2.2340 C.2       1 9LG        -0.0536
      4 C8         30.6750   32.0130   -0.9260 C.2       1 9LG        -0.0683
      5 C10        32.2380   31.0220    0.9480 C.2       1 9LG         0.2088
      6 C13        33.1860   29.3590   -1.5520 C.3       1 9LG         0.0855
      7 C15        30.1350   32.2590   -4.6180 C.3       1 9LG         0.0348
      8 C17        29.5710   32.4170   -3.2210 C.3       1 9LG        -0.0234
      9 C21        32.6960   30.2000   -7.8760 C.ar      1 9LG        -0.0369
     10 C22        32.6310   28.0050   -1.1930 C.ar      1 9LG        -0.0133
     11 C24        33.0040   32.9620   -8.1740 C.ar      1 9LG        -0.0262
     12 C26        32.1860   27.1330   -2.1820 C.ar      1 9LG        -0.0577
     13 C28        33.2820   32.1110    5.1040 C.ar      1 9LG        -0.0584
     14 F20        31.0140   33.2870   -6.9820 F         1 9LG        -0.1813
     15 C16        31.9270   32.4360   -7.5000 C.ar      1 9LG         0.1589
     16 C30        33.9400   32.0880   -8.7060 C.ar      1 9LG        -0.0635
     17 C29        33.7870   30.7210   -8.5600 C.ar      1 9LG        -0.0640
     18 S1         30.3720   30.3540   -6.4730 S.o2      1 9LG         0.0731
     19 O11        30.5650   28.9390   -6.4900 O.2       1 9LG        -0.1505
     20 O12        29.1770   30.9110   -7.0260 O.2       1 9LG        -0.1505
     21 N5         30.4260   30.8210   -4.9010 N.am      1 9LG        -0.2215
     22 O18        33.3940   30.6620    1.1550 O.2       1 9LG        -0.3975
     23 N14        31.3710   31.3050    1.9350 N.am      1 9LG        -0.2778
     24 C19        31.7120   31.2080    3.3600 C.3       1 9LG         0.0632
     25 C23        32.4490   32.3550    4.0140 C.ar      1 9LG        -0.0212
     26 C27        32.3150   33.6650    3.5620 C.ar      1 9LG        -0.0584
     27 C33        33.0020   34.7050    4.1800 C.ar      1 9LG        -0.0685
     28 C35        33.8280   34.4510    5.2600 C.ar      1 9LG        -0.0687
     29 C34        33.9710   33.1540    5.7240 C.ar      1 9LG        -0.0685
     30 N2         32.1610   30.3980   -1.4820 N.pl3     1 9LG        -0.2559
     31 C25        32.5450   27.6040    0.1390 C.ar      1 9LG        -0.0577
     32 C31        32.0290   26.3550    0.4720 C.ar      1 9LG        -0.0685
     33 C36        31.5920   25.4980   -0.5180 C.ar      1 9LG        -0.0687
     34 C32        31.6720   25.8880   -1.8470 C.ar      1 9LG        -0.0685
     35 C3         31.3940   30.7980   -2.6540 C.2       1 9LG         0.0636
     36 C9         31.5210   30.2660   -4.0540 C.3       1 9LG         0.0817
     37 H1         30.1100   32.7363   -0.3400 H         1 9LG         0.0325
     38 H2         33.5855   29.3206   -2.5761 H         1 9LG         0.0776
     39 H3         33.9962   29.6096   -0.8515 H         1 9LG         0.0776
     40 H4         31.0650   32.8405   -4.7017 H         1 9LG         0.0492
     41 H5         29.4025   32.6315   -5.3492 H         1 9LG         0.0492
     42 H6         29.4554   33.4863   -2.9904 H         1 9LG         0.0347
     43 H7         28.5909   31.9212   -3.1624 H         1 9LG         0.0347
     44 H8         32.5818   29.1279   -7.7639 H         1 9LG         0.0627
     45 H9         33.1186   34.0340   -8.2867 H         1 9LG         0.0604
     46 H10        32.2413   27.4288   -3.2234 H         1 9LG         0.0558
     47 H11        33.3961   31.0988    5.4748 H         1 9LG         0.0557
     48 H12        34.7982   32.4791   -9.2404 H         1 9LG         0.0607
     49 H13        34.5255   30.0499   -8.9834 H         1 9LG         0.0583
     50 H14        30.4472   31.5963    1.6865 H         1 9LG         0.1859
     51 H15        32.3369   30.3111    3.4822 H         1 9LG         0.0681
     52 H16        30.7684   31.0752    3.9096 H         1 9LG         0.0681
     53 H17        31.6678   33.8771    2.7187 H         1 9LG         0.0557
     54 H18        32.8895   35.7189    3.8135 H         1 9LG         0.0599
     55 H19        34.3609   35.2633    5.7409 H         1 9LG         0.0559
     56 H20        34.6183   32.9490    6.5690 H         1 9LG         0.0599
     57 H21        32.8833   28.2714    0.9233 H         1 9LG         0.0558
     58 H22        31.9701   26.0543    1.5118 H         1 9LG         0.0599
     59 H23        31.1886   24.5259   -0.2585 H         1 9LG         0.0559
     60 H24        31.3315   25.2172   -2.6275 H         1 9LG         0.0599
     61 H25        32.4940   30.5638   -4.4719 H         1 9LG         0.0649
     62 H26        31.4499   29.1685   -4.0364 H         1 9LG         0.0649
@<TRIPOS>BOND
     1    1    4 2  
     2    5    1 1  
     3    1   30 1  
     4    2    9 ar 
     5    2   15 ar 
     6   18    2 1  
     7    4    3 1  
     8    3    8 1  
     9    3   35 2  
    10    5   22 2  
    11   23    5 am 
    12    6   10 1  
    13   30    6 1  
    14    8    7 1  
    15    7   21 1  
    16    9   17 ar 
    17   10   12 ar 
    18   10   31 ar 
    19   15   11 ar 
    20   11   16 ar 
    21   12   34 ar 
    22   25   13 ar 
    23   13   29 ar 
    24   15   14 1  
    25   17   16 ar 
    26   18   19 2  
    27   18   20 2  
    28   21   18 am 
    29   21   36 1  
    30   24   23 1  
    31   24   25 1  
    32   25   26 ar 
    33   26   27 ar 
    34   27   28 ar 
    35   28   29 ar 
    36   30   35 1  
    37   31   32 ar 
    38   32   33 ar 
    39   33   34 ar 
    40   35   36 1  
    41    4   37 1  
    42    6   38 1  
    43    6   39 1  
    44    7   40 1  
    45    7   41 1  
    46    8   42 1  
    47    8   43 1  
    48    9   44 1  
    49   11   45 1  
    50   12   46 1  
    51   13   47 1  
    52   16   48 1  
    53   17   49 1  
    54   23   50 1  
    55   24   51 1  
    56   24   52 1  
    57   26   53 1  
    58   27   54 1  
    59   28   55 1  
    60   29   56 1  
    61   31   57 1  
    62   32   58 1  
    63   33   59 1  
    64   34   60 1  
    65   36   61 1  
    66   36   62 1  
@<TRIPOS>SUBSTRUCTURE
     1 9LG         1

