### 
### Created by X-TOOL on Mon Sep 10 21:13:33 2018
### 

@<TRIPOS>MOLECULE
5q0s_ligand
   59    63     1     0     0
SMALL
GAST_HUCK


@<TRIPOS>ATOM
      1 C4         11.0100   26.6580    2.4750 C.ar      1 9LJ        -0.0282
      2 C7         12.1020   25.8690    2.8400 C.ar      1 9LJ         0.0286
      3 C8         11.9450   24.8790    3.8090 C.ar      1 9LJ         0.0828
      4 C10        14.0430   24.9450    3.0500 C.2       1 9LJ         0.1435
      5 C13        15.7990   23.4780    2.1310 C.ar      1 9LJ        -0.0442
      6 C15        18.1200   23.8900    2.4740 C.ar      1 9LJ         0.0443
      7 C17        16.4990   25.3840    3.4070 C.ar      1 9LJ        -0.0442
      8 C20        13.5330   23.4890    6.3230 C.3       1 9LJ         0.0064
      9 C21        12.8640   21.8430    4.3910 C.2       1 9LJ         0.2410
     10 C24        14.4010   22.5290    7.1480 C.3       1 9LJ        -0.0454
     11 C26        14.7810   24.2750    8.9170 C.3       1 9LJ        -0.0530
     12 C28        13.9580   24.9470    6.6200 C.3       1 9LJ        -0.0454
     13 C1          9.8030   26.4120    3.1050 C.ar      1 9LJ         0.1515
     14 C2          9.6670   25.4210    4.0710 C.ar      1 9LJ         0.1540
     15 C3         10.7290   24.6280    4.4470 C.ar      1 9LJ        -0.0062
     16 N11        13.4210   25.8940    2.3750 N.2       1 9LJ        -0.3077
     17 N9         13.2130   24.2930    3.9410 N.pl3     1 9LJ        -0.2158
     18 C19        13.6210   23.1700    4.8220 C.3       1 9LJ         0.1637
     19 C25        14.3500   22.8480    8.6420 C.3       1 9LJ        -0.0526
     20 C27        13.9330   25.2650    8.1280 C.3       1 9LJ        -0.0526
     21 O23        12.6010   20.9600    5.2010 O.2       1 9LJ        -0.3792
     22 N22        12.5480   21.7880    3.0740 N.am      1 9LJ        -0.2218
     23 C29        11.8760   20.7620    2.3540 C.ar      1 9LJ         0.1040
     24 C30        12.5860   19.5880    2.0070 C.ar      1 9LJ         0.1148
     25 C31        11.9540   18.5650    1.2990 C.ar      1 9LJ        -0.0402
     26 C32        10.6240   18.6930    0.9320 C.ar      1 9LJ        -0.0656
     27 C33         9.9170   19.8340    1.2620 C.ar      1 9LJ        -0.0664
     28 C34        10.5320   20.8740    1.9700 C.ar      1 9LJ        -0.0287
     29 C35        13.9660   19.4410    2.3850 C.1       1 9LJ         0.0847
     30 N36        15.0600   19.3590    2.7010 N.1       1 9LJ        -0.3439
     31 C12        15.4690   24.6150    2.8670 C.ar      1 9LJ         0.0335
     32 C14        17.1210   23.1140    1.9340 C.ar      1 9LJ        -0.0432
     33 C16        17.8290   25.0250    3.2100 C.ar      1 9LJ        -0.0432
     34 CL18       19.7840   23.4270    2.2240 Cl        1 9LJ        -0.0670
     35 F6          8.4600   25.2330    4.6520 F         1 9LJ        -0.1901
     36 F5          8.7270   27.1510    2.7760 F         1 9LJ        -0.1928
     37 H1         11.1042   27.4352    1.7252 H         1 9LJ         0.0527
     38 H2         15.0089   22.8693    1.7063 H         1 9LJ         0.0660
     39 H3         16.2617   26.2695    3.9855 H         1 9LJ         0.0660
     40 H4         12.4856   23.3640    6.6348 H         1 9LJ         0.0355
     41 H5         15.4428   22.6080    6.8038 H         1 9LJ         0.0270
     42 H6         14.0402   21.5016    6.9922 H         1 9LJ         0.0270
     43 H7         15.8354   24.3942    8.6272 H         1 9LJ         0.0265
     44 H8         14.6702   24.4832    9.9914 H         1 9LJ         0.0265
     45 H9         13.2678   25.6296    6.1026 H         1 9LJ         0.0270
     46 H10        14.9793   25.1023    6.2421 H         1 9LJ         0.0270
     47 H11        10.6260   23.8520    5.1969 H         1 9LJ         0.0521
     48 H12        14.6883   22.9936    4.6224 H         1 9LJ         0.0890
     49 H13        15.0220   22.1615    9.1779 H         1 9LJ         0.0265
     50 H14        13.3202   22.7092    9.0028 H         1 9LJ         0.0265
     51 H15        14.3264   26.2799    8.2866 H         1 9LJ         0.0265
     52 H16        12.8948   25.2138    8.4877 H         1 9LJ         0.0265
     53 H17        12.8268   22.5809    2.5321 H         1 9LJ         0.2319
     54 H18        12.5043   17.6689    1.0358 H         1 9LJ         0.0676
     55 H19        10.1360   17.8952    0.3839 H         1 9LJ         0.0516
     56 H20         8.8770   19.9246    0.9701 H         1 9LJ         0.0648
     57 H21         9.9691   21.7657    2.2212 H         1 9LJ         0.0532
     58 H22        17.3655   22.2272    1.3605 H         1 9LJ         0.0632
     59 H23        18.6274   25.6273    3.6281 H         1 9LJ         0.0632
@<TRIPOS>BOND
     1    2    1 ar 
     2    1   13 ar 
     3    3    2 ar 
     4   16    2 1  
     5    3   15 ar 
     6   17    3 1  
     7    4   16 2  
     8   17    4 1  
     9    4   31 1  
    10   31    5 ar 
    11    5   32 ar 
    12   32    6 ar 
    13   33    6 ar 
    14    6   34 1  
    15   31    7 ar 
    16    7   33 ar 
    17    8   10 1  
    18    8   12 1  
    19   18    8 1  
    20   18    9 1  
    21    9   21 2  
    22    9   22 am 
    23   10   19 1  
    24   19   11 1  
    25   20   11 1  
    26   12   20 1  
    27   14   13 ar 
    28   13   36 1  
    29   15   14 ar 
    30   14   35 1  
    31   17   18 1  
    32   22   23 1  
    33   23   24 ar 
    34   23   28 ar 
    35   24   25 ar 
    36   24   29 1  
    37   25   26 ar 
    38   26   27 ar 
    39   27   28 ar 
    40   29   30 3  
    41    1   37 1  
    42    5   38 1  
    43    7   39 1  
    44    8   40 1  
    45   10   41 1  
    46   10   42 1  
    47   11   43 1  
    48   11   44 1  
    49   12   45 1  
    50   12   46 1  
    51   15   47 1  
    52   18   48 1  
    53   19   49 1  
    54   19   50 1  
    55   20   51 1  
    56   20   52 1  
    57   22   53 1  
    58   25   54 1  
    59   26   55 1  
    60   27   56 1  
    61   28   57 1  
    62   32   58 1  
    63   33   59 1  
@<TRIPOS>SUBSTRUCTURE
     1 9LJ         1

