### 
### Created by X-TOOL on Mon Sep 10 21:13:32 2018
### 

@<TRIPOS>MOLECULE
5q0t_ligand
   52    55     1     0     0
SMALL
GAST_HUCK


@<TRIPOS>ATOM
      1 C4         42.6760   11.7390    0.8830 C.2       1 9LM         0.0767
      2 C7         42.2620    9.4840    4.6880 C.3       1 9LM         0.0344
      3 C8         43.5160    9.6370    3.8420 C.3       1 9LM        -0.0255
      4 C10        42.6920   12.2320   -0.5140 C.ar      1 9LM        -0.0098
      5 C13        42.7310   13.1040   -3.1630 C.ar      1 9LM        -0.0683
      6 C15        42.7650   11.3170   -1.5620 C.ar      1 9LM        -0.0612
      7 C20        41.8160   13.0000    8.2390 C.2       1 9LM        -0.0523
      8 C21        42.8370   13.6010    9.0090 C.2       1 9LM        -0.0774
      9 C22        43.9460   12.8620    9.1260 C.2       1 9LM        -0.0067
     10 C24        40.9450   13.4300    1.8810 C.2       1 9LM         0.3353
     11 C28        39.6350   15.6420    0.1130 C.3       1 9LM        -0.0423
     12 C27        38.9920   14.4270    0.7480 C.3       1 9LM         0.0387
     13 C29        37.8440   13.9070   -0.0850 C.3       1 9LM        -0.0423
     14 N26        39.9920   13.3660    0.9290 N.am      1 9LM        -0.2548
     15 O25        41.0800   14.3460    2.6820 O.2       1 9LM        -0.3664
     16 N5         41.8580   12.3160    1.9420 N.am      1 9LM        -0.1706
     17 C1         42.1140   11.5870    3.1010 C.2       1 9LM         0.0875
     18 C9         41.4920   11.8320    4.4350 C.3       1 9LM         0.0835
     19 N6         41.9520   10.7670    5.3500 N.am      1 9LM        -0.2215
     20 C2         43.0270   10.6070    2.8030 C.2       1 9LM        -0.0583
     21 C3         43.3660   10.7100    1.4270 C.2       1 9LM        -0.0799
     22 C11        42.6400   13.5910   -0.8160 C.ar      1 9LM        -0.0612
     23 C12        42.6570   14.0190   -2.1340 C.ar      1 9LM        -0.0683
     24 C14        42.7840   11.7540   -2.8770 C.ar      1 9LM        -0.0683
     25 S16        41.2690   10.7190    6.8150 S.o2      1 9LM         0.0807
     26 O17        39.9690   11.2950    6.6940 O.2       1 9LM        -0.1496
     27 O18        41.4060    9.3850    7.3070 O.2       1 9LM        -0.1496
     28 C19        42.2270   11.7740    7.7960 C.2       1 9LM         0.1605
     29 S23        43.8160   11.3760    8.3030 S.3       1 9LM        -0.0178
     30 H1         42.4272    8.7089    5.4509 H         1 9LM         0.0492
     31 H2         41.4195    9.1912    4.0443 H         1 9LM         0.0492
     32 H3         43.8224    8.6808    3.3929 H         1 9LM         0.0344
     33 H4         44.3512   10.0527    4.4248 H         1 9LM         0.0344
     34 H5         42.7475   13.4431   -4.1925 H         1 9LM         0.0563
     35 H6         42.8073   10.2553   -1.3473 H         1 9LM         0.0565
     36 H7         40.8455   13.4473    8.0295 H         1 9LM         0.0423
     37 H8         42.7302   14.5826    9.4683 H         1 9LM         0.0404
     38 H9         44.8287   13.1739    9.6823 H         1 9LM         0.0711
     39 H10        38.8791   16.4303   -0.0184 H         1 9LM         0.0252
     40 H11        40.0515   15.3664   -0.8671 H         1 9LM         0.0252
     41 H12        40.4414   16.0120    0.7632 H         1 9LM         0.0252
     42 H13        38.6021   14.7172    1.7348 H         1 9LM         0.0550
     43 H14        37.4034   13.0271    0.4066 H         1 9LM         0.0252
     44 H15        38.2130   13.6237   -1.0818 H         1 9LM         0.0252
     45 H16        37.0796   14.6915   -0.1863 H         1 9LM         0.0252
     46 H17        39.9650   12.5690    0.3256 H         1 9LM         0.1875
     47 H18        40.3959   11.8028    4.3479 H         1 9LM         0.0636
     48 H19        41.8034   12.8149    4.8183 H         1 9LM         0.0636
     49 H20        44.0664   10.0662    0.8970 H         1 9LM         0.0238
     50 H21        42.5859   14.3188   -0.0144 H         1 9LM         0.0565
     51 H22        42.6119   15.0788   -2.3572 H         1 9LM         0.0600
     52 H23        42.8407   11.0331   -3.6845 H         1 9LM         0.0600
@<TRIPOS>BOND
     1    1    4 1  
     2   16    1 1  
     3   21    1 2  
     4    2    3 1  
     5   19    2 1  
     6    3   20 1  
     7    4    6 ar 
     8    4   22 ar 
     9   23    5 ar 
    10   24    5 ar 
    11    6   24 ar 
    12    7    8 1  
    13   28    7 2  
    14    8    9 2  
    15    9   29 1  
    16   10   14 am 
    17   10   15 2  
    18   16   10 am 
    19   12   11 1  
    20   12   13 1  
    21   14   12 1  
    22   17   16 1  
    23   18   17 1  
    24   17   20 2  
    25   19   18 1  
    26   25   19 am 
    27   20   21 1  
    28   22   23 ar 
    29   25   26 2  
    30   25   27 2  
    31   25   28 1  
    32   28   29 1  
    33    2   30 1  
    34    2   31 1  
    35    3   32 1  
    36    3   33 1  
    37    5   34 1  
    38    6   35 1  
    39    7   36 1  
    40    8   37 1  
    41    9   38 1  
    42   11   39 1  
    43   11   40 1  
    44   11   41 1  
    45   12   42 1  
    46   13   43 1  
    47   13   44 1  
    48   13   45 1  
    49   14   46 1  
    50   18   47 1  
    51   18   48 1  
    52   21   49 1  
    53   22   50 1  
    54   23   51 1  
    55   24   52 1  
@<TRIPOS>SUBSTRUCTURE
     1 9LM         1

