### 
### Created by X-TOOL on Mon Sep 10 21:13:33 2018
### 

@<TRIPOS>MOLECULE
5q0u_ligand
   68    72     1     0     0
SMALL
GAST_HUCK


@<TRIPOS>ATOM
      1 C4         13.9730   22.3800    6.8810 C.3       1 9LP        -0.0454
      2 C5         13.2380   23.3660    5.9730 C.3       1 9LP         0.0057
      3 C6         13.8310   24.7830    6.1790 C.3       1 9LP        -0.0454
      4 C7         13.2850   22.9390    4.4870 C.3       1 9LP         0.1569
      5 C8         12.5090   21.6430    4.1570 C.2       1 9LP         0.2091
      6 C13        13.7550   24.7840    2.8040 C.2       1 9LP         0.1435
      7 C15         9.5700   26.3610    2.9870 C.ar      1 9LP         0.1515
      8 C17        10.4550   24.4780    4.1910 C.ar      1 9LP        -0.0062
      9 C20        16.1860   25.2620    3.0590 C.ar      1 9LP        -0.0442
     10 C21        17.5200   24.9130    2.8970 C.ar      1 9LP        -0.0432
     11 C22        17.8340   23.7130    2.2940 C.ar      1 9LP         0.0443
     12 C24        15.5210   23.2000    2.0140 C.ar      1 9LP        -0.0442
     13 C1         13.7680   25.2350    7.6600 C.3       1 9LP        -0.0526
     14 C2         14.4470   24.1950    8.5960 C.3       1 9LP        -0.0530
     15 C3         13.8710   22.8000    8.3750 C.3       1 9LP        -0.0526
     16 O10        12.3380   20.8000    5.0180 O.2       1 9LP        -0.3938
     17 N28        12.0500   21.4930    2.8990 N.am      1 9LP        -0.2815
     18 C29        11.3170   20.2890    2.5030 C.3       1 9LP         0.0423
     19 C30        11.4090   20.0120    1.0100 C.3       1 9LP        -0.0275
     20 C31        10.7370   18.6700    0.6610 C.3       1 9LP        -0.0223
     21 C32         9.2790   18.6240    1.1710 C.3       1 9LP         0.0848
     22 C33         9.1880   18.9560    2.6750 C.3       1 9LP        -0.0223
     23 C34         9.8660   20.2950    2.9710 C.3       1 9LP        -0.0275
     24 O35         8.8080   17.2380    1.0090 O.3       1 9LP        -0.2625
     25 S36         7.3610   16.7720    0.2950 S.o2      1 9LP        -0.0735
     26 O37         6.9300   15.7010    1.1100 O.co2     1 9LP        -0.4611
     27 O38         6.4530   17.9590    0.3920 O.co2     1 9LP        -0.4611
     28 O39         7.7590   16.5200   -1.0440 O.co2     1 9LP        -0.4611
     29 N9         12.8930   24.0880    3.6290 N.pl3     1 9LP        -0.2164
     30 C12        11.6650   24.7330    3.5600 C.ar      1 9LP         0.0827
     31 C11        11.8480   25.7830    2.6680 C.ar      1 9LP         0.0286
     32 N14        13.1710   25.8010    2.2030 N.2       1 9LP        -0.3077
     33 C19        15.1700   24.4160    2.6190 C.ar      1 9LP         0.0335
     34 C23        16.8520   22.8510    1.8500 C.ar      1 9LP        -0.0432
     35 CL25       19.5110   23.2720    2.0920 Cl        1 9LP        -0.0670
     36 C18        10.7690   26.6240    2.3620 C.ar      1 9LP        -0.0282
     37 C16         9.4190   25.3190    3.8740 C.ar      1 9LP         0.1540
     38 F26         8.2170   25.1240    4.4440 F         1 9LP        -0.1901
     39 F27         8.4980   27.1390    2.7280 F         1 9LP        -0.1928
     40 H1         15.0333   22.3475    6.5900 H         1 9LP         0.0270
     41 H2         13.5285   21.3813    6.7589 H         1 9LP         0.0270
     42 H3         12.1815   23.3884    6.2785 H         1 9LP         0.0354
     43 H4         13.2620   25.4976    5.5662 H         1 9LP         0.0270
     44 H5         14.8821   24.7776    5.8549 H         1 9LP         0.0270
     45 H6         14.3389   22.7199    4.2606 H         1 9LP         0.0884
     46 H7         10.3359   23.6613    4.8937 H         1 9LP         0.0521
     47 H8         15.9320   26.2032    3.5331 H         1 9LP         0.0660
     48 H9         18.3057   25.5761    3.2405 H         1 9LP         0.0632
     49 H10        14.7435   22.5268    1.6715 H         1 9LP         0.0660
     50 H11        12.7147   25.3494    7.9555 H         1 9LP         0.0265
     51 H12        14.2846   26.2007    7.7625 H         1 9LP         0.0265
     52 H13        14.2808   24.4908    9.6424 H         1 9LP         0.0265
     53 H14        15.5269   24.1750    8.3876 H         1 9LP         0.0265
     54 H15        14.4305   22.0793    8.9894 H         1 9LP         0.0265
     55 H16        12.8134   22.7964    8.6774 H         1 9LP         0.0265
     56 H17        12.2124   22.2146    2.2260 H         1 9LP         0.1855
     57 H18        11.8083   19.4465    3.0116 H         1 9LP         0.0556
     58 H19        12.4679   19.9727    0.7149 H         1 9LP         0.0288
     59 H20        10.9052   20.8212    0.4612 H         1 9LP         0.0288
     60 H21        11.3059   17.8522    1.1274 H         1 9LP         0.0292
     61 H22        10.7388   18.5415   -0.4315 H         1 9LP         0.0292
     62 H23         8.6559   19.3220    0.5927 H         1 9LP         0.0619
     63 H24         9.6865   18.1628    3.2515 H         1 9LP         0.0292
     64 H25         8.1297   19.0134    2.9695 H         1 9LP         0.0292
     65 H26         9.3229   21.0962    2.4484 H         1 9LP         0.0288
     66 H27         9.8386   20.4800    4.0550 H         1 9LP         0.0288
     67 H28        17.1187   21.9120    1.3785 H         1 9LP         0.0632
     68 H29        10.8737   27.4462    1.6634 H         1 9LP         0.0527
@<TRIPOS>BOND
     1    2    1 1  
     2    1   15 1  
     3    2    3 1  
     4    4    2 1  
     5    3   13 1  
     6    4    5 1  
     7   29    4 1  
     8    5   16 2  
     9    5   17 am 
    10   29    6 1  
    11    6   32 2  
    12    6   33 1  
    13    7   36 ar 
    14   37    7 ar 
    15    7   39 1  
    16   30    8 ar 
    17    8   37 ar 
    18    9   10 ar 
    19   33    9 ar 
    20   10   11 ar 
    21   34   11 ar 
    22   11   35 1  
    23   33   12 ar 
    24   12   34 ar 
    25   13   14 1  
    26   15   14 1  
    27   17   18 1  
    28   18   19 1  
    29   18   23 1  
    30   19   20 1  
    31   20   21 1  
    32   22   21 1  
    33   21   24 1  
    34   23   22 1  
    35   24   25 1  
    36   25   26 ar 
    37   25   27 ar 
    38   25   28 ar 
    39   29   30 1  
    40   30   31 ar 
    41   31   32 1  
    42   31   36 ar 
    43   37   38 1  
    44    1   40 1  
    45    1   41 1  
    46    2   42 1  
    47    3   43 1  
    48    3   44 1  
    49    4   45 1  
    50    8   46 1  
    51    9   47 1  
    52   10   48 1  
    53   12   49 1  
    54   13   50 1  
    55   13   51 1  
    56   14   52 1  
    57   14   53 1  
    58   15   54 1  
    59   15   55 1  
    60   17   56 1  
    61   18   57 1  
    62   19   58 1  
    63   19   59 1  
    64   20   60 1  
    65   20   61 1  
    66   21   62 1  
    67   22   63 1  
    68   22   64 1  
    69   23   65 1  
    70   23   66 1  
    71   34   67 1  
    72   36   68 1  
@<TRIPOS>SUBSTRUCTURE
     1 9LP         1

