### 
### Created by X-TOOL on Mon Sep 10 21:13:34 2018
### 

@<TRIPOS>MOLECULE
5q0v_ligand
   58    62     1     0     0
SMALL
GAST_HUCK


@<TRIPOS>ATOM
      1 N1         22.9760   18.0130    3.7140 N.pl3     1 9LS        -0.2159
      2 N3         22.7320   16.4150    2.1530 N.2       1 9LS        -0.3077
      3 C4         24.2230   17.4260    3.5710 C.ar      1 9LS         0.0828
      4 C5         24.0610   16.4350    2.6040 C.ar      1 9LS         0.0286
      5 C6         23.3140   20.4310    4.1970 C.2       1 9LS         0.2355
      6 C7         22.5850   19.1400    4.6270 C.3       1 9LS         0.1625
      7 C8         25.4310   17.6790    4.2070 C.ar      1 9LS        -0.0062
      8 C10        25.1650   15.6500    2.2390 C.ar      1 9LS        -0.0282
      9 C13        26.3670   15.9120    2.8770 C.ar      1 9LS         0.1515
     10 C17        22.7220   18.7840    6.1250 C.3       1 9LS         0.0062
     11 C22        18.0530   18.5120    2.3770 C.ar      1 9LS         0.0443
     12 C24        18.3630   17.5020    3.2740 C.ar      1 9LS        -0.0432
     13 C28        26.0270   22.5100    1.0280 C.ar      1 9LS        -0.0417
     14 F23        26.0740   20.3520    2.0060 F         1 9LS        -0.1938
     15 C16        25.3870   21.5050    1.7220 C.ar      1 9LS         0.1514
     16 C32        25.3160   23.6700    0.7500 C.ar      1 9LS        -0.0790
     17 C31        24.0010   23.8030    1.1620 C.ar      1 9LS        -0.0795
     18 C27        23.3730   22.7790    1.8630 C.ar      1 9LS        -0.0426
     19 C14        24.0720   21.6010    2.1530 C.ar      1 9LS         0.1002
     20 N9         23.4610   20.5450    2.8590 N.am      1 9LS        -0.2309
     21 O15        23.7140   21.2570    5.0130 O.2       1 9LS        -0.3821
     22 C29        21.9330   19.7630    7.0130 C.3       1 9LS        -0.0454
     23 C33        22.0160   19.3920    8.5060 C.3       1 9LS        -0.0526
     24 C35        21.5380   17.9630    8.7510 C.3       1 9LS        -0.0530
     25 C34        22.3250   16.9640    7.8860 C.3       1 9LS        -0.0526
     26 C30        22.2450   17.3410    6.3950 C.3       1 9LS        -0.0454
     27 C2         22.1260   17.3700    2.8440 C.2       1 9LS         0.1435
     28 F21        27.4490   15.1910    2.5610 F         1 9LS        -0.1928
     29 C11        26.4900   16.9040    3.8360 C.ar      1 9LS         0.1540
     30 F20        27.6910   17.1140    4.4180 F         1 9LS        -0.1901
     31 C12        20.7020   17.7340    2.6980 C.ar      1 9LS         0.0335
     32 C18        20.3570   18.7540    1.8080 C.ar      1 9LS        -0.0442
     33 C25        19.0330   19.1430    1.6430 C.ar      1 9LS        -0.0432
     34 CL26       16.3910   18.9970    2.1750 Cl        1 9LS        -0.0670
     35 C19        19.6900   17.1190    3.4340 C.ar      1 9LS        -0.0442
     36 H1         21.5126   19.3214    4.4626 H         1 9LS         0.0889
     37 H2         25.5274   18.4529    4.9599 H         1 9LS         0.0521
     38 H3         25.0813   14.8713    1.4895 H         1 9LS         0.0527
     39 H4         23.7860   18.8541    6.3952 H         1 9LS         0.0355
     40 H5         17.5797   17.0161    3.8444 H         1 9LS         0.0632
     41 H6         27.0567   22.3977    0.7083 H         1 9LS         0.0562
     42 H7         25.7940   24.4770    0.2066 H         1 9LS         0.0478
     43 H8         23.4564   24.7127    0.9364 H         1 9LS         0.0543
     44 H9         22.3440   22.8927    2.1843 H         1 9LS         0.0489
     45 H10        23.0951   19.7957    2.3071 H         1 9LS         0.2246
     46 H11        20.8776   19.7503    6.7032 H         1 9LS         0.0270
     47 H12        22.3432   20.7744    6.8762 H         1 9LS         0.0270
     48 H13        21.3852   20.0844    9.0827 H         1 9LS         0.0265
     49 H14        23.0601   19.4825    8.8400 H         1 9LS         0.0265
     50 H15        20.4694   17.8928    8.4998 H         1 9LS         0.0265
     51 H16        21.6825   17.7121    9.8122 H         1 9LS         0.0265
     52 H17        21.9035   15.9576    8.0255 H         1 9LS         0.0265
     53 H18        23.3787   16.9672    8.2016 H         1 9LS         0.0265
     54 H19        22.8768   16.6471    5.8211 H         1 9LS         0.0270
     55 H20        21.2007   17.2464    6.0626 H         1 9LS         0.0270
     56 H21        21.1339   19.2497    1.2373 H         1 9LS         0.0660
     57 H22        18.7751   19.9323    0.9461 H         1 9LS         0.0632
     58 H23        19.9404   16.3340    4.1384 H         1 9LS         0.0660
@<TRIPOS>BOND
     1    1    3 1  
     2    1    6 1  
     3   27    1 1  
     4    2    4 1  
     5   27    2 2  
     6    4    3 ar 
     7    3    7 ar 
     8    4    8 ar 
     9    6    5 1  
    10    5   20 am 
    11    5   21 2  
    12    6   10 1  
    13    7   29 ar 
    14    8    9 ar 
    15    9   28 1  
    16    9   29 ar 
    17   10   22 1  
    18   10   26 1  
    19   12   11 ar 
    20   11   33 ar 
    21   11   34 1  
    22   35   12 ar 
    23   15   13 ar 
    24   13   16 ar 
    25   15   14 1  
    26   19   15 ar 
    27   17   16 ar 
    28   18   17 ar 
    29   19   18 ar 
    30   20   19 1  
    31   22   23 1  
    32   23   24 1  
    33   25   24 1  
    34   26   25 1  
    35   31   27 1  
    36   29   30 1  
    37   31   32 ar 
    38   31   35 ar 
    39   32   33 ar 
    40    6   36 1  
    41    7   37 1  
    42    8   38 1  
    43   10   39 1  
    44   12   40 1  
    45   13   41 1  
    46   16   42 1  
    47   17   43 1  
    48   18   44 1  
    49   20   45 1  
    50   22   46 1  
    51   22   47 1  
    52   23   48 1  
    53   23   49 1  
    54   24   50 1  
    55   24   51 1  
    56   25   52 1  
    57   25   53 1  
    58   26   54 1  
    59   26   55 1  
    60   32   56 1  
    61   33   57 1  
    62   35   58 1  
@<TRIPOS>SUBSTRUCTURE
     1 9LS         1

