### 
### Created by X-TOOL on Mon Sep 10 21:13:33 2018
### 

@<TRIPOS>MOLECULE
5q0w_ligand
   57    61     1     0     0
SMALL
GAST_HUCK


@<TRIPOS>ATOM
      1 C4        -14.5900   51.9440    1.4490 C.3       1 9LV         0.0392
      2 C5        -14.4500   51.7310   -0.0290 C.ar      1 9LV        -0.0230
      3 C6        -14.4870   52.9630   -0.6740 C.ar      1 9LV         0.1009
      4 C7        -15.7420   49.6700    6.3060 C.ar      1 9LV         0.1223
      5 C10       -15.9920   51.3770    1.8710 C.3       1 9LV        -0.0571
      6 C15       -14.3940   53.0480   -2.0620 C.ar      1 9LV        -0.0077
      7 C17       -14.3310   50.5580   -0.7680 C.ar      1 9LV        -0.0451
      8 C20       -16.1290   51.0550    3.3360 C.3       1 9LV         0.0196
      9 C21       -11.4950   58.2310   -0.3820 C.ar      1 9LV         0.0032
     10 C24       -12.7260   58.4410   -0.9840 C.ar      1 9LV        -0.0542
     11 C26       -13.5640   56.3490   -0.1190 C.ar      1 9LV        -0.0104
     12 O28        -9.5350   59.3700    0.2670 O.co2     1 9LV        -0.5625
     13 C11       -10.4230   59.2480   -0.5430 C.2       1 9LV         0.0584
     14 O22       -10.5290   59.9970   -1.6280 O.co2     1 9LV        -0.5625
     15 C23       -11.3060   57.0550    0.3700 C.ar      1 9LV        -0.0542
     16 C32       -12.3410   56.1250    0.4980 C.ar      1 9LV        -0.0540
     17 C14       -14.7350   55.4220   -0.0290 C.3       1 9LV         0.0983
     18 N2        -14.5980   53.9880    0.2800 N.am      1 9LV        -0.1931
     19 C3        -14.6760   53.4700    1.5500 C.2       1 9LV         0.2147
     20 O16       -14.7950   54.1140    2.5770 O.2       1 9LV        -0.3193
     21 N8        -14.9900   50.2180    3.7350 N.am      1 9LV        -0.2362
     22 C19       -13.7220   50.9690    3.7450 C.3       1 9LV         0.0196
     23 C9        -13.3720   51.3670    2.3120 C.3       1 9LV        -0.0571
     24 S1        -15.2230   48.9680    4.7600 S.o2      1 9LV         0.0710
     25 O12       -13.9480   48.3580    4.9690 O.2       1 9LV        -0.1501
     26 O13       -16.2960   48.1910    4.2260 O.2       1 9LV        -0.1501
     27 C30       -14.7340   50.0580    7.1890 C.ar      1 9LV        -0.0346
     28 C35       -15.0630   50.6140    8.4160 C.ar      1 9LV        -0.0598
     29 C36       -16.3850   50.7870    8.7730 C.ar      1 9LV        -0.0612
     30 C34       -17.4030   50.4070    7.9080 C.ar      1 9LV        -0.0459
     31 C18       -17.0850   49.8510    6.6780 C.ar      1 9LV         0.0669
     32 CL29      -18.3880   49.3930    5.6340 Cl        1 9LV        -0.0686
     33 C25       -14.2420   50.6550   -2.1440 C.ar      1 9LV         0.0252
     34 BR33      -14.0800   49.0640   -3.1580 Br        1 9LV        -0.0533
     35 C27       -14.2740   51.8740   -2.8020 C.ar      1 9LV        -0.0388
     36 C31       -13.7370   57.5170   -0.8500 C.ar      1 9LV        -0.0540
     37 H1        -16.1741   50.4548    1.2997 H         1 9LV         0.0147
     38 H2        -16.7556   52.1254    1.6125 H         1 9LV         0.0147
     39 H3        -14.4147   54.0119   -2.5575 H         1 9LV         0.0595
     40 H4        -14.3086   49.5920   -0.2767 H         1 9LV         0.0809
     41 H5        -17.0690   50.5109    3.5105 H         1 9LV         0.0467
     42 H6        -16.1296   51.9856    3.9225 H         1 9LV         0.0467
     43 H7        -12.8936   59.3406   -1.5651 H         1 9LV         0.0634
     44 H8        -10.3527   56.8705    0.8519 H         1 9LV         0.0634
     45 H9        -12.1881   55.2245    1.0818 H         1 9LV         0.0565
     46 H10       -15.2402   55.4754   -1.0046 H         1 9LV         0.0782
     47 H11       -15.3929   55.8385    0.7480 H         1 9LV         0.0782
     48 H12       -12.9220   50.3376    4.1588 H         1 9LV         0.0467
     49 H13       -13.8326   51.8724    4.3627 H         1 9LV         0.0467
     50 H14       -12.5893   52.1387    2.3546 H         1 9LV         0.0147
     51 H15       -12.9816   50.4768    1.7972 H         1 9LV         0.0147
     52 H16       -13.6935   49.9248    6.9159 H         1 9LV         0.0637
     53 H17       -14.2769   50.9147    9.0992 H         1 9LV         0.0620
     54 H18       -16.6304   51.2224    9.7349 H         1 9LV         0.0618
     55 H19       -18.4399   50.5442    8.1926 H         1 9LV         0.0624
     56 H20       -14.2062   51.9137   -3.8832 H         1 9LV         0.0817
     57 H21       -14.6920   57.7056   -1.3269 H         1 9LV         0.0565
@<TRIPOS>BOND
     1    1    2 1  
     2    5    1 1  
     3    1   19 1  
     4    1   23 1  
     5    2    3 ar 
     6    2    7 ar 
     7    3    6 ar 
     8   18    3 1  
     9   24    4 1  
    10    4   27 ar 
    11    4   31 ar 
    12    8    5 1  
    13    6   35 ar 
    14    7   33 ar 
    15   21    8 1  
    16   10    9 ar 
    17    9   13 1  
    18   15    9 ar 
    19   36   10 ar 
    20   11   16 ar 
    21   17   11 1  
    22   11   36 ar 
    23   13   12 ar 
    24   13   14 ar 
    25   16   15 ar 
    26   18   17 1  
    27   19   18 am 
    28   19   20 2  
    29   21   22 1  
    30   21   24 am 
    31   22   23 1  
    32   24   25 2  
    33   24   26 2  
    34   27   28 ar 
    35   28   29 ar 
    36   29   30 ar 
    37   30   31 ar 
    38   31   32 1  
    39   33   34 1  
    40   33   35 ar 
    41    5   37 1  
    42    5   38 1  
    43    6   39 1  
    44    7   40 1  
    45    8   41 1  
    46    8   42 1  
    47   10   43 1  
    48   15   44 1  
    49   16   45 1  
    50   17   46 1  
    51   17   47 1  
    52   22   48 1  
    53   22   49 1  
    54   23   50 1  
    55   23   51 1  
    56   27   52 1  
    57   28   53 1  
    58   29   54 1  
    59   30   55 1  
    60   35   56 1  
    61   36   57 1  
@<TRIPOS>SUBSTRUCTURE
     1 9LV         1

