### 
### Created by X-TOOL on Mon Sep 10 21:13:31 2018
### 

@<TRIPOS>MOLECULE
5q0x_ligand
   62    66     1     0     0
SMALL
GAST_HUCK


@<TRIPOS>ATOM
      1 C4        -13.7800   57.1560   -2.0470 C.ar      1 643        -0.0744
      2 C5        -11.9880   57.3130   -3.9830 C.2       1 643         0.0095
      3 C6        -12.7170   56.7420   -2.8660 C.ar      1 643        -0.0147
      4 C7        -12.1490   55.4800   -2.6300 C.ar      1 643         0.0675
      5 C10       -10.2910   54.0980   -3.6370 C.3       1 643         0.0424
      6 C15       -14.2860   54.7080    1.5710 C.ar      1 643        -0.0692
      7 C17       -14.4030   52.7550    0.1300 C.ar      1 643        -0.0462
      8 C21       -18.2150   50.6940    3.7970 C.ar      1 643         0.0304
      9 C22       -17.8780   49.8590    2.7320 C.ar      1 643         0.0733
     10 C26       -18.9270   51.8480    3.4710 C.ar      1 643         0.0733
     11 C28       -16.3730   51.2640    5.5550 C.2       1 643         0.0242
     12 C1        -14.2450   56.3210   -1.0290 C.ar      1 643        -0.0739
     13 C2        -13.6760   55.0520   -0.8070 C.ar      1 643        -0.0416
     14 C3        -12.6090   54.6520   -1.6170 C.ar      1 643        -0.0387
     15 N8        -11.1330   55.2850   -3.5410 N.pl3     1 643        -0.2631
     16 C9        -11.0480   56.3850   -4.3440 C.2       1 643         0.0426
     17 C11       -12.1740   58.6290   -4.6410 C.2       1 643         0.0392
     18 O12       -13.0420   59.4070   -4.2760 O.co2     1 643        -0.5713
     19 O13       -11.3500   58.8930   -5.6220 O.co2     1 643        -0.5713
     20 C14       -14.6920   53.9450    2.6510 C.ar      1 643        -0.0387
     21 C16       -14.1410   54.1440    0.3010 C.ar      1 643        -0.0319
     22 C18       -14.8130   52.0030    1.2320 C.ar      1 643        -0.0308
     23 C19       -14.9550   52.5900    2.4800 C.ar      1 643         0.0871
     24 O20       -15.3620   51.7490    3.4820 O.3       1 643        -0.3137
     25 C23       -18.1120   50.2700    1.4300 C.ar      1 643         0.0222
     26 N24       -18.9810   51.2700    1.1880 N.ar      1 643        -0.3000
     27 C25       -19.2100   52.1770    2.1550 C.ar      1 643         0.0222
     28 C27       -17.5440   50.5740    5.1130 C.2       1 643         0.0613
     29 C29       -16.1920   50.8100    6.8040 C.2       1 643         0.1427
     30 O30       -17.1460   49.9230    7.1400 O.3       1 643        -0.1724
     31 N31       -18.0240   49.7750    6.0330 N.2       1 643        -0.1497
     32 CL32      -16.7610   48.5570    2.9680 Cl        1 643        -0.0616
     33 C33       -15.1390   51.1120    7.8770 C.3       1 643         0.0220
     34 C34       -15.6590   52.1300    8.8760 C.3       1 643        -0.0499
     35 C35       -14.6190   49.8330    8.5330 C.3       1 643        -0.0499
     36 C36       -15.5580   52.2480    4.7960 C.3       1 643         0.0906
     37 CL37      -19.6720   52.7780    4.7300 Cl        1 643        -0.0616
     38 C38       -14.2730   52.0450   -1.1990 C.3       1 643        -0.0324
     39 H1        -14.2400   58.1247   -2.2053 H         1 643         0.0536
     40 H2         -9.5685   54.2263   -4.4564 H         1 643         0.0569
     41 H3        -10.9196   53.2177   -3.8369 H         1 643         0.0569
     42 H4         -9.7498   53.9547   -2.6901 H         1 643         0.0569
     43 H5        -14.0766   55.7621    1.7125 H         1 643         0.0574
     44 H6        -15.0598   56.6560   -0.3973 H         1 643         0.0508
     45 H7        -12.1386   53.6893   -1.4523 H         1 643         0.0525
     46 H8        -10.3337   56.5075   -5.1569 H         1 643         0.1012
     47 H9        -14.8048   54.4017    3.6276 H         1 643         0.0492
     48 H10       -15.0231   50.9465    1.1106 H         1 643         0.0481
     49 H11       -17.5966   49.7876    0.6074 H         1 643         0.0820
     50 H12       -19.6110   53.1533    1.9076 H         1 643         0.0820
     51 H13       -14.2816   51.5760    7.3676 H         1 643         0.0488
     52 H14       -14.8862   52.3285    9.6332 H         1 643         0.0256
     53 H15       -16.5604   51.7345    9.3671 H         1 643         0.0256
     54 H16       -15.9072   53.0646    8.3517 H         1 643         0.0256
     55 H17       -14.2593   49.1425    7.7559 H         1 643         0.0256
     56 H18       -15.4314   49.3554    9.1003 H         1 643         0.0256
     57 H19       -13.7920   50.0806    9.2147 H         1 643         0.0256
     58 H20       -14.5849   52.3845    5.2904 H         1 643         0.0693
     59 H21       -16.0855   53.2122    4.7523 H         1 643         0.0693
     60 H22       -13.9441   52.7610   -1.9666 H         1 643         0.0394
     61 H23       -15.2471   51.6220   -1.4856 H         1 643         0.0394
     62 H24       -13.5332   51.2357   -1.1116 H         1 643         0.0394
@<TRIPOS>BOND
     1    1    3 ar 
     2   12    1 ar 
     3    3    2 1  
     4   16    2 2  
     5    2   17 1  
     6    4    3 ar 
     7   14    4 ar 
     8    4   15 1  
     9   15    5 1  
    10   20    6 ar 
    11    6   21 ar 
    12    7   21 ar 
    13   22    7 ar 
    14    7   38 1  
    15    8    9 ar 
    16    8   10 ar 
    17   28    8 1  
    18    9   25 ar 
    19    9   32 1  
    20   10   27 ar 
    21   10   37 1  
    22   11   28 1  
    23   11   29 2  
    24   36   11 1  
    25   13   12 ar 
    26   13   14 ar 
    27   21   13 1  
    28   15   16 1  
    29   17   18 ar 
    30   17   19 ar 
    31   23   20 ar 
    32   23   22 ar 
    33   24   23 1  
    34   24   36 1  
    35   25   26 ar 
    36   26   27 ar 
    37   28   31 2  
    38   29   30 1  
    39   29   33 1  
    40   30   31 1  
    41   33   34 1  
    42   33   35 1  
    43    1   39 1  
    44    5   40 1  
    45    5   41 1  
    46    5   42 1  
    47    6   43 1  
    48   12   44 1  
    49   14   45 1  
    50   16   46 1  
    51   20   47 1  
    52   22   48 1  
    53   25   49 1  
    54   27   50 1  
    55   33   51 1  
    56   34   52 1  
    57   34   53 1  
    58   34   54 1  
    59   35   55 1  
    60   35   56 1  
    61   35   57 1  
    62   36   58 1  
    63   36   59 1  
    64   38   60 1  
    65   38   61 1  
    66   38   62 1  
@<TRIPOS>SUBSTRUCTURE
     1 643         1

