### 
### Created by X-TOOL on Mon Sep 10 21:13:32 2018
### 

@<TRIPOS>MOLECULE
5q0y_ligand
   70    75     1     0     0
SMALL
GAST_HUCK


@<TRIPOS>ATOM
      1 C4         10.8300   26.5960    2.5640 C.ar      1 9LY        -0.0283
      2 C7         11.9580   25.8720    2.9580 C.ar      1 9LY         0.0283
      3 C8         11.8480   24.9280    3.9710 C.ar      1 9LY         0.0826
      4 C13        13.5050   23.7410    6.5600 C.3       1 9LY         0.0057
      5 C17        14.3450   22.8100    7.4450 C.3       1 9LY        -0.0454
      6 C20        13.8480   25.6020    8.2990 C.3       1 9LY        -0.0526
      7 C21        13.9540   25.1880    6.7910 C.3       1 9LY        -0.0454
      8 C22        13.1060   19.7510    2.1200 C.3       1 9LY        -0.0299
      9 C24        11.3500   18.9510    0.5000 C.3       1 9LY        -0.0529
     10 C26        10.9030   20.9930    1.9670 C.3       1 9LY        -0.0299
     11 C28        15.3670   24.7450    3.0490 C.ar      1 9LY         0.0539
     12 F5          8.5370   26.9990    2.8680 F         1 9LY        -0.1929
     13 C1          9.6430   26.3260    3.2150 C.ar      1 9LY         0.1514
     14 N10        13.2770   25.9270    2.4880 N.2       1 9LY        -0.3080
     15 C38        13.9350   25.0430    3.2090 C.2       1 9LY         0.1462
     16 C29        16.3670   25.3890    3.7730 C.ar      1 9LY        -0.0294
     17 C30        17.6990   25.0470    3.5830 C.ar      1 9LY         0.0080
     18 C31        17.9810   24.0460    2.6520 C.ar      1 9LY         0.1903
     19 N32        17.0460   23.3950    1.9410 N.ar      1 9LY        -0.2591
     20 C27        15.7560   23.7520    2.1500 C.ar      1 9LY         0.0232
     21 N33        19.3180   23.6280    2.4030 N.pl3     1 9LY        -0.1454
     22 C34        19.7500   22.7060    1.5080 C.2       1 9LY         0.0688
     23 C35        21.1040   22.6360    1.6380 C.2       1 9LY        -0.0449
     24 C36        21.4210   23.5440    2.6430 C.2       1 9LY        -0.0033
     25 N37        20.3520   24.1560    3.1240 N.2       1 9LY        -0.2020
     26 N9         13.1340   24.4050    4.1260 N.pl3     1 9LY        -0.2164
     27 C11        13.5820   23.3410    5.0670 C.3       1 9LY         0.1568
     28 C18        14.1760   23.1540    8.9360 C.3       1 9LY        -0.0526
     29 C19        14.5890   24.6020    9.2230 C.3       1 9LY        -0.0530
     30 C12        12.8470   22.0150    4.7300 C.2       1 9LY         0.2091
     31 O14        12.4270   21.2670    5.6050 O.2       1 9LY        -0.3938
     32 N15        12.7110   21.7670    3.4300 N.am      1 9LY        -0.2815
     33 C16        12.0630   20.5840    2.8810 C.3       1 9LY         0.0421
     34 C23        12.4740   18.5390    1.4310 C.3       1 9LY        -0.0510
     35 C25        10.2760   19.7560    1.2580 C.3       1 9LY        -0.0510
     36 C3         10.6590   24.6550    4.6280 C.ar      1 9LY        -0.0062
     37 C2          9.5610   25.3760    4.2240 C.ar      1 9LY         0.1539
     38 F6          8.3670   25.1510    4.8210 F         1 9LY        -0.1901
     39 H1         10.8847   27.3405    1.7780 H         1 9LY         0.0527
     40 H2         12.4539   23.6549    6.8727 H         1 9LY         0.0354
     41 H3         15.4051   22.9149    7.1709 H         1 9LY         0.0270
     42 H4         14.0242   21.7711    7.2783 H         1 9LY         0.0270
     43 H5         12.7866   25.6330    8.5862 H         1 9LY         0.0265
     44 H6         14.2916   26.6005    8.4263 H         1 9LY         0.0265
     45 H7         13.3174   25.8571    6.1935 H         1 9LY         0.0270
     46 H8         15.0001   25.2913    6.4671 H         1 9LY         0.0270
     47 H9         13.8679   19.3989    2.8310 H         1 9LY         0.0287
     48 H10        13.5813   20.3859    1.3578 H         1 9LY         0.0287
     49 H11        10.8885   18.0493    0.0712 H         1 9LY         0.0265
     50 H12        11.7617   19.5723   -0.3090 H         1 9LY         0.0265
     51 H13        11.2774   21.6913    1.2040 H         1 9LY         0.0287
     52 H14        10.1294   21.4898    2.5708 H         1 9LY         0.0287
     53 H15        16.1044   26.1604    4.4878 H         1 9LY         0.0757
     54 H16        18.4904   25.5389    4.1369 H         1 9LY         0.0691
     55 H17        14.9844   23.2382    1.5882 H         1 9LY         0.0852
     56 H18        19.1333   22.1319    0.8180 H         1 9LY         0.1009
     57 H19        21.7908   22.0048    1.0760 H         1 9LY         0.0355
     58 H20        22.4350   23.7299    2.9940 H         1 9LY         0.0669
     59 H21        14.6488   23.1696    4.8608 H         1 9LY         0.0883
     60 H22        14.8042   22.4770    9.5335 H         1 9LY         0.0265
     61 H23        13.1212   23.0196    9.2176 H         1 9LY         0.0265
     62 H24        14.3507   24.8400   10.2702 H         1 9LY         0.0265
     63 H25        15.6724   24.7026    9.0615 H         1 9LY         0.0265
     64 H26        13.0786   22.4383    2.7864 H         1 9LY         0.1855
     65 H27        11.6611   19.9795    3.7074 H         1 9LY         0.0556
     66 H28        12.0718   17.8613    2.1984 H         1 9LY         0.0266
     67 H29        13.2467   18.0160    0.8485 H         1 9LY         0.0266
     68 H30         9.8068   19.1081    2.0130 H         1 9LY         0.0266
     69 H31         9.5128   20.0991    0.5440 H         1 9LY         0.0266
     70 H32        10.5983   23.9139    5.4168 H         1 9LY         0.0521
@<TRIPOS>BOND
     1    2    1 ar 
     2    1   13 ar 
     3    3    2 ar 
     4   14    2 1  
     5   26    3 1  
     6    3   36 ar 
     7    4    5 1  
     8    4    7 1  
     9   27    4 1  
    10    5   28 1  
    11    7    6 1  
    12    6   29 1  
    13   33    8 1  
    14    8   34 1  
    15   34    9 1  
    16   35    9 1  
    17   33   10 1  
    18   10   35 1  
    19   15   11 1  
    20   11   16 ar 
    21   11   20 ar 
    22   13   12 1  
    23   13   37 ar 
    24   15   14 2  
    25   26   15 1  
    26   16   17 ar 
    27   17   18 ar 
    28   19   18 ar 
    29   18   21 1  
    30   20   19 ar 
    31   21   22 1  
    32   21   25 1  
    33   22   23 2  
    34   24   23 1  
    35   25   24 2  
    36   27   26 1  
    37   30   27 1  
    38   28   29 1  
    39   30   31 2  
    40   32   30 am 
    41   32   33 1  
    42   36   37 ar 
    43   37   38 1  
    44    1   39 1  
    45    4   40 1  
    46    5   41 1  
    47    5   42 1  
    48    6   43 1  
    49    6   44 1  
    50    7   45 1  
    51    7   46 1  
    52    8   47 1  
    53    8   48 1  
    54    9   49 1  
    55    9   50 1  
    56   10   51 1  
    57   10   52 1  
    58   16   53 1  
    59   17   54 1  
    60   20   55 1  
    61   22   56 1  
    62   23   57 1  
    63   24   58 1  
    64   27   59 1  
    65   28   60 1  
    66   28   61 1  
    67   29   62 1  
    68   29   63 1  
    69   32   64 1  
    70   33   65 1  
    71   34   66 1  
    72   34   67 1  
    73   35   68 1  
    74   35   69 1  
    75   36   70 1  
@<TRIPOS>SUBSTRUCTURE
     1 9LY         1

