### 
### Created by X-TOOL on Mon Sep 10 21:13:34 2018
### 

@<TRIPOS>MOLECULE
5q0z_ligand
   55    58     1     0     0
SMALL
GAST_HUCK


@<TRIPOS>ATOM
      1 N3         13.5410   24.0550    1.9370 N.am      1 9M1        -0.2808
      2 C4         16.0400   22.4730    3.0380 C.2       1 9M1        -0.0351
      3 C6         12.9980   22.7460    2.0640 C.3       1 9M1         0.0767
      4 C7         16.0250   23.9650    2.5200 C.3       1 9M1        -0.0631
      5 C8         12.7950   25.2420    2.2530 C.2       1 9M1         0.2027
      6 C10        16.6590   20.4410    4.0380 C.ar      1 9M1         0.0871
      7 C13        11.3930   25.1910    2.7480 C.ar      1 9M1         0.0440
      8 C15         9.1570   26.0160    2.6580 C.ar      1 9M1         0.1709
      9 C17         8.7870   25.1480    3.6560 C.ar      1 9M1         0.1705
     10 C20         9.7010   24.2890    4.2210 C.ar      1 9M1        -0.0239
     11 C24        15.8960   24.9350    3.7030 C.3       1 9M1        -0.1075
     12 C26        18.3550   22.1420    4.3260 C.ar      1 9M1        -0.0670
     13 C28        10.9580   19.2660    0.8370 C.3       1 9M1         0.0743
     14 C31         9.7870   19.7230    0.0710 C.3       1 9M1        -0.0371
     15 O22        11.8180   20.5010    1.1680 O.3       1 9M1        -0.2734
     16 C11        12.8290   20.3420    2.0480 C.2       1 9M1         0.2686
     17 O18        13.0110   19.3260    2.6720 O.2       1 9M1        -0.3626
     18 C2         13.6770   21.5730    2.1470 C.3       1 9M1         0.1743
     19 C12        14.9320   24.2150    1.4580 C.3       1 9M1        -0.0089
     20 C25        17.3410   24.2890    1.8010 C.3       1 9M1        -0.1075
     21 C1         14.9590   21.4370    2.8400 C.2       1 9M1         0.1337
     22 N5         15.4000   20.2470    3.4670 N.pl3     1 9M1        -0.2230
     23 C27        17.4460   19.5260    4.7480 C.ar      1 9M1        -0.0346
     24 C30        18.6810   19.9320    5.2390 C.ar      1 9M1        -0.0702
     25 C29        19.1320   21.2270    5.0320 C.ar      1 9M1        -0.0727
     26 C9         17.1130   21.7640    3.8230 C.ar      1 9M1        -0.0104
     27 O16        13.3250   26.3310    2.1210 O.2       1 9M1        -0.3864
     28 C19        11.0090   24.3150    3.7670 C.ar      1 9M1        -0.0477
     29 F23         7.5050   25.1410    4.0870 F         1 9M1        -0.1802
     30 F21         8.2310   26.8440    2.1270 F         1 9M1        -0.1831
     31 C14        10.4480   26.0570    2.1920 C.ar      1 9M1        -0.0100
     32 H1         12.3409   22.6286    1.1897 H         1 9M1         0.0596
     33 H2         12.3882   22.7826    2.9787 H         1 9M1         0.0596
     34 H3          9.4029   23.6045    5.0069 H         1 9M1         0.0606
     35 H4         15.8867   25.9696    3.3295 H         1 9M1         0.0060
     36 H5         16.7492   24.7986    4.3837 H         1 9M1         0.0060
     37 H6         14.9596   24.7319    4.2433 H         1 9M1         0.0060
     38 H7         18.7181   23.1510    4.1677 H         1 9M1         0.0578
     39 H8         11.5426   18.5534    0.2366 H         1 9M1         0.0610
     40 H9         10.6296   18.7790    1.7670 H         1 9M1         0.0610
     41 H10         9.1532   18.8596   -0.1798 H         1 9M1         0.0255
     42 H11        10.1228   20.2126   -0.8550 H         1 9M1         0.0255
     43 H12         9.2098   20.4382    0.6754 H         1 9M1         0.0255
     44 H13        14.0803   21.5743    1.1236 H         1 9M1         0.0947
     45 H14        15.0478   25.2437    1.0859 H         1 9M1         0.0349
     46 H15        15.0914   23.5062    0.6321 H         1 9M1         0.0349
     47 H16        18.1834   24.1363    2.4917 H         1 9M1         0.0060
     48 H17        17.3273   25.3365    1.4654 H         1 9M1         0.0060
     49 H18        17.4560   23.6265    0.9304 H         1 9M1         0.0060
     50 H19        14.8686   19.3652    3.4975 H         1 9M1         0.2505
     51 H20        17.0962   18.5133    4.9126 H         1 9M1         0.0573
     52 H21        19.2975   19.2301    5.7888 H         1 9M1         0.0569
     53 H22        20.0968   21.5294    5.4228 H         1 9M1         0.0541
     54 H23        11.7427   23.6490    4.2066 H         1 9M1         0.0625
     55 H24        10.7291   26.7491    1.4065 H         1 9M1         0.0644
@<TRIPOS>BOND
     1    3    1 1  
     2    1    5 am 
     3    1   19 1  
     4    4    2 1  
     5    2   21 2  
     6    2   26 1  
     7   18    3 1  
     8    4   11 1  
     9   19    4 1  
    10    4   20 1  
    11    5    7 1  
    12    5   27 2  
    13    6   22 1  
    14    6   23 ar 
    15   26    6 ar 
    16    7   28 ar 
    17    7   31 ar 
    18    8    9 ar 
    19    8   30 1  
    20   31    8 ar 
    21   10    9 ar 
    22    9   29 1  
    23   28   10 ar 
    24   12   25 ar 
    25   26   12 ar 
    26   13   14 1  
    27   15   13 1  
    28   16   15 1  
    29   16   17 2  
    30   16   18 1  
    31   18   21 1  
    32   21   22 1  
    33   23   24 ar 
    34   24   25 ar 
    35    3   32 1  
    36    3   33 1  
    37   10   34 1  
    38   11   35 1  
    39   11   36 1  
    40   11   37 1  
    41   12   38 1  
    42   13   39 1  
    43   13   40 1  
    44   14   41 1  
    45   14   42 1  
    46   14   43 1  
    47   18   44 1  
    48   19   45 1  
    49   19   46 1  
    50   20   47 1  
    51   20   48 1  
    52   20   49 1  
    53   22   50 1  
    54   23   51 1  
    55   24   52 1  
    56   25   53 1  
    57   28   54 1  
    58   31   55 1  
@<TRIPOS>SUBSTRUCTURE
     1 9M1         1

