### 
### Created by X-TOOL on Mon Sep 10 21:13:32 2018
### 

@<TRIPOS>MOLECULE
5q10_ligand
   72    75     1     0     0
SMALL
GAST_HUCK


@<TRIPOS>ATOM
      1 C4         31.1850   30.6990   -2.1480 C.ar      1 9M4        -0.0423
      2 C5         32.4650   30.6600   -1.6370 C.ar      1 9M4         0.0450
      3 C6         33.5480   30.3220   -2.4270 C.ar      1 9M4        -0.0423
      4 C7         33.3400   30.0160   -3.7640 C.ar      1 9M4        -0.0411
      5 C10        31.1290   30.2550   -8.1050 C.3       1 9M4         0.1564
      6 C15        29.5600   26.7250   -8.4430 C.3       1 9M4         0.0421
      7 C17        28.4480   25.1650  -10.0900 C.3       1 9M4        -0.0510
      8 C20        29.9940   25.5420   -7.5830 C.3       1 9M4        -0.0299
      9 C21        32.1730   29.6580  -10.3270 C.3       1 9M4        -0.0455
     10 C22        33.4610   29.3160  -11.0540 C.3       1 9M4        -0.0526
     11 C24        34.7120   30.9180   -9.5220 C.3       1 9M4        -0.0526
     12 C26        30.8270   31.9260   -6.2700 C.ar      1 9M4         0.0578
     13 C28        29.0020   33.5130   -6.0900 C.ar      1 9M4         0.0521
     14 C1         31.8730   29.7050   -5.7710 C.2       1 9M4         0.2369
     15 O32        32.2530   28.6070   -6.1520 O.2       1 9M4        -0.3727
     16 C2         32.0520   30.0480   -4.3150 C.ar      1 9M4         0.0563
     17 C3         30.9800   30.3910   -3.4860 C.ar      1 9M4        -0.0411
     18 CL8        32.7200   31.0450    0.0390 Cl        1 9M4        -0.0666
     19 N9         31.2900   30.6260   -6.6620 N.am      1 9M4        -0.2006
     20 C11        32.4340   29.9760   -8.8540 C.3       1 9M4         0.0047
     21 C23        34.4550   30.4670  -10.9860 C.3       1 9M4        -0.0530
     22 C25        33.3940   31.1730   -8.7620 C.3       1 9M4        -0.0455
     23 C12        30.0400   29.1490   -8.2690 C.2       1 9M4         0.2079
     24 O13        28.8610   29.4640   -8.3730 O.2       1 9M4        -0.3940
     25 N14        30.4670   27.8700   -8.2900 N.am      1 9M4        -0.2816
     26 C16        29.4530   26.3130   -9.9090 C.3       1 9M4        -0.0299
     27 C18        28.8210   23.9530   -9.2340 C.3       1 9M4        -0.0529
     28 C19        29.0050   24.3500   -7.7380 C.3       1 9M4        -0.0510
     29 C27        29.4770   32.2560   -6.4560 C.ar      1 9M4        -0.0223
     30 C29        29.8800   34.4450   -5.5390 C.ar      1 9M4        -0.0563
     31 C30        31.2200   34.1190   -5.3580 C.ar      1 9M4        -0.0882
     32 C31        31.7000   32.8680   -5.7230 C.ar      1 9M4        -0.0559
     33 N33        27.6370   33.8740   -6.2630 N.am      1 9M4        -0.2376
     34 C34        26.6080   33.1310   -6.7680 C.2       1 9M4         0.2002
     35 O36        26.7420   31.9760   -7.1630 O.2       1 9M4        -0.3852
     36 C35        25.2830   33.8310   -6.8070 C.3       1 9M4         0.0316
     37 H1         30.3487   30.9670   -1.5125 H         1 9M4         0.0634
     38 H2         34.5470   30.2964   -2.0070 H         1 9M4         0.0634
     39 H3         34.1838   29.7490   -4.3899 H         1 9M4         0.0669
     40 H4         30.7149   31.1501   -8.5921 H         1 9M4         0.0869
     41 H5         28.5618   27.0392   -8.1042 H         1 9M4         0.0556
     42 H6         28.4350   24.8648  -11.1482 H         1 9M4         0.0266
     43 H7         27.4478   25.5159   -9.7961 H         1 9M4         0.0266
     44 H8         30.0198   25.8537   -6.5284 H         1 9M4         0.0287
     45 H9         30.9984   25.2194   -7.8947 H         1 9M4         0.0287
     46 H10        31.4863   28.8012  -10.3923 H         1 9M4         0.0270
     47 H11        31.7126   30.5344  -10.8066 H         1 9M4         0.0270
     48 H12        33.2318   29.1020  -12.1083 H         1 9M4         0.0265
     49 H13        33.9102   28.4263  -10.5885 H         1 9M4         0.0265
     50 H14        35.3017   31.8465   -9.5336 H         1 9M4         0.0265
     51 H15        35.2771   30.1312   -9.0009 H         1 9M4         0.0265
     52 H16        29.9757   30.4168   -3.8932 H         1 9M4         0.0669
     53 H17        32.9160   29.1039   -8.3881 H         1 9M4         0.0353
     54 H18        34.0545   31.3182  -11.5561 H         1 9M4         0.0265
     55 H19        35.4070   30.1427  -11.4315 H         1 9M4         0.0265
     56 H20        32.9012   32.0571   -9.1928 H         1 9M4         0.0270
     57 H21        33.6255   31.3617   -7.7033 H         1 9M4         0.0270
     58 H22        31.4468   27.6929   -8.1971 H         1 9M4         0.1855
     59 H23        30.4413   25.9841  -10.2626 H         1 9M4         0.0287
     60 H24        29.1206   27.1779  -10.5018 H         1 9M4         0.0287
     61 H25        29.7624   23.5255   -9.6094 H         1 9M4         0.0265
     62 H26        28.0212   23.2016   -9.3093 H         1 9M4         0.0265
     63 H27        28.0286   24.6389   -7.3220 H         1 9M4         0.0266
     64 H28        29.3981   23.4847   -7.1841 H         1 9M4         0.0266
     65 H29        28.7990   31.5284   -6.8872 H         1 9M4         0.0376
     66 H30        29.5179   35.4253   -5.2511 H         1 9M4         0.0382
     67 H31        31.8964   34.8487   -4.9277 H         1 9M4         0.0541
     68 H32        32.7471   32.6243   -5.5839 H         1 9M4         0.0382
     69 H33        27.3973   34.8010   -5.9747 H         1 9M4         0.2252
     70 H34        24.5235   33.1551   -7.2268 H         1 9M4         0.0472
     71 H35        25.3616   34.7300   -7.4360 H         1 9M4         0.0472
     72 H36        24.9916   34.1215   -5.7869 H         1 9M4         0.0472
@<TRIPOS>BOND
     1    1    2 ar 
     2   17    1 ar 
     3    3    2 ar 
     4    2   18 1  
     5    4    3 ar 
     6   16    4 ar 
     7    5   19 1  
     8    5   20 1  
     9   23    5 1  
    10    6    8 1  
    11   25    6 1  
    12    6   26 1  
    13   26    7 1  
    14    7   27 1  
    15    8   28 1  
    16    9   10 1  
    17   20    9 1  
    18   10   21 1  
    19   11   21 1  
    20   22   11 1  
    21   19   12 1  
    22   12   29 ar 
    23   12   32 ar 
    24   29   13 ar 
    25   13   30 ar 
    26   13   33 1  
    27   14   15 2  
    28   14   16 1  
    29   19   14 am 
    30   16   17 ar 
    31   20   22 1  
    32   23   24 2  
    33   23   25 am 
    34   27   28 1  
    35   30   31 ar 
    36   31   32 ar 
    37   33   34 am 
    38   34   35 2  
    39   34   36 1  
    40    1   37 1  
    41    3   38 1  
    42    4   39 1  
    43    5   40 1  
    44    6   41 1  
    45    7   42 1  
    46    7   43 1  
    47    8   44 1  
    48    8   45 1  
    49    9   46 1  
    50    9   47 1  
    51   10   48 1  
    52   10   49 1  
    53   11   50 1  
    54   11   51 1  
    55   17   52 1  
    56   20   53 1  
    57   21   54 1  
    58   21   55 1  
    59   22   56 1  
    60   22   57 1  
    61   25   58 1  
    62   26   59 1  
    63   26   60 1  
    64   27   61 1  
    65   27   62 1  
    66   28   63 1  
    67   28   64 1  
    68   29   65 1  
    69   30   66 1  
    70   31   67 1  
    71   32   68 1  
    72   33   69 1  
    73   36   70 1  
    74   36   71 1  
    75   36   72 1  
@<TRIPOS>SUBSTRUCTURE
     1 9M4         1

