### 
### Created by X-TOOL on Mon Sep 10 21:13:32 2018
### 

@<TRIPOS>MOLECULE
5q11_ligand
   57    60     1     0     0
SMALL
GAST_HUCK


@<TRIPOS>ATOM
      1 N1        -11.9060   40.8520   -6.0450 N.am      1 9M7        -0.2723
      2 C4        -11.8700   41.6760   -7.2840 C.3       1 9M7         0.0439
      3 C5        -10.7890   39.0320   -4.6530 C.2       1 9M7         0.0871
      4 C7        -14.3970   40.5740   -5.6590 C.3       1 9M7        -0.0298
      5 C8        -13.1210   42.5000   -4.5640 C.3       1 9M7        -0.0298
      6 C10       -12.1280   40.8340   -8.5480 C.3       1 9M7        -0.0298
      7 C13       -15.5020   40.6990   -4.5940 C.3       1 9M7        -0.0510
      8 C15       -10.6310   43.3870   -8.7040 C.3       1 9M7        -0.0510
      9 C17       -10.5700   40.7420   -2.6220 C.ar      1 9M7         0.0017
     10 C20       -10.9200   36.6160   -5.6680 C.3       1 9M7         0.0166
     11 C21       -15.6100   42.1280   -4.0720 C.3       1 9M7        -0.0529
     12 C22       -10.8090   42.5020   -9.9260 C.3       1 9M7        -0.0529
     13 C24       -11.4780   41.0470   -1.6010 C.ar      1 9M7        -0.0537
     14 C28       -10.4990   43.2020   -1.3400 C.ar      1 9M7         0.0404
     15 C12       -10.8060   37.6650   -4.6250 C.2       1 9M7         0.1630
     16 O19       -10.6900   37.2380   -3.3530 O.3       1 9M7        -0.1564
     17 N18       -10.5900   38.3610   -2.4930 N.2       1 9M7        -0.1444
     18 C11       -10.6460   39.4150   -3.2710 C.2       1 9M7         0.0648
     19 C27       -11.4450   42.2740   -0.9610 C.ar      1 9M7        -0.0478
     20 CL29      -10.4530   44.7330   -0.5450 Cl        1 9M7        -0.0709
     21 C25        -9.5840   42.9460   -2.3370 C.ar      1 9M7        -0.0340
     22 C23        -9.6210   41.7220   -2.9720 C.ar      1 9M7         0.0481
     23 CL26       -8.4600   41.4520   -4.2080 Cl        1 9M7        -0.0700
     24 C2        -10.8880   39.9450   -5.8520 C.2       1 9M7         0.1831
     25 O6         -9.9580   39.7920   -6.6660 O.2       1 9M7        -0.4040
     26 C3        -13.0420   41.0740   -5.1170 C.3       1 9M7         0.0439
     27 C14       -14.2450   42.6240   -3.5120 C.3       1 9M7        -0.0510
     28 C9        -10.6050   42.5560   -7.4140 C.3       1 9M7        -0.0298
     29 C16       -12.1030   41.6940   -9.8260 C.3       1 9M7        -0.0510
     30 H1        -12.7151   42.3756   -7.2043 H         1 9M7         0.0556
     31 H2        -14.6757   41.1743   -6.5376 H         1 9M7         0.0287
     32 H3        -14.2988   39.5184   -5.9522 H         1 9M7         0.0287
     33 H4        -13.3242   43.1959   -5.3912 H         1 9M7         0.0287
     34 H5        -12.1598   42.7580   -4.0955 H         1 9M7         0.0287
     35 H6        -13.1144   40.3549   -8.4610 H         1 9M7         0.0287
     36 H7        -11.3500   40.0602   -8.6248 H         1 9M7         0.0287
     37 H8        -15.2681   40.0277   -3.7546 H         1 9M7         0.0266
     38 H9        -16.4641   40.4069   -5.0400 H         1 9M7         0.0266
     39 H10       -11.4662   44.1010   -8.6537 H         1 9M7         0.0266
     40 H11        -9.6830   43.9374   -8.7950 H         1 9M7         0.0266
     41 H12       -10.8894   35.6235   -5.1947 H         1 9M7         0.0477
     42 H13       -10.0835   36.7105   -6.3761 H         1 9M7         0.0477
     43 H14       -11.8716   36.7362   -6.2065 H         1 9M7         0.0477
     44 H15       -16.3613   42.1616   -3.2692 H         1 9M7         0.0265
     45 H16       -15.9223   42.7884   -4.8944 H         1 9M7         0.0265
     46 H17        -9.9566   41.8105   -9.9980 H         1 9M7         0.0265
     47 H18       -10.8464   43.1330  -10.8262 H         1 9M7         0.0265
     48 H19       -12.2180   40.3113   -1.3072 H         1 9M7         0.0618
     49 H20       -12.1533   42.5018   -0.1727 H         1 9M7         0.0623
     50 H21        -8.8490   43.6919   -2.6173 H         1 9M7         0.0628
     51 H22       -12.8263   40.4377   -4.2460 H         1 9M7         0.0556
     52 H23       -14.3425   43.6790   -3.2162 H         1 9M7         0.0266
     53 H24       -13.9791   42.0196   -2.6323 H         1 9M7         0.0266
     54 H25        -9.7170   41.9069   -7.4243 H         1 9M7         0.0287
     55 H26       -10.5520   43.2362   -6.5512 H         1 9M7         0.0287
     56 H27       -12.9575   42.3865   -9.8088 H         1 9M7         0.0266
     57 H28       -12.1827   41.0350  -10.7031 H         1 9M7         0.0266
@<TRIPOS>BOND
     1    1    2 1  
     2   24    1 am 
     3    1   26 1  
     4    2    6 1  
     5    2   28 1  
     6    3   15 2  
     7   18    3 1  
     8    3   24 1  
     9    4    7 1  
    10   26    4 1  
    11   26    5 1  
    12    5   27 1  
    13    6   29 1  
    14    7   11 1  
    15    8   12 1  
    16   28    8 1  
    17    9   13 ar 
    18    9   18 1  
    19    9   22 ar 
    20   15   10 1  
    21   11   27 1  
    22   12   29 1  
    23   13   19 ar 
    24   19   14 ar 
    25   14   20 1  
    26   14   21 ar 
    27   15   16 1  
    28   16   17 1  
    29   17   18 2  
    30   21   22 ar 
    31   22   23 1  
    32   24   25 2  
    33    2   30 1  
    34    4   31 1  
    35    4   32 1  
    36    5   33 1  
    37    5   34 1  
    38    6   35 1  
    39    6   36 1  
    40    7   37 1  
    41    7   38 1  
    42    8   39 1  
    43    8   40 1  
    44   10   41 1  
    45   10   42 1  
    46   10   43 1  
    47   11   44 1  
    48   11   45 1  
    49   12   46 1  
    50   12   47 1  
    51   13   48 1  
    52   19   49 1  
    53   21   50 1  
    54   26   51 1  
    55   27   52 1  
    56   27   53 1  
    57   28   54 1  
    58   28   55 1  
    59   29   56 1  
    60   29   57 1  
@<TRIPOS>SUBSTRUCTURE
     1 9M7         1

