### 
### Created by X-TOOL on Mon Sep 10 21:13:32 2018
### 

@<TRIPOS>MOLECULE
5q12_ligand
   46    49     1     0     0
SMALL
GAST_HUCK


@<TRIPOS>ATOM
      1 N3        -13.8230   50.9420    6.2550 N.pl3     1 9MA        -0.2592
      2 C4        -15.9230   52.4010   10.3630 C.2       1 9MA        -0.0341
      3 C5        -15.8070   52.1670    8.9650 C.2       1 9MA         0.1201
      4 C7        -13.5420   51.2300    9.3710 C.2       1 9MA         0.1004
      5 C8        -13.7010   51.4720   10.7040 C.2       1 9MA        -0.0307
      6 C13       -14.9290   48.8020    5.6890 C.ar      1 9MA        -0.0296
      7 C15       -15.0180   48.0900    3.3700 C.ar      1 9MA        -0.0877
      8 C17       -15.3100   47.8840    4.7100 C.ar      1 9MA        -0.0777
      9 C20       -16.6210   52.0620    5.4880 C.ar      1 9MA         0.0305
     10 C21       -16.2070   52.9860    4.5370 C.ar      1 9MA         0.1280
     11 C22       -17.6370   51.2000    5.0800 C.ar      1 9MA         0.1280
     12 C26       -18.2140   51.2420    3.8330 C.ar      1 9MA        -0.0394
     13 C19       -13.1850   51.4200    3.4340 C.3       1 9MA        -0.0357
     14 C14       -13.9260   50.1890    3.8990 C.ar      1 9MA        -0.0296
     15 C16       -14.3360   49.2290    2.9710 C.ar      1 9MA        -0.0777
     16 C18       -15.2670   48.5320    7.1440 C.3       1 9MA        -0.0357
     17 C12       -14.2320   49.9620    5.2730 C.ar      1 9MA         0.0637
     18 C2        -14.7610   51.4710    7.1090 C.2       1 9MA         0.1940
     19 C1        -16.0150   51.9820    6.8310 C.2       1 9MA         0.0323
     20 N10       -16.6560   52.4070    7.9680 N.2       1 9MA        -0.3596
     21 C9        -14.8960   52.0620   11.2060 C.2       1 9MA        -0.0763
     22 C11       -12.3060   50.6180    8.8130 C.3       1 9MA         0.0119
     23 N6        -14.6100   51.5830    8.5050 N.pl3     1 9MA        -0.1690
     24 F24       -15.2210   53.8450    4.8780 F         1 9MA        -0.1895
     25 C27       -16.7500   53.0730    3.2720 C.ar      1 9MA        -0.0394
     26 C25       -17.7640   52.1900    2.9260 C.ar      1 9MA        -0.0726
     27 F23       -18.0760   50.2770    5.9660 F         1 9MA        -0.1895
     28 H1        -12.8389   51.2404    6.3137 H         1 9MA         0.2069
     29 H2        -16.8298   52.8506   10.7650 H         1 9MA         0.0471
     30 H3        -12.9014   51.2099   11.3953 H         1 9MA         0.0427
     31 H4        -15.3242   47.3576    2.6318 H         1 9MA         0.0476
     32 H5        -15.8467   46.9891    5.0035 H         1 9MA         0.0467
     33 H6        -19.0034   50.5494    3.5644 H         1 9MA         0.0550
     34 H7        -13.0618   51.3830    2.3415 H         1 9MA         0.0365
     35 H8        -12.1957   51.4555    3.9135 H         1 9MA         0.0365
     36 H9        -13.7578   52.3182    3.7081 H         1 9MA         0.0365
     37 H10       -14.1169   49.3773    1.9198 H         1 9MA         0.0467
     38 H11       -15.8069   47.5769    7.2239 H         1 9MA         0.0365
     39 H12       -15.9001   49.3444    7.5303 H         1 9MA         0.0365
     40 H13       -14.3391   48.4789    7.7323 H         1 9MA         0.0365
     41 H14       -14.9956   52.2466   12.2746 H         1 9MA         0.0584
     42 H15       -11.5968   50.4150    9.6290 H         1 9MA         0.0485
     43 H16       -11.8470   51.3106    8.0922 H         1 9MA         0.0485
     44 H17       -12.5603   49.6758    8.3054 H         1 9MA         0.0485
     45 H18       -16.3935   53.8132    2.5648 H         1 9MA         0.0550
     46 H19       -18.2079   52.2419    1.9384 H         1 9MA         0.0537
@<TRIPOS>BOND
     1    1   17 1  
     2   18    1 1  
     3    3    2 1  
     4    2   21 2  
     5    3   20 2  
     6   23    3 1  
     7    4    5 2  
     8    4   22 1  
     9   23    4 1  
    10    5   21 1  
    11    6    8 ar 
    12    6   16 1  
    13   17    6 ar 
    14    8    7 ar 
    15   15    7 ar 
    16    9   10 ar 
    17    9   11 ar 
    18   19    9 1  
    19   10   24 1  
    20   10   25 ar 
    21   11   12 ar 
    22   11   27 1  
    23   12   26 ar 
    24   14   13 1  
    25   14   15 ar 
    26   17   14 ar 
    27   18   19 2  
    28   18   23 1  
    29   19   20 1  
    30   25   26 ar 
    31    1   28 1  
    32    2   29 1  
    33    5   30 1  
    34    7   31 1  
    35    8   32 1  
    36   12   33 1  
    37   13   34 1  
    38   13   35 1  
    39   13   36 1  
    40   15   37 1  
    41   16   38 1  
    42   16   39 1  
    43   16   40 1  
    44   21   41 1  
    45   22   42 1  
    46   22   43 1  
    47   22   44 1  
    48   25   45 1  
    49   26   46 1  
@<TRIPOS>SUBSTRUCTURE
     1 9MA         1

