### 
### Created by X-TOOL on Mon Sep 10 21:13:31 2018
### 

@<TRIPOS>MOLECULE
5q13_ligand
   62    66     1     0     0
SMALL
GAST_HUCK


@<TRIPOS>ATOM
      1 C4         -0.3620   20.1030   64.0230 C.ar      1 9MD        -0.0273
      2 C5          0.1390   21.2670   64.6110 C.ar      1 9MD         0.0319
      3 C6          0.7490   21.1950   65.8580 C.ar      1 9MD         0.0852
      4 C8          0.7250   23.2820   65.1060 C.2       1 9MD         0.1451
      5 C10         1.0260   24.7200   65.0360 C.ar      1 9MD         0.0345
      6 C13         1.0490   23.1840   68.6500 C.3       1 9MD         0.1049
      7 C20        -0.4090   22.3120   70.5020 C.3       1 9MD        -0.0484
      8 C21         0.2850   21.9690   69.1470 C.3       1 9MD        -0.0215
      9 C22         6.0350   22.2930   65.6310 C.3       1 9MD        -0.0299
     10 C24         7.2120   20.4370   64.4290 C.3       1 9MD        -0.0529
     11 C26         4.8770   20.0570   65.3450 C.3       1 9MD        -0.0299
     12 C28         2.5020   26.2350   63.8600 C.ar      1 9MD        -0.0429
     13 C19        -1.2540   23.5770   70.3980 C.3       1 9MD        -0.0294
     14 C18        -0.4410   24.7260   69.7660 C.3       1 9MD         0.0484
     15 O17         0.1810   24.3110   68.4890 O.3       1 9MD        -0.3712
     16 C11         1.8550   23.0270   67.3590 C.3       1 9MD         0.1802
     17 C12         3.1810   22.2990   67.4940 C.2       1 9MD         0.2115
     18 O14         3.6670   22.0370   68.5900 O.2       1 9MD        -0.3937
     19 N15         3.7560   21.9830   66.3390 N.am      1 9MD        -0.2814
     20 C16         5.0230   21.3000   66.2230 C.3       1 9MD         0.0421
     21 C23         7.3740   21.6340   65.3390 C.3       1 9MD        -0.0510
     22 C25         6.2450   19.4160   65.0500 C.3       1 9MD        -0.0510
     23 N7          1.1230   22.5060   66.1590 N.pl3     1 9MD        -0.2126
     24 C3          0.8950   20.0170   66.5570 C.ar      1 9MD        -0.0254
     25 C2          0.3990   18.8800   65.9730 C.ar      1 9MD         0.0617
     26 C1         -0.2190   18.9290   64.7300 C.ar      1 9MD         0.1316
     27 N9          0.1440   22.5900   64.1470 N.2       1 9MD        -0.3051
     28 C27         2.0280   24.9630   64.0920 C.ar      1 9MD        -0.0438
     29 C29         1.9920   27.2810   64.5880 C.ar      1 9MD         0.0446
     30 C31         1.0080   27.0870   65.5470 C.ar      1 9MD        -0.0429
     31 C30         0.5280   25.7950   65.7780 C.ar      1 9MD        -0.0438
     32 CL34        2.6100   28.8800   64.2860 Cl        1 9MD        -0.0667
     33 F32        -0.6930   17.7820   64.1990 F         1 9MD        -0.1921
     34 CL33        0.5520   17.3810   66.8120 Cl        1 9MD        -0.0785
     35 H1         -0.8429   20.1226   63.0517 H         1 9MD         0.0533
     36 H2          1.7723   23.4286   69.4419 H         1 9MD         0.0652
     37 H3          0.3636   22.4616   71.2705 H         1 9MD         0.0267
     38 H4         -1.0579   21.4727   70.7928 H         1 9MD         0.0267
     39 H5          0.9828   21.1314   69.2938 H         1 9MD         0.0293
     40 H6         -0.4769   21.6860   68.4058 H         1 9MD         0.0293
     41 H7          6.1910   23.1118   66.3488 H         1 9MD         0.0287
     42 H8          5.6273   22.6997   64.6938 H         1 9MD         0.0287
     43 H9          8.1924   19.9616   64.2780 H         1 9MD         0.0265
     44 H10         6.8129   20.7704   63.4597 H         1 9MD         0.0265
     45 H11         4.4033   20.3435   64.3945 H         1 9MD         0.0287
     46 H12         4.2426   19.3239   65.8646 H         1 9MD         0.0287
     47 H13         3.2677   26.4079   63.1124 H         1 9MD         0.0633
     48 H14        -1.5804   23.8770   71.4047 H         1 9MD         0.0287
     49 H15        -2.1354   23.3720   69.7727 H         1 9MD         0.0287
     50 H16         0.3503   25.0315   70.4664 H         1 9MD         0.0560
     51 H17        -1.1120   25.5769   69.5769 H         1 9MD         0.0560
     52 H18         2.1234   24.0608   67.0960 H         1 9MD         0.0908
     53 H19         3.2810   22.2342   65.4957 H         1 9MD         0.1855
     54 H20         5.3637   20.9881   67.2213 H         1 9MD         0.0556
     55 H21         7.8253   21.3049   66.2866 H         1 9MD         0.0266
     56 H22         8.0351   22.3665   64.8528 H         1 9MD         0.0266
     57 H23         6.6752   19.0390   65.9896 H         1 9MD         0.0266
     58 H24         6.1062   18.5799   64.3488 H         1 9MD         0.0266
     59 H25         1.3805   19.9901   67.5258 H         1 9MD         0.0547
     60 H26         2.4407   24.1325   63.5307 H         1 9MD         0.0662
     61 H27         0.6167   27.9268   66.1097 H         1 9MD         0.0633
     62 H28        -0.2311   25.6263   66.5332 H         1 9MD         0.0662
@<TRIPOS>BOND
     1    2    1 ar 
     2    1   26 ar 
     3    3    2 ar 
     4   27    2 1  
     5   23    3 1  
     6    3   24 ar 
     7    4    5 1  
     8   23    4 1  
     9    4   27 2  
    10    5   28 ar 
    11    5   31 ar 
    12    6    8 1  
    13    6   15 1  
    14   16    6 1  
    15    8    7 1  
    16    7   13 1  
    17   20    9 1  
    18    9   21 1  
    19   21   10 1  
    20   22   10 1  
    21   20   11 1  
    22   11   22 1  
    23   28   12 ar 
    24   12   29 ar 
    25   14   13 1  
    26   15   14 1  
    27   17   16 1  
    28   16   23 1  
    29   17   18 2  
    30   19   17 am 
    31   19   20 1  
    32   24   25 ar 
    33   25   26 ar 
    34   25   34 1  
    35   26   33 1  
    36   29   30 ar 
    37   29   32 1  
    38   30   31 ar 
    39    1   35 1  
    40    6   36 1  
    41    7   37 1  
    42    7   38 1  
    43    8   39 1  
    44    8   40 1  
    45    9   41 1  
    46    9   42 1  
    47   10   43 1  
    48   10   44 1  
    49   11   45 1  
    50   11   46 1  
    51   12   47 1  
    52   13   48 1  
    53   13   49 1  
    54   14   50 1  
    55   14   51 1  
    56   16   52 1  
    57   19   53 1  
    58   20   54 1  
    59   21   55 1  
    60   21   56 1  
    61   22   57 1  
    62   22   58 1  
    63   24   59 1  
    64   28   60 1  
    65   30   61 1  
    66   31   62 1  
@<TRIPOS>SUBSTRUCTURE
     1 9MD         1

