### 
### Created by X-TOOL on Mon Sep 10 21:13:33 2018
### 

@<TRIPOS>MOLECULE
5q14_ligand
   60    64     1     0     0
SMALL
GAST_HUCK


@<TRIPOS>ATOM
      1 N1         13.2640   24.1690    3.8230 N.pl3     1 9MM        -0.2322
      2 N3         13.5180   25.6800    2.1720 N.2       1 9MM        -0.3078
      3 C4         12.0260   24.8040    3.6730 C.ar      1 9MM         0.0804
      4 C5         12.2040   25.7300    2.6470 C.ar      1 9MM         0.0285
      5 C6         10.8190   24.6380    4.3370 C.ar      1 9MM        -0.0063
      6 C7         13.6470   23.0700    4.7890 C.3       1 9MM         0.0961
      7 C8         11.1330   26.5370    2.2580 C.ar      1 9MM        -0.0282
      8 C10         9.2080   18.0850    0.7230 C.2       1 9MM         0.0548
      9 C13        10.2410   18.9720    1.3340 C.ar      1 9MM        -0.0028
     10 C15        10.9340   21.1470    2.0120 C.ar      1 9MM         0.1633
     11 C17        12.1380   20.6730    2.4810 C.ar      1 9MM         0.1281
     12 C20        11.4530   18.4630    1.8060 C.ar      1 9MM        -0.0602
     13 C21        12.4080   19.3040    2.3820 C.ar      1 9MM        -0.0306
     14 C22        13.5380   23.5320    6.2530 C.3       1 9MM        -0.0092
     15 C24        15.8380   23.1970    2.0010 C.ar      1 9MM        -0.0442
     16 C14        12.8290   21.8190    4.4660 C.3       1 9MM         0.0996
     17 O18        12.9840   21.5990    3.0310 O.3       1 9MM        -0.3128
     18 C16         9.9850   20.3340    1.4440 C.ar      1 9MM        -0.0225
     19 F27        10.6770   22.4710    2.1140 F         1 9MM        -0.1894
     20 O19         9.4880   16.8290    0.7180 O.co2     1 9MM        -0.5637
     21 O28         8.1740   18.5310    0.2720 O.co2     1 9MM        -0.5637
     22 C33        14.0890   22.4660    7.2210 C.3       1 9MM        -0.0474
     23 C35        13.9690   22.8970    8.6910 C.3       1 9MM        -0.0527
     24 C37        14.6800   24.2170    8.9390 C.3       1 9MM        -0.0530
     25 C36        14.1600   25.3220    7.9730 C.3       1 9MM        -0.0527
     26 C34        14.2570   24.8640    6.4860 C.3       1 9MM        -0.0474
     27 C9          9.7810   25.4350    3.9350 C.ar      1 9MM         0.1540
     28 C12         9.9300   26.3650    2.9210 C.ar      1 9MM         0.1515
     29 C2         14.1060   24.7380    2.8950 C.2       1 9MM         0.1415
     30 C11        15.5140   24.3370    2.7370 C.ar      1 9MM         0.0334
     31 C23        16.5440   25.0650    3.3330 C.ar      1 9MM        -0.0442
     32 C31        17.8690   24.6700    3.1860 C.ar      1 9MM        -0.0432
     33 C29        18.1550   23.5410    2.4450 C.ar      1 9MM         0.0443
     34 C30        17.1550   22.7990    1.8520 C.ar      1 9MM        -0.0432
     35 CL32       19.8110   23.0370    2.2570 Cl        1 9MM        -0.0670
     36 F26         8.8730   27.1190    2.5780 F         1 9MM        -0.1928
     37 F25         8.5740   25.3130    4.5470 F         1 9MM        -0.1901
     38 H1         10.7036   23.9131    5.1346 H         1 9MM         0.0521
     39 H2         14.7044   22.8230    4.6133 H         1 9MM         0.0665
     40 H3         11.2395   27.2704    1.4669 H         1 9MM         0.0527
     41 H4         11.6552   17.4012    1.7242 H         1 9MM         0.0590
     42 H5         13.3457   18.9012    2.7474 H         1 9MM         0.0539
     43 H6         12.4713   23.6784    6.4780 H         1 9MM         0.0330
     44 H7         15.0479   22.6154    1.5399 H         1 9MM         0.0660
     45 H8         11.7699   21.9792    4.7163 H         1 9MM         0.0643
     46 H9         13.2123   20.9553    5.0291 H         1 9MM         0.0643
     47 H10         9.0492   20.7481    1.0863 H         1 9MM         0.0608
     48 H11        15.1500   22.2916    6.9888 H         1 9MM         0.0269
     49 H12        13.5243   21.5328    7.0786 H         1 9MM         0.0269
     50 H13        14.4187   22.1223    9.3295 H         1 9MM         0.0265
     51 H14        12.9049   23.0098    8.9457 H         1 9MM         0.0265
     52 H15        15.7597   24.0793    8.7798 H         1 9MM         0.0265
     53 H16        14.4997   24.5331    9.9771 H         1 9MM         0.0265
     54 H17        14.7651   26.2305    8.1085 H         1 9MM         0.0265
     55 H18        13.1092   25.5422    8.2125 H         1 9MM         0.0265
     56 H19        13.7989   25.6326    5.8462 H         1 9MM         0.0269
     57 H20        15.3174   24.7479    6.2177 H         1 9MM         0.0269
     58 H21        16.3090   25.9477    3.9167 H         1 9MM         0.0660
     59 H22        18.6667   25.2410    3.6471 H         1 9MM         0.0632
     60 H23        17.3980   21.9137    1.2755 H         1 9MM         0.0632
@<TRIPOS>BOND
     1    1    3 1  
     2    1    6 1  
     3   29    1 1  
     4    2    4 1  
     5   29    2 2  
     6    4    3 ar 
     7    3    5 ar 
     8    4    7 ar 
     9    5   27 ar 
    10    6   14 1  
    11    6   16 1  
    12    7   28 ar 
    13    9    8 1  
    14    8   20 ar 
    15    8   21 ar 
    16   12    9 ar 
    17   18    9 ar 
    18   11   10 ar 
    19   10   18 ar 
    20   10   19 1  
    21   11   13 ar 
    22   17   11 1  
    23   13   12 ar 
    24   14   22 1  
    25   14   26 1  
    26   30   15 ar 
    27   15   34 ar 
    28   16   17 1  
    29   22   23 1  
    30   23   24 1  
    31   25   24 1  
    32   26   25 1  
    33   28   27 ar 
    34   27   37 1  
    35   28   36 1  
    36   29   30 1  
    37   30   31 ar 
    38   31   32 ar 
    39   32   33 ar 
    40   33   34 ar 
    41   33   35 1  
    42    5   38 1  
    43    6   39 1  
    44    7   40 1  
    45   12   41 1  
    46   13   42 1  
    47   14   43 1  
    48   15   44 1  
    49   16   45 1  
    50   16   46 1  
    51   18   47 1  
    52   22   48 1  
    53   22   49 1  
    54   23   50 1  
    55   23   51 1  
    56   24   52 1  
    57   24   53 1  
    58   25   54 1  
    59   25   55 1  
    60   26   56 1  
    61   26   57 1  
    62   31   58 1  
    63   32   59 1  
    64   34   60 1  
@<TRIPOS>SUBSTRUCTURE
     1 9MM         1

