### 
### Created by X-TOOL on Mon Sep 10 21:13:34 2018
### 

@<TRIPOS>MOLECULE
5q15_ligand
   71    75     1     0     0
SMALL
GAST_HUCK


@<TRIPOS>ATOM
      1 C4         24.1530   16.9310   99.6630 C.ar      1 9MP         0.0790
      2 C5         24.0920   16.0020   98.6270 C.ar      1 9MP         0.0164
      3 C6         25.2310   15.2740   98.2790 C.ar      1 9MP        -0.0331
      4 C10        22.4110   18.5350  100.7160 C.3       1 9MP         0.1582
      5 C15        21.6150   18.7080  104.5600 C.3       1 9MP        -0.0526
      6 C17        24.6250   23.0310   96.3080 C.3       1 9MP        -0.0529
      7 C21        22.7410   22.2740   97.8040 C.3       1 9MP        -0.0299
      8 C22        23.7130   21.4930   98.6840 C.3       1 9MP         0.0421
      9 C24        21.1980   17.2410  104.7710 C.3       1 9MP        -0.0530
     10 C26        22.0480   16.6660  102.4530 C.3       1 9MP        -0.0454
     11 C28        21.5810   19.0860  103.0640 C.3       1 9MP        -0.0454
     12 C1         26.3800   15.5170   99.0010 C.ar      1 9MP         0.1485
     13 C2         26.4140   16.4420  100.0280 C.ar      1 9MP         0.1510
     14 C3         25.3070   17.1680  100.3840 C.ar      1 9MP        -0.0094
     15 N7         22.8200   15.9620   98.0770 N.2       1 9MP        -0.3175
     16 C9         22.1170   16.8360   98.7600 C.2       1 9MP         0.1644
     17 N8         22.8560   17.4760   99.7660 N.pl3     1 9MP        -0.2103
     18 C11        23.2100   19.8160  100.4260 C.2       1 9MP         0.2092
     19 O12        23.9340   20.3290  101.2750 O.2       1 9MP        -0.3938
     20 N13        23.0580   20.3000   99.1930 N.am      1 9MP        -0.2815
     21 C18        23.4230   23.4670   97.1280 C.3       1 9MP        -0.0510
     22 C16        25.6350   22.2980   97.1800 C.3       1 9MP        -0.0510
     23 C23        24.9830   21.0830   97.8920 C.3       1 9MP        -0.0299
     24 C27        22.4650   18.1500  102.2090 C.3       1 9MP         0.0059
     25 C25        22.0700   16.2980  103.9470 C.3       1 9MP        -0.0526
     26 C14        20.6740   17.0950   98.4480 C.3       1 9MP         0.1722
     27 C29        19.6830   16.6720   99.4950 C.ar      1 9MP         0.0056
     28 C30        19.7610   15.4140  100.0830 C.ar      1 9MP        -0.0548
     29 C31        18.8440   15.0270  101.0480 C.ar      1 9MP        -0.0678
     30 C32        17.8380   15.8910  101.4350 C.ar      1 9MP        -0.0683
     31 C33        17.7490   17.1440  100.8550 C.ar      1 9MP        -0.0678
     32 C34        18.6650   17.5340   99.8920 C.ar      1 9MP        -0.0548
     33 O35        20.5130   18.4730   98.1180 O.3       1 9MP        -0.3460
     34 C36        20.5100   18.7210   96.7180 C.3       1 9MP         0.0431
     35 F20        27.5710   16.6350  100.6970 F         1 9MP        -0.1923
     36 F19        27.5070   14.8350   98.7010 F         1 9MP        -0.1939
     37 H1         25.2128   14.5477   97.4745 H         1 9MP         0.0509
     38 H2         21.3548   18.7435  100.4903 H         1 9MP         0.0885
     39 H3         22.6363   18.8498  104.9431 H         1 9MP         0.0265
     40 H4         20.9226   19.3611  105.1113 H         1 9MP         0.0265
     41 H5         25.1040   23.9188   95.8694 H         1 9MP         0.0265
     42 H6         24.2890   22.3604   95.5034 H         1 9MP         0.0265
     43 H7         21.9131   22.6428   98.4273 H         1 9MP         0.0287
     44 H8         22.3448   21.6030   97.0277 H         1 9MP         0.0287
     45 H9         24.0128   22.1286   99.5302 H         1 9MP         0.0556
     46 H10        20.1484   17.1184  104.4657 H         1 9MP         0.0265
     47 H11        21.3021   16.9876  105.8363 H         1 9MP         0.0265
     48 H12        22.7464   16.0080  101.9151 H         1 9MP         0.0270
     49 H13        21.0297   16.5151  102.0653 H         1 9MP         0.0270
     50 H14        21.9436   20.1183  102.9504 H         1 9MP         0.0270
     51 H15        20.5434   19.0202  102.7048 H         1 9MP         0.0270
     52 H16        25.3359   17.8916  101.1907 H         1 9MP         0.0515
     53 H17        22.4486   19.8058   98.5731 H         1 9MP         0.1855
     54 H18        22.6993   23.9636   96.4650 H         1 9MP         0.0266
     55 H19        23.7561   24.1739   97.9022 H         1 9MP         0.0266
     56 H20        26.0246   22.9922   97.9391 H         1 9MP         0.0266
     57 H21        26.4629   21.9424   96.5490 H         1 9MP         0.0266
     58 H22        24.7048   20.3343   97.1357 H         1 9MP         0.0287
     59 H23        25.7123   20.6458   98.5899 H         1 9MP         0.0287
     60 H24        23.5065   18.2666  102.5432 H         1 9MP         0.0354
     61 H25        21.6966   15.2703  104.0669 H         1 9MP         0.0265
     62 H26        23.1053   16.3571  104.3139 H         1 9MP         0.0265
     63 H27        20.4377   16.5080   97.5482 H         1 9MP         0.1026
     64 H28        20.5465   14.7295   99.7838 H         1 9MP         0.0564
     65 H29        18.9165   14.0443  101.4998 H         1 9MP         0.0600
     66 H30        17.1213   15.5886  102.1899 H         1 9MP         0.0562
     67 H31        16.9593   17.8231  101.1554 H         1 9MP         0.0600
     68 H32        18.5884   18.5182   99.4441 H         1 9MP         0.0564
     69 H33        20.3826   19.7985   96.5368 H         1 9MP         0.0529
     70 H34        19.6811   18.1700   96.2498 H         1 9MP         0.0529
     71 H35        21.4640   18.3865   96.2843 H         1 9MP         0.0529
@<TRIPOS>BOND
     1    1    2 ar 
     2    1   14 ar 
     3   17    1 1  
     4    2    3 ar 
     5   15    2 1  
     6    3   12 ar 
     7    4   17 1  
     8   18    4 1  
     9    4   24 1  
    10    5    9 1  
    11   11    5 1  
    12   21    6 1  
    13    6   22 1  
    14    8    7 1  
    15    7   21 1  
    16   20    8 1  
    17    8   23 1  
    18   25    9 1  
    19   24   10 1  
    20   10   25 1  
    21   24   11 1  
    22   13   12 ar 
    23   12   36 1  
    24   14   13 ar 
    25   13   35 1  
    26   16   15 2  
    27   17   16 1  
    28   16   26 1  
    29   18   19 2  
    30   18   20 am 
    31   22   23 1  
    32   26   27 1  
    33   26   33 1  
    34   27   28 ar 
    35   27   32 ar 
    36   28   29 ar 
    37   29   30 ar 
    38   30   31 ar 
    39   31   32 ar 
    40   33   34 1  
    41    3   37 1  
    42    4   38 1  
    43    5   39 1  
    44    5   40 1  
    45    6   41 1  
    46    6   42 1  
    47    7   43 1  
    48    7   44 1  
    49    8   45 1  
    50    9   46 1  
    51    9   47 1  
    52   10   48 1  
    53   10   49 1  
    54   11   50 1  
    55   11   51 1  
    56   14   52 1  
    57   20   53 1  
    58   21   54 1  
    59   21   55 1  
    60   22   56 1  
    61   22   57 1  
    62   23   58 1  
    63   23   59 1  
    64   24   60 1  
    65   25   61 1  
    66   25   62 1  
    67   26   63 1  
    68   28   64 1  
    69   29   65 1  
    70   30   66 1  
    71   31   67 1  
    72   32   68 1  
    73   34   69 1  
    74   34   70 1  
    75   34   71 1  
@<TRIPOS>SUBSTRUCTURE
     1 9MP         1

