### 
### Created by X-TOOL on Mon Sep 10 21:13:34 2018
### 

@<TRIPOS>MOLECULE
5q16_ligand
   71    75     1     0     0
SMALL
GAST_HUCK


@<TRIPOS>ATOM
      1 C4         23.9360   17.2670   99.2100 C.ar      1 9MS         0.0820
      2 C5         23.8340   16.2620   98.2500 C.ar      1 9MS         0.0178
      3 C6         24.9920   15.6270   97.7880 C.ar      1 9MS        -0.0662
      4 C10        22.1780   18.7550  100.4000 C.3       1 9MS         0.1586
      5 C15        21.4440   19.3090  102.7940 C.3       1 9MS        -0.0454
      6 C17        23.0750   23.6970   96.7490 C.3       1 9MS        -0.0510
      7 C20        25.3240   22.5440   96.6930 C.3       1 9MS        -0.0510
      8 C21        24.6930   21.2890   97.3730 C.3       1 9MS        -0.0299
      9 C22        23.4440   21.6630   98.2160 C.3       1 9MS         0.0421
     10 C24        21.2630   17.5160  104.5710 C.3       1 9MS        -0.0530
     11 C26        21.9260   16.9200  102.1630 C.3       1 9MS        -0.0454
     12 C28        17.6330   18.2590   98.5950 C.ar      1 9MS        -0.0386
     13 C1         26.2350   16.0120   98.2980 C.ar      1 9MS        -0.0442
     14 C2         26.2750   17.0320   99.2650 C.ar      1 9MS         0.1174
     15 C3         25.1550   17.6740   99.7390 C.ar      1 9MS        -0.0090
     16 N7         22.4990   16.0560   97.9010 N.2       1 9MS        -0.3181
     17 C9         21.8240   16.9140   98.6310 C.2       1 9MS         0.1552
     18 N8         22.6110   17.6820   99.4540 N.pl3     1 9MS        -0.2097
     19 C11        22.9070   20.0750  100.0470 C.2       1 9MS         0.2093
     20 O12        23.5170   20.7140  100.9000 O.2       1 9MS        -0.3938
     21 N13        22.8240   20.4520   98.7600 N.am      1 9MS        -0.2815
     22 C16        22.4340   22.4490   97.3840 C.3       1 9MS        -0.0299
     23 C19        24.2720   23.3290   95.8780 C.3       1 9MS        -0.0529
     24 C27        22.3120   18.3820  101.8930 C.3       1 9MS         0.0059
     25 C23        21.6080   18.9770  104.2820 C.3       1 9MS        -0.0526
     26 C25        22.0740   16.5530  103.6690 C.3       1 9MS        -0.0526
     27 C33        20.3450   17.0480   98.5840 C.3       1 9MS         0.1502
     28 O30        20.0370   18.3440   98.0820 O.3       1 9MS        -0.2995
     29 C14        18.7120   18.6370   97.7920 C.ar      1 9MS         0.0969
     30 C31        16.3400   18.6020   98.2160 C.ar      1 9MS        -0.0636
     31 C34        16.1480   19.3130   97.0500 C.ar      1 9MS         0.0218
     32 C32        17.2070   19.6930   96.2500 C.ar      1 9MS        -0.0552
     33 C29        18.5120   19.3610   96.6070 C.ar      1 9MS        -0.0158
     34 C36        19.6700   19.7730   95.7330 C.3       1 9MS        -0.0330
     35 CL35       14.5330   19.7440   96.5720 Cl        1 9MS        -0.0828
     36 F18        27.4810   17.4080   99.7650 F         1 9MS        -0.1922
     37 H1         24.9257   14.8438   97.0415 H         1 9MS         0.0530
     38 H2         21.1052   18.9205  100.2220 H         1 9MS         0.0886
     39 H3         20.3867   19.1859  102.5167 H         1 9MS         0.0270
     40 H4         21.7477   20.3530  102.6271 H         1 9MS         0.0270
     41 H5         23.4099   24.3733   97.5493 H         1 9MS         0.0266
     42 H6         22.3244   24.2074   96.1277 H         1 9MS         0.0266
     43 H7         26.1301   22.2191   96.0188 H         1 9MS         0.0266
     44 H8         25.7391   23.2022   97.4704 H         1 9MS         0.0266
     45 H9         25.4422   20.8252   98.0314 H         1 9MS         0.0287
     46 H10        24.3958   20.5721   96.5934 H         1 9MS         0.0287
     47 H11        23.7686   22.2965   99.0546 H         1 9MS         0.0556
     48 H12        20.1898   17.3590  104.3877 H         1 9MS         0.0265
     49 H13        21.4910   17.2963  105.6244 H         1 9MS         0.0265
     50 H14        22.5801   16.2635  101.5704 H         1 9MS         0.0270
     51 H15        20.8799   16.7658  101.8599 H         1 9MS         0.0270
     52 H16        17.8030   17.7012   99.5088 H         1 9MS         0.0522
     53 H17        27.1467   15.5355   97.9561 H         1 9MS         0.0510
     54 H18        25.2196   18.4566  100.4862 H         1 9MS         0.0522
     55 H19        22.3063   19.8691   98.1337 H         1 9MS         0.1855
     56 H20        22.0473   21.7999   96.5846 H         1 9MS         0.0287
     57 H21        21.6044   22.7646   98.0337 H         1 9MS         0.0287
     58 H22        24.7312   24.2496   95.4888 H         1 9MS         0.0265
     59 H23        23.9290   22.7069   95.0382 H         1 9MS         0.0265
     60 H24        23.3665   18.5153  102.1761 H         1 9MS         0.0354
     61 H25        20.9400   19.6248  104.8686 H         1 9MS         0.0265
     62 H26        22.6513   19.1630  104.5770 H         1 9MS         0.0265
     63 H27        21.7100   15.5266  103.8240 H         1 9MS         0.0265
     64 H28        23.1364   16.6115  103.9482 H         1 9MS         0.0265
     65 H29        19.9271   16.9301   99.5946 H         1 9MS         0.0884
     66 H30        19.9214   16.2801   97.9201 H         1 9MS         0.0884
     67 H31        15.4937   18.3142   98.8292 H         1 9MS         0.0538
     68 H32        17.0222   20.2522   95.3400 H         1 9MS         0.0532
     69 H33        20.6109   19.4206   96.1808 H         1 9MS         0.0368
     70 H34        19.6928   20.8694   95.6473 H         1 9MS         0.0368
     71 H35        19.5510   19.3294   94.7335 H         1 9MS         0.0368
@<TRIPOS>BOND
     1    1    2 ar 
     2    1   15 ar 
     3   18    1 1  
     4    2    3 ar 
     5   16    2 1  
     6    3   13 ar 
     7   18    4 1  
     8    4   19 1  
     9    4   24 1  
    10   24    5 1  
    11    5   25 1  
    12   22    6 1  
    13    6   23 1  
    14    8    7 1  
    15    7   23 1  
    16    9    8 1  
    17   21    9 1  
    18    9   22 1  
    19   25   10 1  
    20   26   10 1  
    21   24   11 1  
    22   11   26 1  
    23   29   12 ar 
    24   12   30 ar 
    25   14   13 ar 
    26   15   14 ar 
    27   14   36 1  
    28   17   16 2  
    29   17   18 1  
    30   27   17 1  
    31   19   20 2  
    32   19   21 am 
    33   28   27 1  
    34   28   29 1  
    35   29   33 ar 
    36   30   31 ar 
    37   31   32 ar 
    38   31   35 1  
    39   32   33 ar 
    40   33   34 1  
    41    3   37 1  
    42    4   38 1  
    43    5   39 1  
    44    5   40 1  
    45    6   41 1  
    46    6   42 1  
    47    7   43 1  
    48    7   44 1  
    49    8   45 1  
    50    8   46 1  
    51    9   47 1  
    52   10   48 1  
    53   10   49 1  
    54   11   50 1  
    55   11   51 1  
    56   12   52 1  
    57   13   53 1  
    58   15   54 1  
    59   21   55 1  
    60   22   56 1  
    61   22   57 1  
    62   23   58 1  
    63   23   59 1  
    64   24   60 1  
    65   25   61 1  
    66   25   62 1  
    67   26   63 1  
    68   26   64 1  
    69   27   65 1  
    70   27   66 1  
    71   30   67 1  
    72   32   68 1  
    73   34   69 1  
    74   34   70 1  
    75   34   71 1  
@<TRIPOS>SUBSTRUCTURE
     1 9MS         1

