### 
### Created by X-TOOL on Mon Sep 10 21:13:34 2018
### 

@<TRIPOS>MOLECULE
5q17_ligand
   54    58     1     0     0
SMALL
GAST_HUCK


@<TRIPOS>ATOM
      1 C4        -14.6560   52.1090    0.8110 C.3       1 9MV         0.0392
      2 C5        -14.3330   52.1350   -0.6590 C.ar      1 9MV        -0.0230
      3 C6        -14.3430   53.4580   -1.1030 C.ar      1 9MV         0.1009
      4 C7        -15.2940   50.0670    5.8110 C.2       1 9MV         0.1604
      5 C10       -16.0380   51.4310    1.0060 C.3       1 9MV        -0.0571
      6 C13       -14.7400   55.7670   -0.1080 C.3       1 9MV         0.0983
      7 C20       -16.3860   51.1290    2.4520 C.3       1 9MV         0.0195
      8 C21       -11.1660   58.1090   -0.7070 C.ar      1 9MV         0.0032
      9 C22       -14.1260   49.8760    6.5010 C.2       1 9MV        -0.0523
     10 C26       -12.4080   58.5660   -1.1390 C.ar      1 9MV        -0.0542
     11 C28       -13.8260   51.4340   -2.8810 C.ar      1 9MV         0.0252
     12 O31        -9.9440   59.9230   -1.6380 O.co2     1 9MV        -0.5625
     13 C12        -9.9430   58.9310   -0.9200 C.2       1 9MV         0.0584
     14 O24        -8.8860   58.5110   -0.2810 O.co2     1 9MV        -0.5625
     15 C32       -13.5440   57.8020   -0.9400 C.ar      1 9MV        -0.0540
     16 C29       -13.4770   56.5650   -0.3120 C.ar      1 9MV        -0.0104
     17 N2        -14.6200   54.3080   -0.0310 N.am      1 9MV        -0.1931
     18 C3        -14.8140   53.6040    1.1230 C.2       1 9MV         0.2147
     19 O17       -15.0780   54.0870    2.2100 O.2       1 9MV        -0.3193
     20 N8        -15.2920   50.3400    3.0440 N.am      1 9MV        -0.2359
     21 C19       -14.0240   51.0960    3.1120 C.3       1 9MV         0.0195
     22 C9        -13.5660   51.4550    1.7030 C.3       1 9MV        -0.0571
     23 S1        -15.6580   49.3460    4.2760 S.o2      1 9MV         0.0790
     24 O14       -14.8080   48.2050    4.1460 O.2       1 9MV        -0.1497
     25 O15       -17.0750   49.1540    4.2520 O.2       1 9MV        -0.1497
     26 C25       -14.1370   50.6010    7.7230 C.2       1 9MV        -0.0774
     27 C23       -15.2760   51.2950    7.9140 C.2       1 9MV        -0.0067
     28 S11       -16.3850   51.1040    6.6300 S.3       1 9MV        -0.0178
     29 C18       -14.0760   51.1050   -1.5600 C.ar      1 9MV        -0.0451
     30 BR34      -13.4700   50.0390   -4.1200 Br        1 9MV        -0.0533
     31 C30       -13.8300   52.7430   -3.3280 C.ar      1 9MV        -0.0388
     32 C16       -14.0890   53.7710   -2.4350 C.ar      1 9MV        -0.0077
     33 C33       -12.2410   56.1100    0.1200 C.ar      1 9MV        -0.0540
     34 C27       -11.0980   56.8690   -0.0730 C.ar      1 9MV        -0.0542
     35 H1        -16.0395   50.4841    0.4462 H         1 9MV         0.0147
     36 H2        -16.8105   52.0994    0.5980 H         1 9MV         0.0147
     37 H3        -15.4131   55.9973   -0.9470 H         1 9MV         0.0782
     38 H4        -15.1962   56.1090    0.8327 H         1 9MV         0.0782
     39 H5        -17.3229   50.5542    2.4954 H         1 9MV         0.0467
     40 H6        -16.5071   52.0702    3.0083 H         1 9MV         0.0467
     41 H7        -13.3008   49.2529    6.1592 H         1 9MV         0.0423
     42 H8        -12.4855   59.5269   -1.6346 H         1 9MV         0.0634
     43 H9        -14.5032   58.1753   -1.2801 H         1 9MV         0.0565
     44 H10       -13.2556   50.4788    3.6005 H         1 9MV         0.0467
     45 H11       -14.1779   52.0175    3.6927 H         1 9MV         0.0467
     46 H12       -12.7241   52.1581    1.7856 H         1 9MV         0.0147
     47 H13       -13.2266   50.5331    1.2082 H         1 9MV         0.0147
     48 H14       -13.3103   50.5962    8.4319 H         1 9MV         0.0404
     49 H15       -15.4682   51.9105    8.7915 H         1 9MV         0.0711
     50 H16       -14.0718   50.0709   -1.2349 H         1 9MV         0.0809
     51 H17       -13.6317   52.9636   -4.3706 H         1 9MV         0.0817
     52 H18       -14.0936   54.8023   -2.7688 H         1 9MV         0.0595
     53 H19       -12.1677   55.1484    0.6150 H         1 9MV         0.0565
     54 H20       -10.1410   56.4949    0.2725 H         1 9MV         0.0634
@<TRIPOS>BOND
     1    1    2 1  
     2    5    1 1  
     3    1   18 1  
     4    1   22 1  
     5    2    3 ar 
     6    2   29 ar 
     7   17    3 1  
     8    3   32 ar 
     9    4    9 2  
    10   23    4 1  
    11    4   28 1  
    12    7    5 1  
    13    6   16 1  
    14   17    6 1  
    15   20    7 1  
    16   10    8 ar 
    17    8   13 1  
    18    8   34 ar 
    19    9   26 1  
    20   15   10 ar 
    21   29   11 ar 
    22   11   30 1  
    23   11   31 ar 
    24   13   12 ar 
    25   13   14 ar 
    26   16   15 ar 
    27   16   33 ar 
    28   18   17 am 
    29   18   19 2  
    30   20   21 1  
    31   20   23 am 
    32   21   22 1  
    33   23   24 2  
    34   23   25 2  
    35   26   27 2  
    36   27   28 1  
    37   31   32 ar 
    38   33   34 ar 
    39    5   35 1  
    40    5   36 1  
    41    6   37 1  
    42    6   38 1  
    43    7   39 1  
    44    7   40 1  
    45    9   41 1  
    46   10   42 1  
    47   15   43 1  
    48   21   44 1  
    49   21   45 1  
    50   22   46 1  
    51   22   47 1  
    52   26   48 1  
    53   27   49 1  
    54   29   50 1  
    55   31   51 1  
    56   32   52 1  
    57   33   53 1  
    58   34   54 1  
@<TRIPOS>SUBSTRUCTURE
     1 9MV         1

