### 
### Created by X-TOOL on Mon Sep 10 21:13:33 2018
### 

@<TRIPOS>MOLECULE
5q18_ligand
   72    76     1     0     0
SMALL
GAST_HUCK


@<TRIPOS>ATOM
      1 N1         12.8800   24.4010    3.8780 N.pl3     1 9MY        -0.2103
      2 N3         12.8220   25.9680    2.2420 N.2       1 9MY        -0.3175
      3 C4         11.5620   24.9060    3.8340 C.ar      1 9MY         0.0790
      4 C5         11.5660   25.8710    2.8290 C.ar      1 9MY         0.0164
      5 C6         12.4750   22.0720    4.5920 C.2       1 9MY         0.2092
      6 C7         13.4120   23.3160    4.7570 C.3       1 9MY         0.1582
      7 C8         10.4270   24.6140    4.5820 C.ar      1 9MY        -0.0094
      8 C10        10.3990   26.5760    2.5410 C.ar      1 9MY        -0.0331
      9 C13         9.2770   26.2850    3.2790 C.ar      1 9MY         0.1485
     10 C15        16.0240   25.2120    3.5900 C.ar      1 9MY         0.0056
     11 C17        11.6920   20.4030    2.9300 C.3       1 9MY         0.0423
     12 C21        10.1150   18.8460    0.9440 C.3       1 9MY         0.0554
     13 C22        12.3840   19.6630    1.7930 C.3       1 9MY        -0.0276
     14 C24        11.5580   18.4580    1.2910 C.3       1 9MY        -0.0248
     15 C28        17.0480   24.3220    3.9360 C.ar      1 9MY        -0.0548
     16 C31        15.1090   23.0510    0.8990 C.3       1 9MY         0.0431
     17 O20        15.0790   23.3850    2.2840 O.3       1 9MY        -0.3460
     18 C9         15.0130   24.8400    2.5390 C.3       1 9MY         0.1722
     19 C2         13.5670   25.0890    2.8770 C.2       1 9MY         0.1644
     20 F19         8.1260   26.9510    3.0290 F         1 9MY        -0.1939
     21 C12         9.2880   25.3310    4.2750 C.ar      1 9MY         0.1510
     22 F18         8.1500   25.0950    4.9600 F         1 9MY        -0.1923
     23 C16        13.8840   23.7180    6.1970 C.3       1 9MY         0.0059
     24 C29        13.2900   25.0290    6.7050 C.3       1 9MY        -0.0454
     25 C35        13.9640   25.4790    8.0130 C.3       1 9MY        -0.0526
     26 C37        13.8430   24.4150    9.1100 C.3       1 9MY        -0.0530
     27 C34        14.3470   23.0050    8.6220 C.3       1 9MY        -0.0526
     28 C30        13.7260   22.6060    7.2390 C.3       1 9MY        -0.0454
     29 O14        11.7980   21.6310    5.5150 O.2       1 9MY        -0.3938
     30 N11        12.4760   21.5530    3.3510 N.am      1 9MY        -0.2815
     31 O26         9.3340   17.6560    0.6900 O.3       1 9MY        -0.3918
     32 C25         9.4570   19.6420    2.0850 C.3       1 9MY        -0.0248
     33 C23        10.3110   20.8400    2.5000 C.3       1 9MY        -0.0276
     34 C27        15.9680   26.4450    4.2330 C.ar      1 9MY        -0.0548
     35 C33        16.9070   26.7800    5.1990 C.ar      1 9MY        -0.0678
     36 C36        17.9130   25.8920    5.5360 C.ar      1 9MY        -0.0683
     37 C32        17.9850   24.6640    4.9050 C.ar      1 9MY        -0.0678
     38 H1         14.3537   23.0106    4.2775 H         1 9MY         0.0885
     39 H2         10.4360   23.8636    5.3642 H         1 9MY         0.0515
     40 H3         10.3770   27.3286    1.7611 H         1 9MY         0.0509
     41 H4         11.5932   19.7170    3.7841 H         1 9MY         0.0556
     42 H5         10.1270   19.4694    0.0378 H         1 9MY         0.0593
     43 H6         13.3594   19.2998    2.1489 H         1 9MY         0.0288
     44 H7         12.5356   20.3612    0.9567 H         1 9MY         0.0288
     45 H8         12.0405   18.0486    0.3912 H         1 9MY         0.0291
     46 H9         11.5384   17.6900    2.0782 H         1 9MY         0.0291
     47 H10        17.1109   23.3580    3.4443 H         1 9MY         0.0564
     48 H11        15.1577   21.9579    0.7864 H         1 9MY         0.0529
     49 H12        15.9935   23.5075    0.4308 H         1 9MY         0.0529
     50 H13        14.1990   23.4297    0.4107 H         1 9MY         0.0529
     51 H14        15.2621   25.3971    1.6238 H         1 9MY         0.1026
     52 H15        14.9661   23.8938    6.1075 H         1 9MY         0.0354
     53 H16        12.2142   24.8884    6.8864 H         1 9MY         0.0270
     54 H17        13.4345   25.8074    5.9414 H         1 9MY         0.0270
     55 H18        13.4837   26.4054    8.3608 H         1 9MY         0.0265
     56 H19        15.0296   25.6694    7.8175 H         1 9MY         0.0265
     57 H20        12.7876   24.3311    9.4086 H         1 9MY         0.0265
     58 H21        14.4454   24.7273    9.9758 H         1 9MY         0.0265
     59 H22        14.0649   22.2488    9.3694 H         1 9MY         0.0265
     60 H23        15.4423   23.0335    8.5245 H         1 9MY         0.0265
     61 H24        14.2304   21.7003    6.8712 H         1 9MY         0.0270
     62 H25        12.6547   22.3985    7.3774 H         1 9MY         0.0270
     63 H26        13.0595   21.9907    2.6669 H         1 9MY         0.1855
     64 H27         9.3340   17.1071    1.4654 H         1 9MY         0.2098
     65 H28         9.3256   18.9794    2.9531 H         1 9MY         0.0291
     66 H29         8.4745   20.0037    1.7477 H         1 9MY         0.0291
     67 H30        10.4018   21.5287    1.6471 H         1 9MY         0.0288
     68 H31         9.8209   21.3569    3.3382 H         1 9MY         0.0288
     69 H32        15.1848   27.1495    3.9774 H         1 9MY         0.0564
     70 H33        16.8517   27.7436    5.6925 H         1 9MY         0.0600
     71 H34        18.6424   26.1583    6.2924 H         1 9MY         0.0562
     72 H35        18.7729   23.9668    5.1659 H         1 9MY         0.0600
@<TRIPOS>BOND
     1    1    3 1  
     2    1    6 1  
     3   19    1 1  
     4    2    4 1  
     5   19    2 2  
     6    4    3 ar 
     7    3    7 ar 
     8    4    8 ar 
     9    6    5 1  
    10    5   29 2  
    11    5   30 am 
    12    6   23 1  
    13    7   21 ar 
    14    8    9 ar 
    15    9   20 1  
    16    9   21 ar 
    17   10   15 ar 
    18   18   10 1  
    19   10   34 ar 
    20   11   13 1  
    21   30   11 1  
    22   11   33 1  
    23   14   12 1  
    24   12   31 1  
    25   12   32 1  
    26   13   14 1  
    27   15   37 ar 
    28   17   16 1  
    29   18   17 1  
    30   18   19 1  
    31   21   22 1  
    32   23   24 1  
    33   23   28 1  
    34   24   25 1  
    35   25   26 1  
    36   26   27 1  
    37   27   28 1  
    38   32   33 1  
    39   34   35 ar 
    40   35   36 ar 
    41   36   37 ar 
    42    6   38 1  
    43    7   39 1  
    44    8   40 1  
    45   11   41 1  
    46   12   42 1  
    47   13   43 1  
    48   13   44 1  
    49   14   45 1  
    50   14   46 1  
    51   15   47 1  
    52   16   48 1  
    53   16   49 1  
    54   16   50 1  
    55   18   51 1  
    56   23   52 1  
    57   24   53 1  
    58   24   54 1  
    59   25   55 1  
    60   25   56 1  
    61   26   57 1  
    62   26   58 1  
    63   27   59 1  
    64   27   60 1  
    65   28   61 1  
    66   28   62 1  
    67   30   63 1  
    68   31   64 1  
    69   32   65 1  
    70   32   66 1  
    71   33   67 1  
    72   33   68 1  
    73   34   69 1  
    74   35   70 1  
    75   36   71 1  
    76   37   72 1  
@<TRIPOS>SUBSTRUCTURE
     1 9MY         1

