### 
### Created by X-TOOL on Mon Sep 10 21:13:34 2018
### 

@<TRIPOS>MOLECULE
5q19_ligand
   72    76     1     0     0
SMALL
GAST_HUCK


@<TRIPOS>ATOM
      1 N3         13.6580   25.9730    2.4950 N.2       1 9N1        -0.3157
      2 C4         15.7170   24.8600    3.2300 C.ar      1 9N1         0.0557
      3 C5         12.9570   22.0090    4.6620 C.2       1 9N1         0.2090
      4 C6         13.7440   23.2780    5.0200 C.3       1 9N1         0.1568
      5 C7         12.0900   24.8790    3.7580 C.ar      1 9N1         0.0844
      6 C8         12.3000   25.8630    2.7980 C.ar      1 9N1         0.0264
      7 C15        18.4810   24.4420    3.1610 C.ar      1 9N1         0.0892
      8 C21        11.2110   26.5710    2.2900 C.ar      1 9N1        -0.0633
      9 C22        14.0500   25.1300    6.7680 C.3       1 9N1        -0.0454
     10 C24        15.6450   22.7340    0.4160 C.3       1 9N1         0.0615
     11 C26        13.4220   19.6500    1.9180 C.3       1 9N1        -0.0299
     12 C28         9.7410   25.2850    3.7230 C.ar      1 9N1        -0.0756
     13 O13        12.2400   21.4430    5.4850 O.2       1 9N1        -0.3938
     14 N10        13.1110   21.5870    3.4040 N.am      1 9N1        -0.2815
     15 C18        12.4530   20.4070    2.8440 C.3       1 9N1         0.0421
     16 C27        11.1910   20.8350    2.0850 C.3       1 9N1        -0.0299
     17 C33        10.5040   19.6340    1.3890 C.3       1 9N1        -0.0510
     18 C34        11.4690   18.9040    0.4620 C.3       1 9N1        -0.0529
     19 C32        12.7230   18.4520    1.2310 C.3       1 9N1        -0.0510
     20 C14        13.5870   23.6790    6.5080 C.3       1 9N1         0.0057
     21 C23        14.3600   22.7260    7.4300 C.3       1 9N1        -0.0454
     22 C30        14.1730   23.0850    8.9080 C.3       1 9N1        -0.0526
     23 C35        14.6190   24.5180    9.1910 C.3       1 9N1        -0.0530
     24 C31        13.9010   25.5270    8.2610 C.3       1 9N1        -0.0526
     25 N2         13.3710   24.3770    4.0500 N.pl3     1 9N1        -0.2169
     26 C19        10.8170   24.5710    4.2390 C.ar      1 9N1        -0.0405
     27 C29         9.9330   26.2710    2.7640 C.ar      1 9N1        -0.0774
     28 C1         14.2580   25.0750    3.2560 C.2       1 9N1         0.1336
     29 C11        16.5880   25.6920    3.9510 C.ar      1 9N1        -0.0581
     30 C16        17.9600   25.4840    3.9180 C.ar      1 9N1        -0.0364
     31 O20        19.8520   24.2840    3.1670 O.3       1 9N1        -0.3196
     32 C25        20.4380   23.3780    2.2170 C.3       1 9N1         0.0608
     33 C12        17.6380   23.6050    2.4380 C.ar      1 9N1         0.0027
     34 C9         16.2680   23.8150    2.4710 C.ar      1 9N1         0.1050
     35 O17        15.3680   23.0300    1.7850 O.3       1 9N1        -0.3170
     36 H1         14.8108   23.0578    4.8673 H         1 9N1         0.0883
     37 H2         11.3547   27.3407    1.5403 H         1 9N1         0.0542
     38 H3         13.4415   25.8123    6.1563 H         1 9N1         0.0270
     39 H4         15.1074   25.2229    6.4793 H         1 9N1         0.0270
     40 H5         14.8420   22.1029    0.0076 H         1 9N1         0.0582
     41 H6         16.6039   22.2001    0.3430 H         1 9N1         0.0582
     42 H7         15.7024   23.6710   -0.1574 H         1 9N1         0.0582
     43 H8         14.2689   19.2775    2.5130 H         1 9N1         0.0287
     44 H9         13.7920   20.3400    1.1454 H         1 9N1         0.0287
     45 H10         8.7385   25.0690    4.0742 H         1 9N1         0.0536
     46 H11        13.7160   22.1125    2.8058 H         1 9N1         0.1855
     47 H12        12.1600   19.7386    3.6671 H         1 9N1         0.0556
     48 H13        11.4687   21.5774    1.3223 H         1 9N1         0.0287
     49 H14        10.4837   21.2867    2.7961 H         1 9N1         0.0287
     50 H15         9.6506   20.0014    0.8002 H         1 9N1         0.0266
     51 H16        10.1450   18.9326    2.1566 H         1 9N1         0.0266
     52 H17        11.7687   19.5799   -0.3524 H         1 9N1         0.0265
     53 H18        10.9664   18.0213    0.0398 H         1 9N1         0.0265
     54 H19        12.4289   17.7204    1.9980 H         1 9N1         0.0266
     55 H20        13.4256   17.9826    0.5268 H         1 9N1         0.0266
     56 H21        12.5188   23.6108    6.7614 H         1 9N1         0.0354
     57 H22        15.4304   22.7823    7.1830 H         1 9N1         0.0270
     58 H23        13.9989   21.7002    7.2647 H         1 9N1         0.0270
     59 H24        14.7705   22.3957    9.5227 H         1 9N1         0.0265
     60 H25        13.1096   22.9822    9.1701 H         1 9N1         0.0265
     61 H26        15.7046   24.5933    9.0306 H         1 9N1         0.0265
     62 H27        14.3848   24.7659   10.2368 H         1 9N1         0.0265
     63 H28        12.8320   25.5527    8.5191 H         1 9N1         0.0265
     64 H29        14.3385   26.5250    8.4109 H         1 9N1         0.0265
     65 H30        10.6718   23.8018    4.9889 H         1 9N1         0.0542
     66 H31         9.0785   26.8151    2.3783 H         1 9N1         0.0520
     67 H32        16.1841   26.5069    4.5408 H         1 9N1         0.0616
     68 H33        18.6223   26.1320    4.4806 H         1 9N1         0.0477
     69 H34        21.5300   23.3641    2.3490 H         1 9N1         0.0581
     70 H35        20.1962   23.7098    1.1965 H         1 9N1         0.0581
     71 H36        20.0363   22.3668    2.3786 H         1 9N1         0.0581
     72 H37        18.0502   22.7920    1.8513 H         1 9N1         0.0478
@<TRIPOS>BOND
     1    1    6 1  
     2   28    1 2  
     3    2   28 1  
     4    2   29 ar 
     5   34    2 ar 
     6    4    3 1  
     7    3   13 2  
     8    3   14 am 
     9    4   20 1  
    10   25    4 1  
    11    5    6 ar 
    12   25    5 1  
    13    5   26 ar 
    14    6    8 ar 
    15    7   30 ar 
    16    7   31 1  
    17   33    7 ar 
    18    8   27 ar 
    19   20    9 1  
    20    9   24 1  
    21   35   10 1  
    22   15   11 1  
    23   11   19 1  
    24   26   12 ar 
    25   12   27 ar 
    26   14   15 1  
    27   15   16 1  
    28   16   17 1  
    29   17   18 1  
    30   19   18 1  
    31   20   21 1  
    32   21   22 1  
    33   22   23 1  
    34   24   23 1  
    35   28   25 1  
    36   29   30 ar 
    37   31   32 1  
    38   34   33 ar 
    39   34   35 1  
    40    4   36 1  
    41    8   37 1  
    42    9   38 1  
    43    9   39 1  
    44   10   40 1  
    45   10   41 1  
    46   10   42 1  
    47   11   43 1  
    48   11   44 1  
    49   12   45 1  
    50   14   46 1  
    51   15   47 1  
    52   16   48 1  
    53   16   49 1  
    54   17   50 1  
    55   17   51 1  
    56   18   52 1  
    57   18   53 1  
    58   19   54 1  
    59   19   55 1  
    60   20   56 1  
    61   21   57 1  
    62   21   58 1  
    63   22   59 1  
    64   22   60 1  
    65   23   61 1  
    66   23   62 1  
    67   24   63 1  
    68   24   64 1  
    69   26   65 1  
    70   27   66 1  
    71   29   67 1  
    72   30   68 1  
    73   32   69 1  
    74   32   70 1  
    75   32   71 1  
    76   33   72 1  
@<TRIPOS>SUBSTRUCTURE
     1 9N1         1

