### 
### Created by X-TOOL on Mon Sep 10 21:13:33 2018
### 

@<TRIPOS>MOLECULE
5q1a_ligand
   72    76     1     0     0
SMALL
GAST_HUCK


@<TRIPOS>ATOM
      1 N3         13.4350   26.1410    2.5290 N.2       1 9N4        -0.3157
      2 C4         15.4980   24.9830    3.1860 C.ar      1 9N4         0.0557
      3 C5         12.8050   22.1280    4.5200 C.2       1 9N4         0.2327
      4 C7         13.5370   23.4220    4.9930 C.3       1 9N4         0.1619
      5 C8         11.8810   25.0600    3.8250 C.ar      1 9N4         0.0844
      6 C10        12.4410   20.7940    2.4520 C.ar      1 9N4         0.0705
      7 C13        17.3890   23.8160    2.1880 C.ar      1 9N4         0.0027
      8 C15        13.2780   19.6800    2.1730 C.ar      1 9N4        -0.0304
      9 C17        13.4320   23.7000    6.5100 C.3       1 9N4         0.0061
     10 C21        10.6210   24.7720    4.3400 C.ar      1 9N4        -0.0405
     11 C24        11.4290   18.6690    0.9720 C.ar      1 9N4        -0.0903
     12 C26        12.7390   18.6290    1.4310 C.ar      1 9N4        -0.0804
     13 C28        14.7040   19.6110    2.6640 C.3       1 9N4        -0.0369
     14 C32        20.1330   23.1810    2.2120 C.3       1 9N4         0.0608
     15 O22        19.6290   24.3200    2.9650 O.3       1 9N4        -0.3196
     16 C18        18.2560   24.5200    3.0180 C.ar      1 9N4         0.0892
     17 C19        17.7620   25.4510    3.9280 C.ar      1 9N4        -0.0364
     18 C12        16.3900   25.6800    4.0080 C.ar      1 9N4        -0.0581
     19 C11        16.0240   24.0470    2.2690 C.ar      1 9N4         0.1050
     20 O20        15.0980   23.3880    1.4830 O.3       1 9N4        -0.3170
     21 C31        15.5130   22.9370    0.1960 C.3       1 9N4         0.0615
     22 C1         14.0420   25.2210    3.2610 C.2       1 9N4         0.1336
     23 C9         12.0820   26.0530    2.8720 C.ar      1 9N4         0.0264
     24 C23        10.9910   26.7900    2.4030 C.ar      1 9N4        -0.0633
     25 C34         9.7250   26.5070    2.9100 C.ar      1 9N4        -0.0774
     26 C33         9.5420   25.5130    3.8620 C.ar      1 9N4        -0.0756
     27 N2         13.1650   24.5340    4.0780 N.pl3     1 9N4        -0.2164
     28 C29        14.2840   22.6950    7.3090 C.3       1 9N4        -0.0454
     29 C36        14.2240   22.9470    8.8250 C.3       1 9N4        -0.0526
     30 C37        14.6640   24.3650    9.1680 C.3       1 9N4        -0.0530
     31 C35        13.8310   25.4050    8.3880 C.3       1 9N4        -0.0526
     32 C30        13.8730   25.1320    6.8550 C.3       1 9N4        -0.0454
     33 O14        12.1450   21.4280    5.2810 O.2       1 9N4        -0.3834
     34 N6         12.9750   21.8900    3.2020 N.am      1 9N4        -0.2378
     35 C25        10.6260   19.7680    1.2460 C.ar      1 9N4        -0.0804
     36 C16        11.1050   20.8520    1.9860 C.ar      1 9N4        -0.0304
     37 C27        10.2070   22.0310    2.2690 C.3       1 9N4        -0.0369
     38 H1         14.6089   23.2447    4.8210 H         1 9N4         0.0887
     39 H2         17.7783   23.0912    1.4822 H         1 9N4         0.0478
     40 H3         12.3797   23.5805    6.8074 H         1 9N4         0.0354
     41 H4         10.4835   23.9984    5.0868 H         1 9N4         0.0542
     42 H5         11.0321   17.8395    0.3980 H         1 9N4         0.0454
     43 H6         13.3543   17.7647    1.2085 H         1 9N4         0.0460
     44 H7         14.9432   20.5263    3.2252 H         1 9N4         0.0359
     45 H8         15.3839   19.5199    1.8041 H         1 9N4         0.0359
     46 H9         14.8239   18.7366    3.3205 H         1 9N4         0.0359
     47 H10        21.2315   23.1623    2.2669 H         1 9N4         0.0581
     48 H11        19.8198   23.2686    1.1612 H         1 9N4         0.0581
     49 H12        19.7287   22.2513    2.6389 H         1 9N4         0.0581
     50 H13        18.4427   25.9959    4.5721 H         1 9N4         0.0477
     51 H14        16.0090   26.4072    4.7159 H         1 9N4         0.0616
     52 H15        14.6722   22.4353   -0.3054 H         1 9N4         0.0582
     53 H16        16.3484   22.2300    0.3070 H         1 9N4         0.0582
     54 H17        15.8386   23.7976   -0.4068 H         1 9N4         0.0582
     55 H18        11.1275   27.5667    1.6592 H         1 9N4         0.0542
     56 H19         8.8698   27.0712    2.5560 H         1 9N4         0.0520
     57 H20         8.5459   25.3106    4.2387 H         1 9N4         0.0536
     58 H21        15.3299   22.7781    6.9787 H         1 9N4         0.0270
     59 H22        13.9147   21.6791    7.1054 H         1 9N4         0.0270
     60 H23        14.8882   22.2328    9.3336 H         1 9N4         0.0265
     61 H24        13.1909   22.7984    9.1724 H         1 9N4         0.0265
     62 H25        15.7258   24.4855    8.9072 H         1 9N4         0.0265
     63 H26        14.5301   24.5325   10.2469 H         1 9N4         0.0265
     64 H27        14.2367   26.4085    8.5841 H         1 9N4         0.0265
     65 H28        12.7871   25.3579    8.7315 H         1 9N4         0.0265
     66 H29        13.2010   25.8414    6.3499 H         1 9N4         0.0270
     67 H30        14.9018   25.2824    6.4961 H         1 9N4         0.0270
     68 H31        13.5326   22.5486    2.6966 H         1 9N4         0.2212
     69 H32         9.6064   19.7854    0.8782 H         1 9N4         0.0460
     70 H33        10.7576   22.7777    2.8599 H         1 9N4         0.0359
     71 H34         9.3258   21.6934    2.8342 H         1 9N4         0.0359
     72 H35         9.8830   22.4815    1.3192 H         1 9N4         0.0359
@<TRIPOS>BOND
     1   22    1 2  
     2    1   23 1  
     3    2   18 ar 
     4   19    2 ar 
     5    2   22 1  
     6    4    3 1  
     7    3   33 2  
     8    3   34 am 
     9    4    9 1  
    10   27    4 1  
    11    5   10 ar 
    12   23    5 ar 
    13    5   27 1  
    14    6    8 ar 
    15   34    6 1  
    16    6   36 ar 
    17   16    7 ar 
    18    7   19 ar 
    19    8   12 ar 
    20    8   13 1  
    21    9   28 1  
    22    9   32 1  
    23   10   26 ar 
    24   12   11 ar 
    25   11   35 ar 
    26   15   14 1  
    27   15   16 1  
    28   16   17 ar 
    29   17   18 ar 
    30   19   20 1  
    31   20   21 1  
    32   22   27 1  
    33   23   24 ar 
    34   24   25 ar 
    35   25   26 ar 
    36   28   29 1  
    37   29   30 1  
    38   30   31 1  
    39   31   32 1  
    40   35   36 ar 
    41   36   37 1  
    42    4   38 1  
    43    7   39 1  
    44    9   40 1  
    45   10   41 1  
    46   11   42 1  
    47   12   43 1  
    48   13   44 1  
    49   13   45 1  
    50   13   46 1  
    51   14   47 1  
    52   14   48 1  
    53   14   49 1  
    54   17   50 1  
    55   18   51 1  
    56   21   52 1  
    57   21   53 1  
    58   21   54 1  
    59   24   55 1  
    60   25   56 1  
    61   26   57 1  
    62   28   58 1  
    63   28   59 1  
    64   29   60 1  
    65   29   61 1  
    66   30   62 1  
    67   30   63 1  
    68   31   64 1  
    69   31   65 1  
    70   32   66 1  
    71   32   67 1  
    72   34   68 1  
    73   35   69 1  
    74   37   70 1  
    75   37   71 1  
    76   37   72 1  
@<TRIPOS>SUBSTRUCTURE
     1 9N4         1

