### 
### Created by X-TOOL on Mon Sep 10 21:13:33 2018
### 

@<TRIPOS>MOLECULE
5q1b_ligand
   66    71     1     0     0
SMALL
GAST_HUCK


@<TRIPOS>ATOM
      1 N1         12.9490   24.1540    3.8350 N.pl3     1 9N7        -0.2157
      2 N3         13.2270   25.8230    2.3660 N.2       1 9N7        -0.3064
      3 C4         11.7580   24.8740    3.8500 C.ar      1 9N7         0.0832
      4 C5         11.9360   25.8980    2.9380 C.ar      1 9N7         0.0296
      5 C6         12.3540   21.7960    4.4160 C.2       1 9N7         0.2375
      6 C7         13.3060   22.9730    4.6620 C.3       1 9N7         0.1629
      7 C8         10.5890   24.6990    4.5740 C.ar      1 9N7        -0.0059
      8 C10        10.8980   26.8030    2.7130 C.ar      1 9N7        -0.0278
      9 N12        11.9890   21.6180    3.1250 N.am      1 9N7        -0.2295
     10 C13         9.5860   25.5960    4.3420 C.ar      1 9N7         0.1543
     11 C15         9.7340   26.6260    3.4300 C.ar      1 9N7         0.1517
     12 C20         9.4720   18.5500    1.6590 C.ar      1 9N7        -0.0055
     13 C21        21.1390   22.4340    1.1930 C.2       1 9N7        -0.0129
     14 C22        20.7680   21.2850    0.6080 C.2       1 9N7         0.0130
     15 C24        15.2340   23.1430    1.8580 C.ar      1 9N7        -0.0417
     16 C26        16.4600   22.6190    1.4940 C.ar      1 9N7        -0.0431
     17 C28        13.4180   23.3380    6.1540 C.3       1 9N7         0.0063
     18 C2         13.7900   24.7860    2.9380 C.2       1 9N7         0.1448
     19 F33         8.7090   27.4820    3.2450 F         1 9N7        -0.1927
     20 F32         8.4220   25.4710    5.0170 F         1 9N7        -0.1899
     21 C14        15.1500   24.3230    2.6090 C.ar      1 9N7         0.0353
     22 C18        17.6460   23.2570    1.8550 C.ar      1 9N7         0.0223
     23 C9         18.9640   22.6630    1.4510 C.2       1 9N7         0.1142
     24 N11        20.1200   23.2270    1.6780 N.2       1 9N7        -0.3097
     25 S17        19.0620   21.1360    0.6400 S.3       1 9N7        -0.0044
     26 C27        17.5720   24.4390    2.6030 C.ar      1 9N7        -0.0431
     27 C25        16.3370   24.9680    2.9770 C.ar      1 9N7        -0.0417
     28 O19        11.9730   21.0850    5.3450 O.2       1 9N7        -0.3810
     29 C29        11.1290   20.5900    2.6300 C.ar      1 9N7         0.0697
     30 C35        10.9550   20.4170    1.2560 C.ar      1 9N7        -0.0373
     31 C30        10.1330   19.4110    0.7810 C.ar      1 9N7        -0.0612
     32 C16         8.5760   17.4480    1.1420 C.2       1 9N7         0.0528
     33 O23         8.2930   16.4770    1.8290 O.co2     1 9N7        -0.5648
     34 O34         8.1370   17.6070   -0.0760 O.co2     1 9N7        -0.5648
     35 C31         9.6560   18.7240    3.0320 C.ar      1 9N7        -0.0612
     36 C36        10.4760   19.7290    3.5110 C.ar      1 9N7        -0.0373
     37 C37        13.9340   24.7950    6.3530 C.3       1 9N7        -0.0454
     38 C40        14.0400   25.1660    7.8430 C.3       1 9N7        -0.0526
     39 C41        14.9300   24.1850    8.5970 C.3       1 9N7        -0.0530
     40 C39        14.4400   22.7390    8.4050 C.3       1 9N7        -0.0526
     41 C38        14.3380   22.3770    6.9050 C.3       1 9N7        -0.0454
     42 H1         14.3052   22.6458    4.3389 H         1 9N7         0.0889
     43 H2         10.4768   23.8911    5.2880 H         1 9N7         0.0522
     44 H3         11.0029   27.6142    2.0016 H         1 9N7         0.0529
     45 H4         12.3547   22.2653    2.4562 H         1 9N7         0.2272
     46 H5         22.1851   22.7240    1.2800 H         1 9N7         0.0590
     47 H6         21.4509   20.5547    0.1764 H         1 9N7         0.0770
     48 H7         14.3249   22.6342    1.5584 H         1 9N7         0.0664
     49 H8         16.5000   21.7001    0.9204 H         1 9N7         0.0659
     50 H9         12.4120   23.2655    6.5930 H         1 9N7         0.0355
     51 H10        18.4839   24.9477    2.8941 H         1 9N7         0.0659
     52 H11        16.2958   25.8836    3.5558 H         1 9N7         0.0664
     53 H12        11.4652   21.0725    0.5595 H         1 9N7         0.0511
     54 H13        10.0002   19.2894   -0.2879 H         1 9N7         0.0611
     55 H14         9.1512   18.0650    3.7291 H         1 9N7         0.0611
     56 H15        10.6122   19.8484    4.5798 H         1 9N7         0.0511
     57 H16        13.2367   25.4898    5.8620 H         1 9N7         0.0270
     58 H17        14.9284   24.8865    5.8918 H         1 9N7         0.0270
     59 H18        13.0342   25.1519    8.2880 H         1 9N7         0.0265
     60 H19        14.4658   26.1764    7.9311 H         1 9N7         0.0265
     61 H20        14.9112   24.4322    9.6687 H         1 9N7         0.0265
     62 H21        15.9596   24.2694    8.2192 H         1 9N7         0.0265
     63 H22        13.4480   22.6319    8.8680 H         1 9N7         0.0265
     64 H23        15.1481   22.0526    8.8922 H         1 9N7         0.0265
     65 H24        15.3421   22.4221    6.4582 H         1 9N7         0.0270
     66 H25        13.9403   21.3557    6.8109 H         1 9N7         0.0270
@<TRIPOS>BOND
     1    1    3 1  
     2    6    1 1  
     3    1   18 1  
     4    2    4 1  
     5   18    2 2  
     6    3    4 ar 
     7    3    7 ar 
     8    4    8 ar 
     9    5    6 1  
    10    9    5 am 
    11    5   28 2  
    12    6   17 1  
    13    7   10 ar 
    14    8   11 ar 
    15   29    9 1  
    16   10   11 ar 
    17   10   20 1  
    18   11   19 1  
    19   31   12 ar 
    20   12   32 1  
    21   12   35 ar 
    22   14   13 2  
    23   24   13 1  
    24   25   14 1  
    25   15   16 ar 
    26   21   15 ar 
    27   16   22 ar 
    28   17   37 1  
    29   17   41 1  
    30   18   21 1  
    31   21   27 ar 
    32   22   23 1  
    33   26   22 ar 
    34   23   24 2  
    35   23   25 1  
    36   27   26 ar 
    37   30   29 ar 
    38   29   36 ar 
    39   30   31 ar 
    40   32   33 ar 
    41   32   34 ar 
    42   35   36 ar 
    43   37   38 1  
    44   38   39 1  
    45   39   40 1  
    46   40   41 1  
    47    6   42 1  
    48    7   43 1  
    49    8   44 1  
    50    9   45 1  
    51   13   46 1  
    52   14   47 1  
    53   15   48 1  
    54   16   49 1  
    55   17   50 1  
    56   26   51 1  
    57   27   52 1  
    58   30   53 1  
    59   31   54 1  
    60   35   55 1  
    61   36   56 1  
    62   37   57 1  
    63   37   58 1  
    64   38   59 1  
    65   38   60 1  
    66   39   61 1  
    67   39   62 1  
    68   40   63 1  
    69   40   64 1  
    70   41   65 1  
    71   41   66 1  
@<TRIPOS>SUBSTRUCTURE
     1 9N7         1

