### 
### Created by X-TOOL on Mon Sep 10 21:13:34 2018
### 

@<TRIPOS>MOLECULE
5q1c_ligand
   72    76     1     0     0
SMALL
GAST_HUCK


@<TRIPOS>ATOM
      1 N3         13.3010   26.0330    2.4500 N.2       1 9NA        -0.3166
      2 C4         11.8160   24.8840    3.7530 C.ar      1 9NA         0.0801
      3 C5         15.4170   24.9050    3.0320 C.ar      1 9NA         0.0808
      4 C6         11.9640   25.9030    2.8260 C.ar      1 9NA         0.0230
      5 C7         12.7100   21.9780    4.5960 C.2       1 9NA         0.2090
      6 C8         16.0070   23.8800    2.2540 C.ar      1 9NA         0.1745
      7 C10        13.5830   23.2470    4.8420 C.3       1 9NA         0.1562
      8 C15         9.6290   26.2940    2.9490 C.ar      1 9NA         0.1502
      9 C17        18.1280   24.4990    2.8300 C.ar      1 9NA         0.1581
     10 C20        17.6680   25.5500    3.6350 C.ar      1 9NA        -0.0108
     11 C22        11.7280   20.5160    2.8330 C.3       1 9NA         0.0423
     12 C26         9.9560   18.9240    1.0610 C.3       1 9NA         0.0554
     13 C28        12.2520   19.9970    1.5000 C.3       1 9NA        -0.0276
     14 C1         13.9500   25.1090    3.1330 C.2       1 9NA         0.1386
     15 N2         13.1190   24.3760    3.9480 N.pl3     1 9NA        -0.2191
     16 C12        10.8490   26.6310    2.4110 C.ar      1 9NA        -0.0302
     17 C14         9.4990   25.2750    3.8720 C.ar      1 9NA         0.1527
     18 C11        10.5820   24.5430    4.3000 C.ar      1 9NA        -0.0076
     19 F23         8.2720   24.9930    4.3660 F         1 9NA        -0.1910
     20 F24         8.5250   26.9770    2.5650 F         1 9NA        -0.1933
     21 O18        12.2520   21.3150    5.5230 O.2       1 9NA        -0.3938
     22 N13        12.5100   21.6700    3.3000 N.am      1 9NA        -0.2815
     23 C27        10.2510   20.8340    2.7280 C.3       1 9NA        -0.0276
     24 C29         9.4490   19.5810    2.3670 C.3       1 9NA        -0.0248
     25 C30        11.5060   18.7330    1.0420 C.3       1 9NA        -0.0248
     26 O31         9.3170   17.6470    0.9080 O.3       1 9NA        -0.3918
     27 C19        13.9610   23.7550    6.2520 C.3       1 9NA         0.0056
     28 C32        13.1080   24.9260    6.7380 C.3       1 9NA        -0.0454
     29 C36        13.7040   25.5510    8.0020 C.3       1 9NA        -0.0526
     30 C38        13.8550   24.5180    9.1260 C.3       1 9NA        -0.0530
     31 C37        14.6010   23.2130    8.6380 C.3       1 9NA        -0.0526
     32 C33        14.0040   22.6680    7.3110 C.3       1 9NA        -0.0454
     33 N9         17.3240   23.6790    2.1520 N.ar      1 9NA        -0.2409
     34 C16        16.2950   25.7440    3.7290 C.ar      1 9NA        -0.0413
     35 O25        19.4850   24.3330    2.7540 O.3       1 9NA        -0.3017
     36 C35        19.9830   23.0560    2.3600 C.3       1 9NA         0.0642
     37 O21        15.1680   23.0750    1.5940 O.3       1 9NA        -0.2986
     38 C34        15.3560   22.9390    0.1890 C.3       1 9NA         0.0651
     39 H1         14.5593   22.9475    4.4332 H         1 9NA         0.0882
     40 H2         18.3611   26.1912    4.1674 H         1 9NA         0.0557
     41 H3         11.8452   19.7142    3.5768 H         1 9NA         0.0556
     42 H4          9.6770   19.5701    0.2156 H         1 9NA         0.0593
     43 H5         13.3208   19.7598    1.6064 H         1 9NA         0.0288
     44 H6         12.1242   20.7805    0.7386 H         1 9NA         0.0288
     45 H7         10.9409   27.4346    1.6894 H         1 9NA         0.0518
     46 H8         10.4801   23.7432    5.0246 H         1 9NA         0.0517
     47 H9         12.9207   22.2658    2.6098 H         1 9NA         0.1855
     48 H10        10.1006   21.5953    1.9484 H         1 9NA         0.0288
     49 H11         9.8964   21.2231    3.6938 H         1 9NA         0.0288
     50 H12         9.5376   18.8541    3.1878 H         1 9NA         0.0291
     51 H13         8.3931   19.8605    2.2371 H         1 9NA         0.0291
     52 H14        11.8203   18.4880    0.0167 H         1 9NA         0.0291
     53 H15        11.7691   17.9031    1.7144 H         1 9NA         0.0291
     54 H16         9.5760   17.0769    1.6224 H         1 9NA         0.2098
     55 H17        14.9882   24.1378    6.1614 H         1 9NA         0.0354
     56 H18        12.0931   24.5642    6.9597 H         1 9NA         0.0270
     57 H19        13.0607   25.6892    5.9473 H         1 9NA         0.0270
     58 H20        13.0422   26.3592    8.3467 H         1 9NA         0.0265
     59 H21        14.6945   25.9651    7.7625 H         1 9NA         0.0265
     60 H22        12.8545   24.2398    9.4889 H         1 9NA         0.0265
     61 H23        14.4307   24.9693    9.9475 H         1 9NA         0.0265
     62 H24        14.5086   22.4390    9.4141 H         1 9NA         0.0265
     63 H25        15.6637   23.4487    8.4798 H         1 9NA         0.0265
     64 H26        14.6276   21.8370    6.9496 H         1 9NA         0.0270
     65 H27        12.9823   22.3056    7.4974 H         1 9NA         0.0270
     66 H28        15.9030   26.5466    4.3432 H         1 9NA         0.0718
     67 H29        21.0827   23.0797    2.3460 H         1 9NA         0.0586
     68 H30        19.6088   22.8106    1.3552 H         1 9NA         0.0586
     69 H31        19.6418   22.2928    3.0749 H         1 9NA         0.0586
     70 H32        14.5994   22.2516   -0.2173 H         1 9NA         0.0588
     71 H33        16.3606   22.5373   -0.0094 H         1 9NA         0.0588
     72 H34        15.2531   23.9230   -0.2917 H         1 9NA         0.0588
@<TRIPOS>BOND
     1    4    1 1  
     2    1   14 2  
     3    2    4 ar 
     4   15    2 1  
     5    2   18 ar 
     6    3    6 ar 
     7   14    3 1  
     8    3   34 ar 
     9    4   16 ar 
    10    5    7 1  
    11    5   21 2  
    12   22    5 am 
    13    6   33 ar 
    14    6   37 1  
    15    7   15 1  
    16    7   27 1  
    17   16    8 ar 
    18    8   17 ar 
    19    8   20 1  
    20   10    9 ar 
    21   33    9 ar 
    22    9   35 1  
    23   34   10 ar 
    24   13   11 1  
    25   11   22 1  
    26   11   23 1  
    27   12   24 1  
    28   25   12 1  
    29   12   26 1  
    30   13   25 1  
    31   14   15 1  
    32   17   18 ar 
    33   17   19 1  
    34   23   24 1  
    35   27   28 1  
    36   27   32 1  
    37   28   29 1  
    38   29   30 1  
    39   30   31 1  
    40   31   32 1  
    41   35   36 1  
    42   37   38 1  
    43    7   39 1  
    44   10   40 1  
    45   11   41 1  
    46   12   42 1  
    47   13   43 1  
    48   13   44 1  
    49   16   45 1  
    50   18   46 1  
    51   22   47 1  
    52   23   48 1  
    53   23   49 1  
    54   24   50 1  
    55   24   51 1  
    56   25   52 1  
    57   25   53 1  
    58   26   54 1  
    59   27   55 1  
    60   28   56 1  
    61   28   57 1  
    62   29   58 1  
    63   29   59 1  
    64   30   60 1  
    65   30   61 1  
    66   31   62 1  
    67   31   63 1  
    68   32   64 1  
    69   32   65 1  
    70   34   66 1  
    71   36   67 1  
    72   36   68 1  
    73   36   69 1  
    74   38   70 1  
    75   38   71 1  
    76   38   72 1  
@<TRIPOS>SUBSTRUCTURE
     1 9NA         1

