### 
### Created by X-TOOL on Mon Sep 10 21:13:33 2018
### 

@<TRIPOS>MOLECULE
5q1d_ligand
   58    62     1     0     0
SMALL
GAST_HUCK


@<TRIPOS>ATOM
      1 N1         12.9460   24.4140    3.7270 N.pl3     1 9ND        -0.2159
      2 N3         13.1570   26.0170    2.1670 N.2       1 9ND        -0.3077
      3 C4         11.6940   25.0220    3.6200 C.ar      1 9ND         0.0828
      4 C5         11.8470   26.0170    2.6540 C.ar      1 9ND         0.0286
      5 C6         12.6090   22.0090    4.2060 C.2       1 9ND         0.2364
      6 C7         13.3610   23.2900    4.6110 C.3       1 9ND         0.1627
      7 C8         10.5080   24.7890    4.2800 C.ar      1 9ND        -0.0062
      8 C13         9.5650   26.5770    2.9830 C.ar      1 9ND         0.1515
      9 C15        13.3030   23.6440    6.1110 C.3       1 9ND         0.0063
     10 C17        16.2360   25.3040    3.3130 C.ar      1 9ND        -0.0442
     11 C20        12.0710   20.7200    2.1650 C.ar      1 9ND         0.0663
     12 C21        17.7960   23.8370    2.2570 C.ar      1 9ND         0.0443
     13 C22        17.5450   24.8910    3.1150 C.ar      1 9ND        -0.0432
     14 C26        13.9280   25.0240    6.3810 C.3       1 9ND        -0.0454
     15 C28        10.7360   20.7590    1.7790 C.ar      1 9ND        -0.0413
     16 F19         8.4820   27.3240    2.6980 F         1 9ND        -0.1928
     17 C9         10.7540   26.8210    2.3140 C.ar      1 9ND        -0.0282
     18 C2         13.7730   25.0540    2.8370 C.2       1 9ND         0.1435
     19 C12        15.1840   24.6710    2.6510 C.ar      1 9ND         0.0335
     20 C16        15.4730   23.6060    1.7990 C.ar      1 9ND        -0.0442
     21 C23        16.7760   23.1910    1.5990 C.ar      1 9ND        -0.0432
     22 CL24       19.4320   23.3130    2.0040 Cl        1 9ND        -0.0670
     23 C25        14.0190   22.5930    6.9700 C.3       1 9ND        -0.0454
     24 C29        13.9530   22.9330    8.4620 C.3       1 9ND        -0.0526
     25 C33        14.5450   24.3190    8.7450 C.3       1 9ND        -0.0530
     26 C30        13.8690   25.4010    7.8720 C.3       1 9ND        -0.0526
     27 O14        12.0460   21.2930    5.0280 O.2       1 9ND        -0.3816
     28 N10        12.6390   21.7760    2.8820 N.am      1 9ND        -0.2315
     29 C27        12.8570   19.6170    1.8300 C.ar      1 9ND        -0.0413
     30 C31        12.3030   18.5680    1.1140 C.ar      1 9ND        -0.0755
     31 C34        10.9740   18.6070    0.7330 C.ar      1 9ND        -0.0772
     32 C32        10.1920   19.6990    1.0630 C.ar      1 9ND        -0.0755
     33 C11         9.4510   25.5860    3.9350 C.ar      1 9ND         0.1540
     34 F18         8.2660   25.3930    4.5510 F         1 9ND        -0.1901
     35 H1         14.4231   23.1000    4.3970 H         1 9ND         0.0889
     36 H2         10.4168   24.0148    5.0332 H         1 9ND         0.0521
     37 H3         12.2453   23.6754    6.4115 H         1 9ND         0.0355
     38 H4         16.0285   26.1262    3.9883 H         1 9ND         0.0660
     39 H5         18.3609   25.3885    3.6267 H         1 9ND         0.0632
     40 H6         13.3805   25.7816    5.8011 H         1 9ND         0.0270
     41 H7         14.9801   25.0064    6.0604 H         1 9ND         0.0270
     42 H8         10.1209   21.6139    2.0357 H         1 9ND         0.0502
     43 H9         10.8332   27.5983    1.5626 H         1 9ND         0.0527
     44 H10        14.6649   23.0966    1.2866 H         1 9ND         0.0660
     45 H11        16.9915   22.3652    0.9307 H         1 9ND         0.0632
     46 H12        15.0741   22.5420    6.6633 H         1 9ND         0.0270
     47 H13        13.5420   21.6154    6.8067 H         1 9ND         0.0270
     48 H14        14.5208   22.1789    9.0267 H         1 9ND         0.0265
     49 H15        12.9020   22.9194    8.7864 H         1 9ND         0.0265
     50 H16        15.6226   24.3013    8.5249 H         1 9ND         0.0265
     51 H17        14.3914   24.5656    9.8059 H         1 9ND         0.0265
     52 H18        12.8167   25.5024    8.1759 H         1 9ND         0.0265
     53 H19        14.3878   26.3594    8.0214 H         1 9ND         0.0265
     54 H20        13.1357   22.4507    2.3360 H         1 9ND         0.2258
     55 H21        13.8983   19.5808    2.1291 H         1 9ND         0.0502
     56 H22        12.9144   17.7123    0.8511 H         1 9ND         0.0577
     57 H23        10.5454   17.7818    0.1758 H         1 9ND         0.0487
     58 H24         9.1510   19.7284    0.7622 H         1 9ND         0.0577
@<TRIPOS>BOND
     1    1    3 1  
     2    1    6 1  
     3   18    1 1  
     4    2    4 1  
     5   18    2 2  
     6    4    3 ar 
     7    3    7 ar 
     8    4   17 ar 
     9    6    5 1  
    10    5   27 2  
    11    5   28 am 
    12    6    9 1  
    13    7   33 ar 
    14    8   16 1  
    15   17    8 ar 
    16    8   33 ar 
    17    9   14 1  
    18    9   23 1  
    19   10   13 ar 
    20   19   10 ar 
    21   11   15 ar 
    22   28   11 1  
    23   11   29 ar 
    24   13   12 ar 
    25   12   21 ar 
    26   12   22 1  
    27   14   26 1  
    28   15   32 ar 
    29   18   19 1  
    30   19   20 ar 
    31   20   21 ar 
    32   23   24 1  
    33   24   25 1  
    34   25   26 1  
    35   29   30 ar 
    36   30   31 ar 
    37   31   32 ar 
    38   33   34 1  
    39    6   35 1  
    40    7   36 1  
    41    9   37 1  
    42   10   38 1  
    43   13   39 1  
    44   14   40 1  
    45   14   41 1  
    46   15   42 1  
    47   17   43 1  
    48   20   44 1  
    49   21   45 1  
    50   23   46 1  
    51   23   47 1  
    52   24   48 1  
    53   24   49 1  
    54   25   50 1  
    55   25   51 1  
    56   26   52 1  
    57   26   53 1  
    58   28   54 1  
    59   29   55 1  
    60   30   56 1  
    61   31   57 1  
    62   32   58 1  
@<TRIPOS>SUBSTRUCTURE
     1 9ND         1

