### 
### Created by X-TOOL on Mon Sep 10 21:13:32 2018
### 

@<TRIPOS>MOLECULE
5q1e_ligand
   57    62     1     0     0
SMALL
GAST_HUCK


@<TRIPOS>ATOM
      1 C4         41.2650   13.4210    2.0830 C.3       1 9NG         0.0392
      2 C5         41.6020   13.4990    0.6210 C.ar      1 9NG        -0.0230
      3 C6         40.5470   14.1030   -0.0610 C.ar      1 9NG         0.1010
      4 C7         42.5910   11.9590    7.2460 C.2       1 9NG         0.1604
      5 C15        40.9990   11.7810    2.4520 C.3       1 9NG        -0.0571
      6 C17        38.2550   15.0810    0.4860 C.3       1 9NG         0.0993
      7 C20        40.5940   14.2800   -1.4440 C.ar      1 9NG        -0.0077
      8 C21        37.2750   19.2570    0.3870 C.ar      1 9NG         0.0339
      9 C24        41.0350   11.4860    3.9290 C.3       1 9NG         0.0195
     10 C26        43.3730   12.8500    7.9280 C.2       1 9NG        -0.0523
     11 C28        42.7550   13.2130    9.1570 C.2       1 9NG        -0.0774
     12 BR36       44.2650   12.6230   -2.4090 Br        1 9NG        -0.0533
     13 C31        42.7510   13.2290   -1.4520 C.ar      1 9NG         0.0252
     14 C33        41.7120   13.8300   -2.1430 C.ar      1 9NG        -0.0388
     15 N2         39.5520   14.4800    0.8520 N.am      1 9NG        -0.1927
     16 C32        37.9830   16.5440    0.4960 C.ar      1 9NG        -0.0083
     17 C34        38.6880   17.4770    1.2430 C.ar      1 9NG        -0.0519
     18 C30        38.3400   18.8290    1.1900 C.ar      1 9NG        -0.0498
     19 C29        36.5760   18.3100   -0.3450 C.ar      1 9NG        -0.0498
     20 C35        36.9240   16.9850   -0.2850 C.ar      1 9NG        -0.0519
     21 C12        36.8650   20.6690    0.3000 C.2       1 9NG         0.1806
     22 N11        37.0370   21.5930    1.2260 N.pl3     1 9NG        -0.1525
     23 N8         36.5010   22.7330    0.7250 N.2       1 9NG        -0.0655
     24 N10        36.0140   22.5300   -0.4570 N.2       1 9NG        -0.1407
     25 N13        36.2330   21.2320   -0.7360 N.2       1 9NG        -0.2108
     26 C3         39.8900   14.1050    2.1320 C.2       1 9NG         0.2147
     27 O22        39.2130   14.2820    3.1280 O.2       1 9NG        -0.3193
     28 N9         42.2680   12.0580    4.4760 N.am      1 9NG        -0.2359
     29 C25        42.2440   13.5440    4.4980 C.3       1 9NG         0.0195
     30 C14        42.2950   14.0800    3.0590 C.3       1 9NG        -0.0571
     31 S1         42.9900   11.2750    5.7070 S.o2      1 9NG         0.0790
     32 O18        44.3980   11.4490    5.5290 O.2       1 9NG        -0.1497
     33 O19        42.4640    9.9450    5.7220 O.2       1 9NG        -0.1497
     34 C27        41.5820   12.6130    9.3580 C.2       1 9NG        -0.0067
     35 S16        41.1470   11.5740    8.0790 S.3       1 9NG        -0.0178
     36 C23        42.7180   13.0490   -0.0790 C.ar      1 9NG        -0.0451
     37 H1         41.7779   11.1817    1.9578 H         1 9NG         0.0147
     38 H2         40.0116   11.4918    2.0628 H         1 9NG         0.0147
     39 H3         37.5168   14.6359    1.1693 H         1 9NG         0.0787
     40 H4         38.0512   14.7470   -0.5420 H         1 9NG         0.0787
     41 H5         39.7741   14.7598   -1.9662 H         1 9NG         0.0595
     42 H6         41.0237   10.3983    4.0927 H         1 9NG         0.0467
     43 H7         40.1625   11.9400    4.4216 H         1 9NG         0.0467
     44 H8         44.3330   13.2281    7.5796 H         1 9NG         0.0423
     45 H9         43.1973   13.9129    9.8645 H         1 9NG         0.0404
     46 H10        41.7682   13.9493   -3.2190 H         1 9NG         0.0817
     47 H11        39.5118   17.1556    1.8700 H         1 9NG         0.0572
     48 H12        38.8979   19.5518    1.7743 H         1 9NG         0.0648
     49 H13        35.7467   18.6197   -0.9706 H         1 9NG         0.0648
     50 H14        36.3574   16.2635   -0.8624 H         1 9NG         0.0572
     51 H15        37.4876   21.4725    2.1443 H         1 9NG         0.2700
     52 H16        43.1141   13.9162    5.0586 H         1 9NG         0.0467
     53 H17        41.3196   13.8884    4.9846 H         1 9NG         0.0467
     54 H18        42.0968   15.1616    3.0883 H         1 9NG         0.0147
     55 H19        43.3056   13.9030    2.6624 H         1 9NG         0.0147
     56 H20        40.9680   12.7697   10.2436 H         1 9NG         0.0711
     57 H21        43.5413   12.5693    0.4379 H         1 9NG         0.0809
@<TRIPOS>BOND
     1    1    2 1  
     2    5    1 1  
     3    1   26 1  
     4    1   30 1  
     5    2    3 ar 
     6    2   36 ar 
     7    3    7 ar 
     8   15    3 1  
     9    4   10 2  
    10   31    4 1  
    11    4   35 1  
    12    9    5 1  
    13   15    6 1  
    14    6   16 1  
    15    7   14 ar 
    16   18    8 ar 
    17   19    8 ar 
    18    8   21 1  
    19   28    9 1  
    20   10   11 1  
    21   11   34 2  
    22   13   12 1  
    23   13   14 ar 
    24   36   13 ar 
    25   26   15 am 
    26   16   17 ar 
    27   16   20 ar 
    28   17   18 ar 
    29   20   19 ar 
    30   21   22 1  
    31   21   25 2  
    32   22   23 1  
    33   24   23 2  
    34   25   24 1  
    35   26   27 2  
    36   28   29 1  
    37   28   31 am 
    38   29   30 1  
    39   31   32 2  
    40   31   33 2  
    41   34   35 1  
    42    5   37 1  
    43    5   38 1  
    44    6   39 1  
    45    6   40 1  
    46    7   41 1  
    47    9   42 1  
    48    9   43 1  
    49   10   44 1  
    50   11   45 1  
    51   14   46 1  
    52   17   47 1  
    53   18   48 1  
    54   19   49 1  
    55   20   50 1  
    56   22   51 1  
    57   29   52 1  
    58   29   53 1  
    59   30   54 1  
    60   30   55 1  
    61   34   56 1  
    62   36   57 1  
@<TRIPOS>SUBSTRUCTURE
     1 9NG         1

