### 
### Created by X-TOOL on Mon Sep 10 21:13:34 2018
### 

@<TRIPOS>MOLECULE
5q1f_ligand
   73    77     1     0     0
SMALL
GAST_HUCK


@<TRIPOS>ATOM
      1 N3         13.1370   26.0660    2.3550 N.2       1 9NJ        -0.3143
      2 C4         15.2190   24.8730    2.9450 C.ar      1 9NJ         0.0817
      3 C5         11.7970   25.9650    2.7280 C.ar      1 9NJ         0.0261
      4 C6         12.5500   21.8990    4.3700 C.2       1 9NJ         0.2090
      5 C7         11.6200   24.9370    3.6500 C.ar      1 9NJ         0.0819
      6 C8         15.7600   23.8950    2.0850 C.ar      1 9NJ         0.1749
      7 C10        13.3100   23.2590    4.7420 C.3       1 9NJ         0.1565
      8 C13        16.1220   25.6010    3.7220 C.ar      1 9NJ        -0.0409
      9 C15        17.9100   24.3570    2.7310 C.ar      1 9NJ         0.1583
     10 C20        13.1800   23.6400    6.2400 C.3       1 9NJ         0.0056
     11 C21         9.4680   26.3870    2.8620 C.ar      1 9NJ         0.1163
     12 C22        10.5960   19.2620    0.6300 C.3       1 9NJ        -0.0365
     13 C24        17.4890   25.3510    3.6230 C.ar      1 9NJ        -0.0106
     14 C26        11.2780   20.6400    2.6450 C.3       1 9NJ         0.0423
     15 C36        19.7170   22.8750    2.1840 C.3       1 9NJ         0.0643
     16 O32        19.2670   24.1360    2.6550 O.3       1 9NJ        -0.3016
     17 O25        14.8760   23.1950    1.3420 O.3       1 9NJ        -0.2984
     18 C35        15.3990   22.2290    0.4240 C.3       1 9NJ         0.0652
     19 N9         17.0690   23.6380    1.9720 N.ar      1 9NJ        -0.2406
     20 C1         13.7600   25.1160    3.0360 C.2       1 9NJ         0.1400
     21 C14        10.6940   26.7080    2.3230 C.ar      1 9NJ        -0.0299
     22 F29         8.3900   27.1110    2.4710 F         1 9NJ        -0.1933
     23 C27         9.2750   25.3700    3.7760 C.ar      1 9NJ        -0.0410
     24 C16        10.3730   24.6220    4.1850 C.ar      1 9NJ        -0.0408
     25 N2         12.8980   24.3900    3.8370 N.pl3     1 9NJ        -0.2176
     26 C33        14.0990   22.7870    7.1250 C.3       1 9NJ        -0.0454
     27 C38        13.9410   23.1360    8.6100 C.3       1 9NJ        -0.0526
     28 C39        14.2120   24.6190    8.8700 C.3       1 9NJ        -0.0530
     29 C37        13.3430   25.5220    7.9640 C.3       1 9NJ        -0.0526
     30 C34        13.4890   25.1330    6.4810 C.3       1 9NJ        -0.0454
     31 O17        12.4810   20.9810    5.1840 O.2       1 9NJ        -0.3938
     32 N11        12.0080   21.8250    3.1370 N.am      1 9NJ        -0.2815
     33 C30         9.8490   20.6010    3.1690 C.3       1 9NJ        -0.0281
     34 C23         9.1210   19.3120    2.7270 C.3       1 9NJ        -0.0365
     35 C18         9.1300   19.1520    1.1750 C.3       1 9NJ         0.0119
     36 C31        11.2840   20.5560    1.1280 C.3       1 9NJ        -0.0281
     37 C12         8.4510   17.8570    0.7420 C.2       1 9NJ         0.0379
     38 O19         7.2110   18.0130    0.3530 O.co2     1 9NJ        -0.5687
     39 O28         9.0190   16.7860    0.7610 O.co2     1 9NJ        -0.5687
     40 H1         14.3796   23.0796    4.5581 H         1 9NJ         0.0882
     41 H2         15.7590   26.3619    4.4034 H         1 9NJ         0.0720
     42 H3         12.1396   23.4517    6.5433 H         1 9NJ         0.0354
     43 H4         10.5701   19.2701   -0.4697 H         1 9NJ         0.0286
     44 H5         11.1737   18.3925    0.9768 H         1 9NJ         0.0286
     45 H6         18.2039   25.9082    4.2175 H         1 9NJ         0.0557
     46 H7         11.7993   19.7510    3.0297 H         1 9NJ         0.0556
     47 H8         20.8168   22.8555    2.1823 H         1 9NJ         0.0586
     48 H9         19.3458   22.7117    1.1615 H         1 9NJ         0.0586
     49 H10        19.3372   22.0805    2.8432 H         1 9NJ         0.0586
     50 H11        14.5686   21.7409   -0.1072 H         1 9NJ         0.0588
     51 H12        15.9757   21.4727    0.9766 H         1 9NJ         0.0588
     52 H13        16.0545   22.7311   -0.3028 H         1 9NJ         0.0588
     53 H14        10.7957   27.5144    1.6057 H         1 9NJ         0.0523
     54 H15         8.2862   25.1590    4.1670 H         1 9NJ         0.0534
     55 H16        10.2619   23.8155    4.9008 H         1 9NJ         0.0537
     56 H17        15.1433   22.9618    6.8270 H         1 9NJ         0.0270
     57 H18        13.8489   21.7257    6.9798 H         1 9NJ         0.0270
     58 H19        14.6518   22.5348    9.1959 H         1 9NJ         0.0265
     59 H20        12.9139   22.8999    8.9253 H         1 9NJ         0.0265
     60 H21        15.2733   24.8286    8.6707 H         1 9NJ         0.0265
     61 H22        13.9850   24.8446    9.9224 H         1 9NJ         0.0265
     62 H23        13.6581   26.5680    8.0927 H         1 9NJ         0.0265
     63 H24        12.2886   25.4176    8.2596 H         1 9NJ         0.0265
     64 H25        12.7922   25.7403    5.8847 H         1 9NJ         0.0270
     65 H26        14.5211   25.3380    6.1604 H         1 9NJ         0.0270
     66 H27        12.1054   22.6111    2.5266 H         1 9NJ         0.1855
     67 H28         9.3015   21.4723    2.7804 H         1 9NJ         0.0288
     68 H29         9.8697   20.6413    4.2681 H         1 9NJ         0.0288
     69 H30         8.0786   19.3530    3.0757 H         1 9NJ         0.0286
     70 H31         9.6248   18.4446    3.1784 H         1 9NJ         0.0286
     71 H32         8.5519   19.9848    0.7480 H         1 9NJ         0.0466
     72 H33        10.7485   21.4257    0.7196 H         1 9NJ         0.0288
     73 H34        12.3252   20.5667    0.7734 H         1 9NJ         0.0288
@<TRIPOS>BOND
     1    3    1 1  
     2    1   20 2  
     3    2    6 ar 
     4    2    8 ar 
     5   20    2 1  
     6    5    3 ar 
     7    3   21 ar 
     8    4    7 1  
     9    4   31 2  
    10   32    4 am 
    11    5   24 ar 
    12   25    5 1  
    13    6   17 1  
    14    6   19 ar 
    15    7   10 1  
    16    7   25 1  
    17    8   13 ar 
    18   13    9 ar 
    19    9   16 1  
    20   19    9 ar 
    21   10   26 1  
    22   10   30 1  
    23   21   11 ar 
    24   11   22 1  
    25   11   23 ar 
    26   12   35 1  
    27   36   12 1  
    28   14   32 1  
    29   14   33 1  
    30   14   36 1  
    31   16   15 1  
    32   17   18 1  
    33   20   25 1  
    34   23   24 ar 
    35   26   27 1  
    36   27   28 1  
    37   28   29 1  
    38   29   30 1  
    39   33   34 1  
    40   34   35 1  
    41   35   37 1  
    42   37   38 ar 
    43   37   39 ar 
    44    7   40 1  
    45    8   41 1  
    46   10   42 1  
    47   12   43 1  
    48   12   44 1  
    49   13   45 1  
    50   14   46 1  
    51   15   47 1  
    52   15   48 1  
    53   15   49 1  
    54   18   50 1  
    55   18   51 1  
    56   18   52 1  
    57   21   53 1  
    58   23   54 1  
    59   24   55 1  
    60   26   56 1  
    61   26   57 1  
    62   27   58 1  
    63   27   59 1  
    64   28   60 1  
    65   28   61 1  
    66   29   62 1  
    67   29   63 1  
    68   30   64 1  
    69   30   65 1  
    70   32   66 1  
    71   33   67 1  
    72   33   68 1  
    73   34   69 1  
    74   34   70 1  
    75   35   71 1  
    76   36   72 1  
    77   36   73 1  
@<TRIPOS>SUBSTRUCTURE
     1 9NJ         1

