### 
### Created by X-TOOL on Mon Sep 10 21:13:33 2018
### 

@<TRIPOS>MOLECULE
5q1g_ligand
   56    58     1     0     0
SMALL
GAST_HUCK


@<TRIPOS>ATOM
      1 C4         11.9140   62.0630   18.0330 C.3       1 9NM        -0.0255
      2 C5         11.8770   63.9820   15.1090 C.2       1 9NM         0.2895
      3 C6          9.7430   62.6240   15.6680 C.2       1 9NM         0.2211
      4 C7         14.3230   60.8040   16.8160 C.3       1 9NM        -0.0506
      5 C8         12.7580   61.0080   18.7660 C.3       1 9NM        -0.0506
      6 C13        14.2140   61.0630   18.3100 C.3       1 9NM        -0.0529
      7 C15         7.6530   63.7250   15.3660 C.2       1 9NM        -0.0404
      8 C17        10.5420   66.7900   12.9610 C.3       1 9NM        -0.0301
      9 C20        10.1340   66.0530   11.6810 C.3       1 9NM        -0.0510
     10 C21         5.2580   64.2110   15.1970 C.ar      1 9NM        -0.0512
     11 C22         6.7680   65.7780   14.1970 C.ar      1 9NM        -0.0512
     12 C24         4.1830   64.9840   14.7980 C.ar      1 9NM        -0.0235
     13 C26         4.4320   66.1400   14.1080 C.ar      1 9NM         0.1370
     14 F27         3.3890   66.8900   13.7230 F         1 9NM        -0.1797
     15 C18         6.5680   64.5810   14.8980 C.ar      1 9NM        -0.0180
     16 C11         8.8990   63.5890   14.9360 C.2       1 9NM         0.0142
     17 O12         9.2560   61.6500   16.2400 O.2       1 9NM        -0.3816
     18 N2         11.1650   62.8320   15.7510 N.am      1 9NM        -0.1704
     19 C1         11.9940   61.8500   16.5090 C.3       1 9NM         0.0691
     20 C3         13.4550   61.7780   15.9990 C.3       1 9NM        -0.0255
     21 O10        13.0840   64.1000   15.2110 O.2       1 9NM        -0.3916
     22 N9         11.1050   64.8360   14.4300 N.am      1 9NM        -0.2654
     23 C14        11.6510   66.0430   13.7260 C.3       1 9NM         0.0429
     24 C16        12.8410   65.6950   12.8050 C.3       1 9NM        -0.0301
     25 C19        12.3920   64.9690   11.5210 C.3       1 9NM        -0.0510
     26 C23        11.3470   65.7700   10.7740 C.3       1 9NM        -0.0529
     27 C25         5.6920   66.5650   13.7950 C.ar      1 9NM        -0.0235
     28 H1         12.2933   63.0657   18.2793 H         1 9NM         0.0291
     29 H2         10.8661   61.9776   18.3564 H         1 9NM         0.0291
     30 H3         13.9940   59.7751   16.6086 H         1 9NM         0.0266
     31 H4         15.3731   60.9218   16.5105 H         1 9NM         0.0266
     32 H5         12.3510   60.0088   18.5519 H         1 9NM         0.0266
     33 H6         12.7121   61.1984   19.8484 H         1 9NM         0.0266
     34 H7         14.6245   62.0586   18.5341 H         1 9NM         0.0265
     35 H8         14.7903   60.2983   18.8514 H         1 9NM         0.0265
     36 H9          7.3950   63.0901   16.2123 H         1 9NM         0.0742
     37 H10         9.6613   66.8837   13.6134 H         1 9NM         0.0287
     38 H11        10.9081   67.7921   12.6930 H         1 9NM         0.0287
     39 H12         9.4124   66.6721   11.1279 H         1 9NM         0.0266
     40 H13         9.6632   65.0973   11.9548 H         1 9NM         0.0266
     41 H14         5.0781   63.2985   15.7538 H         1 9NM         0.0644
     42 H15         7.7776   66.0966   13.9638 H         1 9NM         0.0644
     43 H16         3.1673   64.6818   15.0261 H         1 9NM         0.0616
     44 H17         9.2796   64.1579   14.0890 H         1 9NM         0.0650
     45 H18        11.5525   60.8617   16.3134 H         1 9NM         0.0609
     46 H19        13.4455   61.4459   14.9504 H         1 9NM         0.0291
     47 H20        13.8992   62.7823   16.0616 H         1 9NM         0.0291
     48 H21        10.1209   64.6629   14.3895 H         1 9NM         0.1855
     49 H22        12.0309   66.7258   14.5002 H         1 9NM         0.0553
     50 H23        13.5360   65.0438   13.3553 H         1 9NM         0.0287
     51 H24        13.3553   66.6259   12.5240 H         1 9NM         0.0287
     52 H25        11.9679   63.9909   11.7919 H         1 9NM         0.0266
     53 H26        13.2651   64.8220   10.8683 H         1 9NM         0.0266
     54 H27        11.7866   66.7245   10.4491 H         1 9NM         0.0265
     55 H28        11.0155   65.2003    9.8934 H         1 9NM         0.0265
     56 H29         5.8496   67.4883   13.2494 H         1 9NM         0.0616
@<TRIPOS>BOND
     1    1    5 1  
     2   19    1 1  
     3    2   18 am 
     4    2   21 2  
     5   22    2 am 
     6    3   16 1  
     7    3   17 2  
     8   18    3 am 
     9    4    6 1  
    10   20    4 1  
    11    5    6 1  
    12    7   15 1  
    13   16    7 2  
    14    8    9 1  
    15   23    8 1  
    16    9   26 1  
    17   10   12 ar 
    18   15   10 ar 
    19   15   11 ar 
    20   11   27 ar 
    21   12   13 ar 
    22   13   14 1  
    23   27   13 ar 
    24   18   19 1  
    25   19   20 1  
    26   22   23 1  
    27   23   24 1  
    28   24   25 1  
    29   25   26 1  
    30    1   28 1  
    31    1   29 1  
    32    4   30 1  
    33    4   31 1  
    34    5   32 1  
    35    5   33 1  
    36    6   34 1  
    37    6   35 1  
    38    7   36 1  
    39    8   37 1  
    40    8   38 1  
    41    9   39 1  
    42    9   40 1  
    43   10   41 1  
    44   11   42 1  
    45   12   43 1  
    46   16   44 1  
    47   19   45 1  
    48   20   46 1  
    49   20   47 1  
    50   22   48 1  
    51   23   49 1  
    52   24   50 1  
    53   24   51 1  
    54   25   52 1  
    55   25   53 1  
    56   26   54 1  
    57   26   55 1  
    58   27   56 1  
@<TRIPOS>SUBSTRUCTURE
     1 9NM         1

