### 
### Created by X-TOOL on Mon Sep 10 21:13:32 2018
### 

@<TRIPOS>MOLECULE
5q1h_ligand
   69    74     1     0     0
SMALL
GAST_HUCK


@<TRIPOS>ATOM
      1 N3         28.5240   16.9790    6.4180 N.2       1 9NP        -0.3020
      2 C4         31.7790   19.2210    4.2200 C.2       1 9NP         0.2093
      3 C8         26.4950   16.9210    0.1480 C.2       1 9NP         0.1879
      4 C10        30.1900   18.4820    6.9030 C.ar      1 9NP         0.0883
      5 C15        27.0650   17.1260    1.4910 C.ar      1 9NP         0.0432
      6 C17        28.6620   16.5340    3.1970 C.ar      1 9NP        -0.0403
      7 C20        28.1170   16.3320    1.9420 C.ar      1 9NP        -0.0399
      8 C21        30.0240   21.0340    4.8150 C.3       1 9NP         0.0059
      9 C22        33.3640   17.3610    3.8450 C.3       1 9NP         0.0421
     10 C24        29.5370   17.0830    8.7450 C.ar      1 9NP        -0.0602
     11 C26        30.1810   21.8820    3.5620 C.3       1 9NP        -0.0454
     12 C28        33.9110   16.6490    5.0870 C.3       1 9NP        -0.0299
     13 O16        32.6240   20.1030    4.0860 O.2       1 9NP        -0.3938
     14 N13        32.0490   17.9180    4.1230 N.am      1 9NP        -0.2815
     15 C34        35.2770   15.9780    4.8000 C.3       1 9NP        -0.0510
     16 C35        35.1930   15.0060    3.6050 C.3       1 9NP        -0.0529
     17 C33        34.6560   15.7130    2.3680 C.3       1 9NP        -0.0510
     18 C27        33.2710   16.4020    2.6590 C.3       1 9NP        -0.0299
     19 C9         30.3150   19.5480    4.5180 C.3       1 9NP         0.1577
     20 C31        29.9460   23.3800    3.8490 C.3       1 9NP        -0.0526
     21 C36        28.5500   23.6260    4.4290 C.3       1 9NP        -0.0530
     22 C32        28.2780   22.7160    5.6610 C.3       1 9NP        -0.0526
     23 C25        28.5940   21.2260    5.3590 C.3       1 9NP        -0.0454
     24 N2         29.7940   18.6120    5.5630 N.pl3     1 9NP        -0.2127
     25 C23        31.1440   19.1390    7.6760 C.ar      1 9NP        -0.0384
     26 C29        31.2740   18.7510    9.0040 C.ar      1 9NP        -0.0738
     27 C30        30.4820   17.7360    9.5300 C.ar      1 9NP        -0.0755
     28 C12        29.3920   17.4660    7.4110 C.ar      1 9NP         0.0350
     29 C1         28.8050   17.6900    5.3470 C.2       1 9NP         0.1479
     30 C14        28.1620   17.5230    4.0380 C.ar      1 9NP         0.0374
     31 C18        27.1240   18.3280    3.5830 C.ar      1 9NP        -0.0403
     32 C19        26.5770   18.1290    2.3250 C.ar      1 9NP        -0.0399
     33 N7         26.8920   16.0010   -0.7340 N.2       1 9NP        -0.2056
     34 N5         26.1540   16.1190   -1.8510 N.2       1 9NP        -0.1372
     35 N6         25.3320   17.0980   -1.6420 N.2       1 9NP        -0.0628
     36 N11        25.5190   17.6270   -0.4050 N.pl3     1 9NP        -0.1502
     37 H1         29.4877   15.9150    3.5289 H         1 9NP         0.0669
     38 H2         28.5117   15.5494    1.3041 H         1 9NP         0.0668
     39 H3         30.7416   21.3822    5.5725 H         1 9NP         0.0354
     40 H4         34.0487   18.1808    3.5821 H         1 9NP         0.0556
     41 H5         28.9248   16.2915    9.1619 H         1 9NP         0.0557
     42 H6         29.4517   21.5450    2.8106 H         1 9NP         0.0270
     43 H7         31.1999   21.7507    3.1688 H         1 9NP         0.0270
     44 H8         33.1930   15.8776    5.4023 H         1 9NP         0.0287
     45 H9         34.0369   17.3850    5.8948 H         1 9NP         0.0287
     46 H10        31.2920   17.2772    4.2507 H         1 9NP         0.1855
     47 H11        35.5948   15.4193    5.6927 H         1 9NP         0.0266
     48 H12        36.0176   16.7590    4.5733 H         1 9NP         0.0266
     49 H13        34.5222   14.1736    3.8640 H         1 9NP         0.0265
     50 H14        36.1975   14.6137    3.3882 H         1 9NP         0.0265
     51 H15        34.5271   14.9760    1.5617 H         1 9NP         0.0266
     52 H16        35.3783   16.4800    2.0518 H         1 9NP         0.0266
     53 H17        32.9568   16.9646    1.7675 H         1 9NP         0.0287
     54 H18        32.5252   15.6254    2.8842 H         1 9NP         0.0287
     55 H19        29.7590   19.3226    3.5960 H         1 9NP         0.0885
     56 H20        30.0480   23.9445    2.9104 H         1 9NP         0.0265
     57 H21        30.6997   23.7287    4.5704 H         1 9NP         0.0265
     58 H22        27.7983   23.4137    3.6545 H         1 9NP         0.0265
     59 H23        28.4712   24.6789    4.7376 H         1 9NP         0.0265
     60 H24        27.2184   22.8051    5.9424 H         1 9NP         0.0265
     61 H25        28.9090   23.0512    6.4974 H         1 9NP         0.0265
     62 H26        28.4870   20.6457    6.2873 H         1 9NP         0.0270
     63 H27        27.8774   20.8563    4.6108 H         1 9NP         0.0270
     64 H28        31.7626   19.9244    7.2571 H         1 9NP         0.0548
     65 H29        32.0015   19.2454    9.6376 H         1 9NP         0.0549
     66 H30        30.6029   17.4490   10.5683 H         1 9NP         0.0526
     67 H31        26.7390   19.1181    4.2175 H         1 9NP         0.0669
     68 H32        25.7624   18.7595    1.9874 H         1 9NP         0.0668
     69 H33        25.0073   18.4151    0.0168 H         1 9NP         0.2708
@<TRIPOS>BOND
     1    1   28 1  
     2   29    1 2  
     3    2   13 2  
     4    2   14 am 
     5   19    2 1  
     6    5    3 1  
     7    3   33 2  
     8    3   36 1  
     9   24    4 1  
    10    4   25 ar 
    11    4   28 ar 
    12    7    5 ar 
    13    5   32 ar 
    14    6    7 ar 
    15   30    6 ar 
    16    8   11 1  
    17   19    8 1  
    18    8   23 1  
    19    9   12 1  
    20   14    9 1  
    21    9   18 1  
    22   10   27 ar 
    23   28   10 ar 
    24   11   20 1  
    25   12   15 1  
    26   15   16 1  
    27   17   16 1  
    28   18   17 1  
    29   24   19 1  
    30   20   21 1  
    31   22   21 1  
    32   23   22 1  
    33   29   24 1  
    34   25   26 ar 
    35   26   27 ar 
    36   29   30 1  
    37   30   31 ar 
    38   31   32 ar 
    39   33   34 1  
    40   34   35 2  
    41   35   36 1  
    42    6   37 1  
    43    7   38 1  
    44    8   39 1  
    45    9   40 1  
    46   10   41 1  
    47   11   42 1  
    48   11   43 1  
    49   12   44 1  
    50   12   45 1  
    51   14   46 1  
    52   15   47 1  
    53   15   48 1  
    54   16   49 1  
    55   16   50 1  
    56   17   51 1  
    57   17   52 1  
    58   18   53 1  
    59   18   54 1  
    60   19   55 1  
    61   20   56 1  
    62   20   57 1  
    63   21   58 1  
    64   21   59 1  
    65   22   60 1  
    66   22   61 1  
    67   23   62 1  
    68   23   63 1  
    69   25   64 1  
    70   26   65 1  
    71   27   66 1  
    72   31   67 1  
    73   32   68 1  
    74   36   69 1  
@<TRIPOS>SUBSTRUCTURE
     1 9NP         1

