### 
### Created by X-TOOL on Mon Sep 10 21:13:33 2018
### 

@<TRIPOS>MOLECULE
5q1i_ligand
   53    56     1     0     0
SMALL
GAST_HUCK


@<TRIPOS>ATOM
      1 C4         39.2590   14.4900    0.1470 C.ar      1 9O1        -0.0541
      2 C5         38.3930   14.9250    1.1380 C.ar      1 9O1        -0.0617
      3 C6         38.8700   15.2130    2.4030 C.ar      1 9O1        -0.0618
      4 C7         41.5340   13.8680   -0.6650 C.2       1 9O1         0.0647
      5 C10        42.9370   12.7860   -2.0030 C.2       1 9O1         0.1685
      6 C13        43.1900   11.0170   -3.7730 C.3       1 9O1        -0.0462
      7 C15        42.4780   11.5100    0.1670 C.2       1 9O1         0.1823
      8 C20        42.0460   10.6860    3.5130 C.ar      1 9O1        -0.0176
      9 C21        40.1770    9.6330    2.1730 C.3       1 9O1        -0.0320
     10 C22        42.8100    9.7740    4.2530 C.ar      1 9O1        -0.0545
     11 C24        41.7600   11.9120    4.0710 C.ar      1 9O1        -0.0527
     12 C26        43.0010   11.3300    6.0980 C.ar      1 9O1        -0.0222
     13 C28        43.1720   12.9150    7.9300 C.ar      1 9O1        -0.0634
     14 C12        43.9310   11.8880   -2.8210 C.3       1 9O1         0.0341
     15 C14        44.8910   12.7220   -3.6660 C.3       1 9O1        -0.0462
     16 O9         42.5650   13.9440   -2.5860 O.3       1 9O1        -0.1559
     17 N8         41.6680   14.6320   -1.7260 N.2       1 9O1        -0.1444
     18 C3         40.6360   14.3360    0.4160 C.ar      1 9O1         0.0016
     19 C1         40.2200   15.0690    2.6930 C.ar      1 9O1        -0.0479
     20 C2         41.0890   14.6350    1.7020 C.ar      1 9O1         0.0476
     21 CL18       42.7530   14.4760    2.1130 Cl        1 9O1        -0.0700
     22 C11        42.3240   12.6660   -0.7830 C.2       1 9O1         0.0876
     23 O17        43.4240   10.7340    0.0550 O.2       1 9O1        -0.4040
     24 N16        41.5350   11.3740    1.1290 N.am      1 9O1        -0.2781
     25 C19        41.5540   10.2800    2.1280 C.3       1 9O1         0.0716
     26 C23        43.2770   10.0750    5.5010 C.ar      1 9O1        -0.0567
     27 C27        43.4660   11.6880    7.3940 C.ar      1 9O1        -0.0568
     28 C29        42.4120   13.8370    7.2140 C.ar      1 9O1        -0.0637
     29 C30        41.9430   13.5310    5.9590 C.ar      1 9O1        -0.0578
     30 C25        42.2250   12.2690    5.3660 C.ar      1 9O1        -0.0258
     31 H1         38.8758   14.2664   -0.8421 H         1 9O1         0.0618
     32 H2         37.3373   15.0398    0.9201 H         1 9O1         0.0617
     33 H3         38.1865   15.5530    3.1725 H         1 9O1         0.0613
     34 H4         43.9042   10.3972   -4.3349 H         1 9O1         0.0262
     35 H5         42.6176   11.6430   -4.4733 H         1 9O1         0.0262
     36 H6         42.5005   10.3668   -3.2146 H         1 9O1         0.0262
     37 H7         39.8672    9.3590    1.1537 H         1 9O1         0.0274
     38 H8         39.4521   10.3427    2.5982 H         1 9O1         0.0274
     39 H9         40.2166    8.7297    2.7995 H         1 9O1         0.0274
     40 H10        43.0364    8.8045    3.8242 H         1 9O1         0.0587
     41 H11        41.1653   12.6227    3.5086 H         1 9O1         0.0532
     42 H12        43.5340   13.1699    8.9195 H         1 9O1         0.0598
     43 H13        44.5049   11.2672   -2.1173 H         1 9O1         0.0542
     44 H14        45.4700   13.3900   -3.0114 H         1 9O1         0.0262
     45 H15        44.3175   13.3225   -4.3875 H         1 9O1         0.0262
     46 H16        45.5772   12.0545   -4.2079 H         1 9O1         0.0262
     47 H17        40.5924   15.2939    3.6859 H         1 9O1         0.0622
     48 H18        40.7920   12.0422    1.1670 H         1 9O1         0.1862
     49 H19        42.2619    9.5229    1.7597 H         1 9O1         0.0717
     50 H20        43.8667    9.3438    6.0419 H         1 9O1         0.0620
     51 H21        44.0595   10.9825    7.9641 H         1 9O1         0.0619
     52 H22        42.1887   14.8039    7.6503 H         1 9O1         0.0611
     53 H23        41.3519   14.2590    5.4152 H         1 9O1         0.0603
@<TRIPOS>BOND
     1    1    2 ar 
     2   18    1 ar 
     3    2    3 ar 
     4   19    3 ar 
     5    4   17 2  
     6    4   18 1  
     7   22    4 1  
     8    5   14 1  
     9    5   16 1  
    10   22    5 2  
    11   14    6 1  
    12    7   22 1  
    13    7   23 2  
    14   24    7 am 
    15    8   10 ar 
    16    8   11 ar 
    17   25    8 1  
    18   25    9 1  
    19   10   26 ar 
    20   11   30 ar 
    21   26   12 ar 
    22   12   27 ar 
    23   30   12 ar 
    24   27   13 ar 
    25   13   28 ar 
    26   14   15 1  
    27   16   17 1  
    28   18   20 ar 
    29   20   19 ar 
    30   20   21 1  
    31   24   25 1  
    32   28   29 ar 
    33   29   30 ar 
    34    1   31 1  
    35    2   32 1  
    36    3   33 1  
    37    6   34 1  
    38    6   35 1  
    39    6   36 1  
    40    9   37 1  
    41    9   38 1  
    42    9   39 1  
    43   10   40 1  
    44   11   41 1  
    45   13   42 1  
    46   14   43 1  
    47   15   44 1  
    48   15   45 1  
    49   15   46 1  
    50   19   47 1  
    51   24   48 1  
    52   25   49 1  
    53   26   50 1  
    54   27   51 1  
    55   28   52 1  
    56   29   53 1  
@<TRIPOS>SUBSTRUCTURE
     1 9O1         1

