### 
### Created by X-TOOL on Wed Jan  1 15:39:35 2020
### 

@<TRIPOS>MOLECULE
5qa4_ligand
   27    28     1     0     0
SMALL
GAST_HUCK


@<TRIPOS>ATOM
      1 C          96.7410  254.5670    7.1940 C.2       1 TI7         0.0627
      2 O          96.4500  255.4380    8.0510 O.co2     1 TI7        -0.5606
      3 C1         96.2970  253.1480    7.4490 C.ar      1 TI7         0.0096
      4 C10        94.5680  248.9930    5.1550 C.3       1 TI7        -0.0297
      5 C11        95.4850  250.5280    7.8900 C.ar      1 TI7        -0.0533
      6 C12        95.0470  251.5410    8.7260 C.ar      1 TI7        -0.0589
      7 C13        95.4550  252.8450    8.5120 C.ar      1 TI7        -0.0487
      8 C2         96.7270  252.1260    6.6100 C.ar      1 TI7        -0.0416
      9 C3         96.3390  250.8070    6.8220 C.ar      1 TI7        -0.0179
     10 C4         96.8870  249.7160    5.9690 C.ar      1 TI7        -0.0149
     11 C5         98.2730  249.5500    5.9450 C.ar      1 TI7        -0.0601
     12 C6         98.8470  248.5210    5.2220 C.ar      1 TI7        -0.0678
     13 C7         98.0570  247.6550    4.5160 C.ar      1 TI7        -0.0682
     14 C8         96.6830  247.8130    4.5180 C.ar      1 TI7        -0.0593
     15 C9         96.0680  248.8400    5.2280 C.ar      1 TI7        -0.0367
     16 O1         97.3720  254.7900    6.1350 O.co2     1 TI7        -0.5606
     17 H1         94.1487  248.1972    4.5218 H         1 TI7         0.0397
     18 H2         94.3200  249.9739    4.7233 H         1 TI7         0.0397
     19 H3         94.1422  248.9193    6.1666 H         1 TI7         0.0397
     20 H4         95.1616  249.5086    8.0667 H         1 TI7         0.0634
     21 H5         94.3822  251.3113    9.5508 H         1 TI7         0.0622
     22 H6         95.1170  253.6329    9.1754 H         1 TI7         0.0642
     23 H7         97.3768  252.3615    5.7749 H         1 TI7         0.0648
     24 H8         98.9052  250.2347    6.4987 H         1 TI7         0.0605
     25 H9         99.9242  248.4000    5.2143 H         1 TI7         0.0561
     26 H10        98.5083  246.8447    3.9549 H         1 TI7         0.0602
     27 H11        96.0702  247.1201    3.9528 H         1 TI7         0.0557
@<TRIPOS>BOND
     1    1    2 ar 
     2    3    1 1  
     3    1   16 ar 
     4    3    7 ar 
     5    8    3 ar 
     6   15    4 1  
     7    5    6 ar 
     8    9    5 ar 
     9    6    7 ar 
    10    9    8 ar 
    11   10    9 1  
    12   10   11 ar 
    13   10   15 ar 
    14   11   12 ar 
    15   12   13 ar 
    16   13   14 ar 
    17   14   15 ar 
    18    4   17 1  
    19    4   18 1  
    20    4   19 1  
    21    5   20 1  
    22    6   21 1  
    23    7   22 1  
    24    8   23 1  
    25   11   24 1  
    26   12   25 1  
    27   13   26 1  
    28   14   27 1  
@<TRIPOS>SUBSTRUCTURE
     1 TI7         1

