### 
### Created by X-TOOL on Wed Jan  1 15:39:35 2020
### 

@<TRIPOS>MOLECULE
5qa5_ligand
   27    28     1     0     0
SMALL
GAST_HUCK


@<TRIPOS>ATOM
      1 C          97.0790  255.0560    7.0790 C.2       1 L5D         0.0630
      2 O          96.7740  256.0340    7.8140 O.co2     1 L5D        -0.5606
      3 C1         96.5600  253.6940    7.4680 C.ar      1 L5D         0.0108
      4 C10        97.7610  249.7240    5.8000 C.ar      1 L5D        -0.0531
      5 C11        95.5030  251.2150    8.1270 C.ar      1 L5D        -0.0516
      6 C12        95.3220  252.2950    8.9740 C.ar      1 L5D        -0.0577
      7 C13        95.8460  253.5300    8.6460 C.ar      1 L5D        -0.0476
      8 C2         96.7560  252.5990    6.6280 C.ar      1 L5D        -0.0399
      9 C3         96.2340  251.3450    6.9440 C.ar      1 L5D        -0.0160
     10 C4         96.4640  250.1760    6.0560 C.ar      1 L5D        -0.0241
     11 C5         95.3970  249.4570    5.5250 C.ar      1 L5D        -0.0608
     12 C6         95.6200  248.3120    4.7840 C.ar      1 L5D        -0.0678
     13 C7         96.9110  247.8700    4.5620 C.ar      1 L5D        -0.0604
     14 C8         97.9970  248.5680    5.0620 C.ar      1 L5D        -0.0457
     15 C9         99.4050  248.0860    4.8110 C.3       1 L5D        -0.0312
     16 O1         97.7590  255.1320    6.0350 O.co2     1 L5D        -0.5606
     17 H1         98.6034  250.2871    6.1853 H         1 L5D         0.0560
     18 H2         95.0713  250.2549    8.3856 H         1 L5D         0.0644
     19 H3         94.7675  252.1710    9.8971 H         1 L5D         0.0624
     20 H4         95.6990  254.3735    9.3109 H         1 L5D         0.0651
     21 H5         97.3240  252.7244    5.7133 H         1 L5D         0.0658
     22 H6         94.3821  249.7982    5.6942 H         1 L5D         0.0567
     23 H7         94.7813  247.7595    4.3762 H         1 L5D         0.0600
     24 H8         97.0751  246.9647    3.9887 H         1 L5D         0.0558
     25 H9        100.1185  248.7739    5.2882 H         1 L5D         0.0390
     26 H10        99.5943  248.0547    3.7279 H         1 L5D         0.0390
     27 H11        99.5285  247.0782    5.2341 H         1 L5D         0.0390
@<TRIPOS>BOND
     1    1    2 ar 
     2    3    1 1  
     3    1   16 ar 
     4    3    7 ar 
     5    8    3 ar 
     6   10    4 ar 
     7    4   14 ar 
     8    5    6 ar 
     9    9    5 ar 
    10    6    7 ar 
    11    9    8 ar 
    12    9   10 1  
    13   10   11 ar 
    14   11   12 ar 
    15   12   13 ar 
    16   13   14 ar 
    17   14   15 1  
    18    4   17 1  
    19    5   18 1  
    20    6   19 1  
    21    7   20 1  
    22    8   21 1  
    23   11   22 1  
    24   12   23 1  
    25   13   24 1  
    26   15   25 1  
    27   15   26 1  
    28   15   27 1  
@<TRIPOS>SUBSTRUCTURE
     1 L5D         1

