### 
### Created by X-TOOL on Wed Jan  1 15:39:35 2020
### 

@<TRIPOS>MOLECULE
5qa6_ligand
   25    26     1     0     0
SMALL
GAST_HUCK


@<TRIPOS>ATOM
      1 C          97.0710  254.6520    7.0230 C.2       1 AUV         0.0626
      2 O          96.9750  255.0630    5.8450 O.co2     1 AUV        -0.5606
      3 C1         96.5100  253.2860    7.3310 C.ar      1 AUV         0.0089
      4 O1         94.5150  248.9960    5.7210 O.3       1 AUV        -0.3304
      5 C2         96.8510  252.2010    6.5340 C.ar      1 AUV        -0.0427
      6 O2         97.6040  255.2910    7.9590 O.co2     1 AUV        -0.5606
      7 C3         96.3540  250.9280    6.7950 C.ar      1 AUV        -0.0180
      8 C4         96.7590  249.7760    5.9430 C.ar      1 AUV         0.0131
      9 C10        95.4950  250.7590    7.8800 C.ar      1 AUV        -0.0544
     10 C11        95.1500  251.8340    8.6810 C.ar      1 AUV        -0.0596
     11 C12        95.6540  253.0940    8.4080 C.ar      1 AUV        -0.0493
     12 C5         98.1070  249.6020    5.6300 C.ar      1 AUV        -0.0616
     13 C6         98.5260  248.5260    4.8660 C.ar      1 AUV        -0.0718
     14 C7         97.6140  247.6120    4.4000 C.ar      1 AUV        -0.0701
     15 C8         96.2700  247.7630    4.6890 C.ar      1 AUV        -0.0315
     16 C9         95.8400  248.8410    5.4530 C.ar      1 AUV         0.0982
     17 H1         94.0271  248.2853    5.3219 H         1 AUV         0.2497
     18 H2         97.5175  252.3489    5.6920 H         1 AUV         0.0641
     19 H3         95.0933  249.7762    8.0985 H         1 AUV         0.0627
     20 H4         94.4838  251.6888    9.5237 H         1 AUV         0.0620
     21 H5         95.3798  253.9335    9.0366 H         1 AUV         0.0636
     22 H6         98.8364  250.3188    5.9897 H         1 AUV         0.0595
     23 H7         99.5782  248.4049    4.6350 H         1 AUV         0.0527
     24 H8         97.9479  246.7702    3.8043 H         1 AUV         0.0592
     25 H9         95.5518  247.0401    4.3194 H         1 AUV         0.0542
@<TRIPOS>BOND
     1    1    2 ar 
     2    3    1 1  
     3    1    6 ar 
     4    5    3 ar 
     5    3   11 ar 
     6   16    4 1  
     7    7    5 ar 
     8    8    7 1  
     9    7    9 ar 
    10    8   12 ar 
    11    8   16 ar 
    12    9   10 ar 
    13   10   11 ar 
    14   12   13 ar 
    15   13   14 ar 
    16   14   15 ar 
    17   15   16 ar 
    18    4   17 1  
    19    5   18 1  
    20    9   19 1  
    21   10   20 1  
    22   11   21 1  
    23   12   22 1  
    24   13   23 1  
    25   14   24 1  
    26   15   25 1  
@<TRIPOS>SUBSTRUCTURE
     1 AUV         1

