### 
### Created by X-TOOL on Wed Jan  1 15:39:35 2020
### 

@<TRIPOS>MOLECULE
5qa7_ligand
   25    26     1     0     0
SMALL
GAST_HUCK


@<TRIPOS>ATOM
      1 C          96.7480  253.7200    6.9400 C.2       1 IQQ         0.0630
      2 O          97.4760  253.8400    5.9300 O.co2     1 IQQ        -0.5606
      3 C1         96.2530  252.3360    7.2790 C.ar      1 IQQ         0.0109
      4 C10        95.2960  249.7920    7.8440 C.ar      1 IQQ        -0.0517
      5 C11        94.9760  250.8540    8.6710 C.ar      1 IQQ        -0.0577
      6 C12        95.4520  252.1220    8.3910 C.ar      1 IQQ        -0.0476
      7 C2         96.5760  251.2600    6.4590 C.ar      1 IQQ        -0.0399
      8 C3         96.1070  249.9760    6.7270 C.ar      1 IQQ        -0.0170
      9 C4         96.4830  248.8360    5.8540 C.ar      1 IQQ        -0.0262
     10 C5         97.8270  248.5370    5.6290 C.ar      1 IQQ        -0.0261
     11 C6         98.1750  247.4450    4.8460 C.ar      1 IQQ         0.0879
     12 C7         97.1950  246.6490    4.2720 C.ar      1 IQQ        -0.0332
     13 C8         95.8640  246.9470    4.4870 C.ar      1 IQQ        -0.0697
     14 C9         95.5100  248.0300    5.2680 C.ar      1 IQQ        -0.0650
     15 O1         99.4930  247.1540    4.6510 O.3       1 IQQ        -0.3332
     16 O2         96.4020  254.6670    7.6900 O.co2     1 IQQ        -0.5606
     17 H1         94.9105  248.8040    8.0684 H         1 IQQ         0.0644
     18 H2         94.3502  250.6917    9.5411 H         1 IQQ         0.0624
     19 H3         95.1985  252.9507    9.0422 H         1 IQQ         0.0651
     20 H4         97.2064  251.4241    5.5926 H         1 IQQ         0.0659
     21 H5         98.6004  249.1582    6.0662 H         1 IQQ         0.0543
     22 H6         97.4720  245.7990    3.6590 H         1 IQQ         0.0545
     23 H7         95.0936  246.3284    4.0410 H         1 IQQ         0.0590
     24 H8         94.4616  248.2554    5.4268 H         1 IQQ         0.0531
     25 H9        100.0280  247.7918    5.1087 H         1 IQQ         0.2480
@<TRIPOS>BOND
     1    1    2 ar 
     2    3    1 1  
     3    1   16 ar 
     4    6    3 ar 
     5    3    7 ar 
     6    5    4 ar 
     7    4    8 ar 
     8    5    6 ar 
     9    7    8 ar 
    10    8    9 1  
    11    9   10 ar 
    12    9   14 ar 
    13   10   11 ar 
    14   11   12 ar 
    15   11   15 1  
    16   12   13 ar 
    17   13   14 ar 
    18    4   17 1  
    19    5   18 1  
    20    6   19 1  
    21    7   20 1  
    22   10   21 1  
    23   12   22 1  
    24   13   23 1  
    25   14   24 1  
    26   15   25 1  
@<TRIPOS>SUBSTRUCTURE
     1 IQQ         1

