### 
### Created by X-TOOL on Wed Jan  1 15:39:37 2020
### 

@<TRIPOS>MOLECULE
5qa8_ligand
   25    26     1     0     0
SMALL
GAST_HUCK


@<TRIPOS>ATOM
      1 C          28.1910  -14.2530  -23.7410 C.ar      1 JSX         0.0894
      2 O          28.9440  -14.8150  -24.7320 O.3       1 JSX        -0.3319
      3 C1         27.9150  -12.8950  -23.7630 C.ar      1 JSX        -0.0314
      4 C10        25.3800  -11.6880  -18.4510 C.ar      1 JSX         0.0091
      5 C11        25.9330  -11.3880  -17.0800 C.2       1 JSX         0.0626
      6 C12        26.2030  -12.2330  -19.4320 C.ar      1 JSX        -0.0424
      7 C2         27.1290  -12.3350  -22.7720 C.ar      1 JSX        -0.0616
      8 C3         27.6850  -15.0400  -22.7180 C.ar      1 JSX        -0.0314
      9 C4         26.9000  -14.4700  -21.7330 C.ar      1 JSX        -0.0616
     10 C5         26.5990  -13.1100  -21.7420 C.ar      1 JSX        -0.0273
     11 C6         25.7150  -12.5130  -20.7090 C.ar      1 JSX        -0.0211
     12 C7         24.3770  -12.2300  -20.9840 C.ar      1 JSX        -0.0542
     13 C8         23.5530  -11.6890  -20.0130 C.ar      1 JSX        -0.0594
     14 C9         24.0500  -11.4190  -18.7520 C.ar      1 JSX        -0.0491
     15 O1         27.1310  -11.0180  -17.0020 O.co2     1 JSX        -0.5606
     16 O2         25.1640  -11.5240  -16.0970 O.co2     1 JSX        -0.5606
     17 H1         29.0378  -15.7460  -24.5676 H         1 JSX         0.2490
     18 H2         28.3145  -12.2726  -24.5556 H         1 JSX         0.0548
     19 H3         27.2408  -12.4436  -19.2002 H         1 JSX         0.0643
     20 H4         26.9210  -11.2714  -22.7970 H         1 JSX         0.0600
     21 H5         27.9046  -16.1012  -22.6904 H         1 JSX         0.0548
     22 H6         26.5106  -15.0945  -20.9371 H         1 JSX         0.0600
     23 H7         23.9779  -12.4365  -21.9705 H         1 JSX         0.0629
     24 H8         22.5150  -11.4764  -20.2419 H         1 JSX         0.0620
     25 H9         23.4000  -10.9958  -17.9947 H         1 JSX         0.0638
@<TRIPOS>BOND
     1    1    2 1  
     2    3    1 ar 
     3    8    1 ar 
     4    7    3 ar 
     5    4    5 1  
     6    6    4 ar 
     7    4   14 ar 
     8    5   15 ar 
     9    5   16 ar 
    10   11    6 ar 
    11   10    7 ar 
    12    9    8 ar 
    13   10    9 ar 
    14   10   11 1  
    15   11   12 ar 
    16   12   13 ar 
    17   13   14 ar 
    18    2   17 1  
    19    3   18 1  
    20    6   19 1  
    21    7   20 1  
    22    8   21 1  
    23    9   22 1  
    24   12   23 1  
    25   13   24 1  
    26   14   25 1  
@<TRIPOS>SUBSTRUCTURE
     1 JSX         1

