### 
### Created by X-TOOL on Wed Jan  1 15:39:36 2020
### 

@<TRIPOS>MOLECULE
5qa9_ligand
   28    29     1     0     0
SMALL
GAST_HUCK


@<TRIPOS>ATOM
      1 C          96.4050  253.2150    5.9170 C.2       1 QKU         0.0630
      2 O          95.7220  253.6700    4.9690 O.co2     1 QKU        -0.5606
      3 C1         95.9540  251.9240    6.5530 C.ar      1 QKU         0.0108
      4 C10        94.7280  246.1980    4.8300 C.ar      1 QKU        -0.0173
      5 C11        93.5190  245.3120    4.6860 C.3       1 QKU         0.0781
      6 C12        94.6220  247.4400    5.4450 C.ar      1 QKU        -0.0507
      7 C13        96.0090  250.7340    5.8330 C.ar      1 QKU        -0.0399
      8 C2         95.4910  251.9080    7.8630 C.ar      1 QKU        -0.0476
      9 C3         95.0890  250.7210    8.4430 C.ar      1 QKU        -0.0577
     10 C4         95.1490  249.5410    7.7240 C.ar      1 QKU        -0.0516
     11 C5         95.6160  249.5260    6.4100 C.ar      1 QKU        -0.0160
     12 C6         95.7370  248.2510    5.6580 C.ar      1 QKU        -0.0240
     13 C7         96.9740  247.8010    5.2050 C.ar      1 QKU        -0.0608
     14 C8         97.0890  246.5740    4.5770 C.ar      1 QKU        -0.0677
     15 C9         95.9730  245.7780    4.3950 C.ar      1 QKU        -0.0580
     16 O1         93.2890  244.5200    5.8420 O.3       1 QKU        -0.3825
     17 O2         97.4400  253.7570    6.3740 O.co2     1 QKU        -0.5606
     18 H1         93.6703  244.6447    3.8247 H         1 QKU         0.0721
     19 H2         92.6364  245.9443    4.5094 H         1 QKU         0.0721
     20 H3         93.6473  247.7876    5.7676 H         1 QKU         0.0561
     21 H4         96.3626  250.7460    4.8083 H         1 QKU         0.0658
     22 H5         95.4452  252.8299    8.4313 H         1 QKU         0.0651
     23 H6         94.7255  250.7140    9.4642 H         1 QKU         0.0624
     24 H7         94.8287  248.6152    8.1881 H         1 QKU         0.0644
     25 H8         97.8545  248.4174    5.3456 H         1 QKU         0.0567
     26 H9         98.0572  246.2353    4.2263 H         1 QKU         0.0600
     27 H10        96.0743  244.8155    3.9068 H         1 QKU         0.0559
     28 H11        92.5197  243.9795    5.7062 H         1 QKU         0.2126
@<TRIPOS>BOND
     1    1    2 ar 
     2    3    1 1  
     3    1   17 ar 
     4    7    3 ar 
     5    3    8 ar 
     6    4    5 1  
     7    6    4 ar 
     8    4   15 ar 
     9    5   16 1  
    10   12    6 ar 
    11   11    7 ar 
    12    9    8 ar 
    13   10    9 ar 
    14   11   10 ar 
    15   11   12 1  
    16   12   13 ar 
    17   13   14 ar 
    18   14   15 ar 
    19    5   18 1  
    20    5   19 1  
    21    6   20 1  
    22    7   21 1  
    23    8   22 1  
    24    9   23 1  
    25   10   24 1  
    26   13   25 1  
    27   14   26 1  
    28   15   27 1  
    29   16   28 1  
@<TRIPOS>SUBSTRUCTURE
     1 QKU         1

