### 
### Created by X-TOOL on Wed Jan  1 15:39:35 2020
### 

@<TRIPOS>MOLECULE
5qaa_ligand
   28    29     1     0     0
SMALL
GAST_HUCK


@<TRIPOS>ATOM
      1 C          97.7580  254.5490    6.2990 C.2       1 EAJ         0.0626
      2 O          98.8100  255.1260    6.6570 O.co2     1 EAJ        -0.5606
      3 C1         97.4720  253.1960    6.8940 C.ar      1 EAJ         0.0089
      4 C10        94.7690  249.2920    4.0690 C.3       1 EAJ         0.0603
      5 C11        96.9460  250.6880    7.9590 C.ar      1 EAJ        -0.0544
      6 C12        96.5510  251.8260    8.6400 C.ar      1 EAJ        -0.0596
      7 C13        96.8070  253.0760    8.1090 C.ar      1 EAJ        -0.0493
      8 C2         97.8700  252.0480    6.2180 C.ar      1 EAJ        -0.0427
      9 C3         97.5970  250.7830    6.7290 C.ar      1 EAJ        -0.0180
     10 C4         97.8820  249.5760    5.9060 C.ar      1 EAJ         0.0133
     11 C5         99.1680  249.0360    5.8770 C.ar      1 EAJ        -0.0616
     12 C6         99.4660  247.9690    5.0460 C.ar      1 EAJ        -0.0718
     13 C7         98.4890  247.4140    4.2520 C.ar      1 EAJ        -0.0700
     14 C8         97.2050  247.9270    4.2660 C.ar      1 EAJ        -0.0312
     15 C9         96.9120  249.0070    5.0810 C.ar      1 EAJ         0.1014
     16 O1         95.6930  249.6240    5.1000 O.3       1 EAJ        -0.3185
     17 O2         96.9460  255.0010    5.4540 O.co2     1 EAJ        -0.5606
     18 H1         93.8390  249.8616    4.2128 H         1 EAJ         0.0580
     19 H2         94.5488  248.2149    4.1068 H         1 EAJ         0.0580
     20 H3         95.2052  249.5430    3.0909 H         1 EAJ         0.0580
     21 H4         96.7473  249.7117    8.3862 H         1 EAJ         0.0627
     22 H5         96.0398  251.7369    9.5917 H         1 EAJ         0.0620
     23 H6         96.4885  253.9651    8.6412 H         1 EAJ         0.0636
     24 H7         98.4015  252.1400    5.2777 H         1 EAJ         0.0641
     25 H8         99.9410  249.4554    6.5107 H         1 EAJ         0.0595
     26 H9        100.4733  247.5694    5.0210 H         1 EAJ         0.0527
     27 H10        98.7268  246.5713    3.6130 H         1 EAJ         0.0592
     28 H11        96.4340  247.4870    3.6438 H         1 EAJ         0.0543
@<TRIPOS>BOND
     1    1    2 ar 
     2    3    1 1  
     3    1   17 ar 
     4    3    7 ar 
     5    8    3 ar 
     6   16    4 1  
     7    5    6 ar 
     8    9    5 ar 
     9    6    7 ar 
    10    9    8 ar 
    11   10    9 1  
    12   10   11 ar 
    13   15   10 ar 
    14   11   12 ar 
    15   13   12 ar 
    16   14   13 ar 
    17   15   14 ar 
    18   15   16 1  
    19    4   18 1  
    20    4   19 1  
    21    4   20 1  
    22    5   21 1  
    23    6   22 1  
    24    7   23 1  
    25    8   24 1  
    26   11   25 1  
    27   12   26 1  
    28   13   27 1  
    29   14   28 1  
@<TRIPOS>SUBSTRUCTURE
     1 EAJ         1

