### 
### Created by X-TOOL on Wed Jan  1 15:39:36 2020
### 

@<TRIPOS>MOLECULE
5qab_ligand
   28    29     1     0     0
SMALL
GAST_HUCK


@<TRIPOS>ATOM
      1 C          96.3970  250.8260    6.2610 C.2       1 XEV         0.0630
      2 O          97.3820  251.3440    6.8410 O.co2     1 XEV        -0.5606
      3 C1         95.8560  249.5310    6.8150 C.ar      1 XEV         0.0109
      4 C10        93.3790  241.9220    4.0770 C.3       1 XEV         0.0593
      5 C11        95.5920  243.6000    4.1650 C.ar      1 XEV        -0.0329
      6 C12        96.6920  244.4340    4.2610 C.ar      1 XEV        -0.0697
      7 C13        96.6360  245.5830    5.0290 C.ar      1 XEV        -0.0650
      8 C2         95.9220  248.3660    6.0550 C.ar      1 XEV        -0.0399
      9 C3         95.4100  247.1610    6.5400 C.ar      1 XEV        -0.0170
     10 C4         94.8340  247.1480    7.8100 C.ar      1 XEV        -0.0517
     11 C5         94.7710  248.3020    8.5700 C.ar      1 XEV        -0.0577
     12 C6         95.2790  249.4890    8.0770 C.ar      1 XEV        -0.0476
     13 C7         95.4740  245.9270    5.7170 C.ar      1 XEV        -0.0262
     14 C8         94.3670  245.0840    5.6170 C.ar      1 XEV        -0.0259
     15 C9         94.4360  243.9310    4.8500 C.ar      1 XEV         0.0911
     16 O1         95.8300  251.3100    5.2540 O.co2     1 XEV        -0.5606
     17 O2         93.3220  243.1330    4.8290 O.3       1 XEV        -0.3214
     18 H1         92.4166  241.3953    4.1567 H         1 XEV         0.0577
     19 H2         94.1812  241.2819    4.4729 H         1 XEV         0.0577
     20 H3         93.5831  242.1550    3.0215 H         1 XEV         0.0577
     21 H4         95.6352  242.7003    3.5619 H         1 XEV         0.0545
     22 H5         97.6040  244.1851    3.7306 H         1 XEV         0.0590
     23 H6         97.5074  246.2243    5.0966 H         1 XEV         0.0531
     24 H7         96.3778  248.3951    5.0719 H         1 XEV         0.0659
     25 H8         94.4310  246.2229    8.2061 H         1 XEV         0.0644
     26 H9         94.3215  248.2753    9.5560 H         1 XEV         0.0624
     27 H10        95.2268  250.3899    8.6775 H         1 XEV         0.0651
     28 H11        93.4504  245.3310    6.1403 H         1 XEV         0.0543
@<TRIPOS>BOND
     1    1    2 ar 
     2    3    1 1  
     3    1   16 ar 
     4    8    3 ar 
     5    3   12 ar 
     6   17    4 1  
     7    5    6 ar 
     8   15    5 ar 
     9    6    7 ar 
    10   13    7 ar 
    11    9    8 ar 
    12    9   10 ar 
    13   13    9 1  
    14   10   11 ar 
    15   11   12 ar 
    16   14   13 ar 
    17   15   14 ar 
    18   15   17 1  
    19    4   18 1  
    20    4   19 1  
    21    4   20 1  
    22    5   21 1  
    23    6   22 1  
    24    7   23 1  
    25    8   24 1  
    26   10   25 1  
    27   11   26 1  
    28   12   27 1  
    29   14   28 1  
@<TRIPOS>SUBSTRUCTURE
     1 XEV         1

