### 
### Created by X-TOOL on Wed Jan  1 15:39:35 2020
### 

@<TRIPOS>MOLECULE
5qac_ligand
   28    29     1     0     0
SMALL
GAST_HUCK


@<TRIPOS>ATOM
      1 C         -12.3160  -18.0590   25.6420 C.2       1 U4J         0.0626
      2 O         -11.9080  -17.5330   26.7050 O.co2     1 U4J        -0.5606
      3 C1        -12.0590  -19.5330   25.4430 C.ar      1 U4J         0.0091
      4 C10       -12.3910  -23.9050   27.5540 C.ar      1 U4J        -0.0616
      5 C11       -11.5520  -22.2470   25.1340 C.ar      1 U4J        -0.0542
      6 C12       -10.9610  -21.3280   24.2840 C.ar      1 U4J        -0.0594
      7 C13       -11.2150  -19.9770   24.4340 C.ar      1 U4J        -0.0491
      8 C2        -12.6530  -20.4640   26.2870 C.ar      1 U4J        -0.0424
      9 C3        -12.4140  -21.8290   26.1470 C.ar      1 U4J        -0.0211
     10 C4        -13.0790  -22.8060   27.0450 C.ar      1 U4J        -0.0273
     11 C5        -14.4100  -22.6450   27.4200 C.ar      1 U4J        -0.0616
     12 C6        -15.0310  -23.5360   28.2740 C.ar      1 U4J        -0.0312
     13 C7        -14.3240  -24.6160   28.7740 C.ar      1 U4J         0.0925
     14 C8        -16.1960  -25.2910   30.1220 C.3       1 U4J         0.0599
     15 C9        -13.0010  -24.8040   28.4080 C.ar      1 U4J        -0.0312
     16 O1        -14.8610  -25.5060   29.6680 O.3       1 U4J        -0.3200
     17 O2        -12.9180  -17.4440   24.7310 O.co2     1 U4J        -0.5606
     18 H1        -11.3550  -24.0583   27.2742 H         1 U4J         0.0600
     19 H2        -11.3423  -23.3033   25.0106 H         1 U4J         0.0629
     20 H3        -10.2967  -21.6686   23.4980 H         1 U4J         0.0620
     21 H4        -10.7538  -19.2625   23.7618 H         1 U4J         0.0638
     22 H5        -13.3171  -20.1201   27.0717 H         1 U4J         0.0643
     23 H6        -14.9714  -21.8021   27.0335 H         1 U4J         0.0600
     24 H7        -16.0686  -23.3898   28.5516 H         1 U4J         0.0548
     25 H8        -16.4753  -26.0861   30.8290 H         1 U4J         0.0579
     26 H9        -16.8825  -25.3067   29.2627 H         1 U4J         0.0579
     27 H10       -16.2597  -24.3146   30.6245 H         1 U4J         0.0579
     28 H11       -12.4464  -25.6533   28.7902 H         1 U4J         0.0548
@<TRIPOS>BOND
     1    1    2 ar 
     2    3    1 1  
     3    1   17 ar 
     4    3    7 ar 
     5    8    3 ar 
     6   10    4 ar 
     7    4   15 ar 
     8    5    6 ar 
     9    9    5 ar 
    10    6    7 ar 
    11    9    8 ar 
    12    9   10 1  
    13   10   11 ar 
    14   11   12 ar 
    15   12   13 ar 
    16   13   15 ar 
    17   13   16 1  
    18   16   14 1  
    19    4   18 1  
    20    5   19 1  
    21    6   20 1  
    22    7   21 1  
    23    8   22 1  
    24   11   23 1  
    25   12   24 1  
    26   14   25 1  
    27   14   26 1  
    28   14   27 1  
    29   15   28 1  
@<TRIPOS>SUBSTRUCTURE
     1 U4J         1

