### 
### Created by X-TOOL on Wed Jan  1 15:39:35 2020
### 

@<TRIPOS>MOLECULE
5qad_ligand
   24    25     1     0     0
SMALL
GAST_HUCK


@<TRIPOS>ATOM
      1 C          96.7720  254.4980    7.2590 C.2       1 WVV         0.0628
      2 O          97.5500  254.7120    6.2990 O.co2     1 WVV        -0.5606
      3 C1         96.2820  253.0860    7.4560 C.ar      1 WVV         0.0101
      4 C10        95.3840  250.4770    7.7920 C.ar      1 WVV        -0.0526
      5 C11        94.9140  251.4850    8.6160 C.ar      1 WVV        -0.0584
      6 C12        95.3620  252.7840    8.4530 C.ar      1 WVV        -0.0482
      7 C2         96.7480  252.0660    6.6340 C.ar      1 WVV        -0.0408
      8 C3         96.3160  250.7520    6.7940 C.ar      1 WVV        -0.0143
      9 C4         96.8870  249.6620    5.9540 C.ar      1 WVV         0.0170
     10 C5         96.1070  248.6910    5.3400 C.ar      1 WVV         0.1414
     11 C6         96.6350  247.6470    4.6210 C.ar      1 WVV        -0.0271
     12 C7         98.0090  247.5620    4.4930 C.ar      1 WVV        -0.0634
     13 C8         98.8200  248.5100    5.0710 C.ar      1 WVV        -0.0651
     14 C9         98.2690  249.5520    5.7930 C.ar      1 WVV        -0.0554
     15 F          94.7610  248.7750    5.4450 F         1 WVV        -0.1815
     16 O1         96.3750  255.3750    8.0630 O.co2     1 WVV        -0.5606
     17 H1         95.0232  249.4635    7.9247 H         1 WVV         0.0638
     18 H2         94.1924  251.2559    9.3918 H         1 WVV         0.0623
     19 H3         94.9944  253.5683    9.1048 H         1 WVV         0.0645
     20 H4         97.4623  252.2985    5.8525 H         1 WVV         0.0652
     21 H5         95.9890  246.9061    4.1640 H         1 WVV         0.0604
     22 H6         98.4491  246.7440    3.9342 H         1 WVV         0.0608
     23 H7         99.8960  248.4399    4.9600 H         1 WVV         0.0584
     24 H8         98.9197  250.2945    6.2406 H         1 WVV         0.0613
@<TRIPOS>BOND
     1    1    2 ar 
     2    3    1 1  
     3    1   16 ar 
     4    6    3 ar 
     5    3    7 ar 
     6    5    4 ar 
     7    4    8 ar 
     8    5    6 ar 
     9    7    8 ar 
    10    8    9 1  
    11    9   10 ar 
    12    9   14 ar 
    13   10   11 ar 
    14   10   15 1  
    15   11   12 ar 
    16   12   13 ar 
    17   13   14 ar 
    18    4   17 1  
    19    5   18 1  
    20    6   19 1  
    21    7   20 1  
    22   11   21 1  
    23   12   22 1  
    24   13   23 1  
    25   14   24 1  
@<TRIPOS>SUBSTRUCTURE
     1 WVV         1

