### 
### Created by X-TOOL on Wed Jan  1 15:39:36 2020
### 

@<TRIPOS>MOLECULE
5qae_ligand
   24    25     1     0     0
SMALL
GAST_HUCK


@<TRIPOS>ATOM
      1 C          97.9360  255.6970    7.0880 C.2       1 Q4G         0.0630
      2 O          98.6070  255.8800    6.0430 O.co2     1 Q4G        -0.5606
      3 C1         97.5190  254.2840    7.4140 C.ar      1 Q4G         0.0108
      4 C10        96.7760  251.6720    8.0060 C.ar      1 Q4G        -0.0516
      5 C11        96.3670  252.7130    8.8220 C.ar      1 Q4G        -0.0577
      6 C12        96.7370  254.0140    8.5300 C.ar      1 Q4G        -0.0476
      7 C2         97.9240  253.2320    6.6000 C.ar      1 Q4G        -0.0398
      8 C3         97.5660  251.9150    6.8830 C.ar      1 Q4G        -0.0153
      9 C4         98.0460  250.8020    6.0280 C.ar      1 Q4G        -0.0192
     10 C5         99.4060  250.5970    5.8100 C.ar      1 Q4G        -0.0580
     11 C6         99.8490  249.5320    5.0450 C.ar      1 Q4G        -0.0630
     12 C7         98.9470  248.6500    4.4780 C.ar      1 Q4G        -0.0281
     13 C8         97.6190  248.8720    4.6950 C.ar      1 Q4G         0.1329
     14 C9         97.1450  249.9150    5.4460 C.ar      1 Q4G        -0.0206
     15 F          96.7180  248.0240    4.1320 F         1 Q4G        -0.1835
     16 O1         97.5900  256.6070    7.8810 O.co2     1 Q4G        -0.5606
     17 H1         96.4788  250.6568    8.2428 H         1 Q4G         0.0644
     18 H2         95.7547  252.5082    9.6928 H         1 Q4G         0.0624
     19 H3         96.4158  254.8247    9.1739 H         1 Q4G         0.0651
     20 H4         98.5312  253.4406    5.7266 H         1 Q4G         0.0658
     21 H5        100.1267  251.2800    6.2449 H         1 Q4G         0.0590
     22 H6        100.9120  249.3879    4.8889 H         1 Q4G         0.0608
     23 H7         99.2843  247.8104    3.8811 H         1 Q4G         0.0605
     24 H8         96.0783  250.0483    5.5857 H         1 Q4G         0.0608
@<TRIPOS>BOND
     1    1    2 ar 
     2    3    1 1  
     3    1   16 ar 
     4    6    3 ar 
     5    3    7 ar 
     6    5    4 ar 
     7    4    8 ar 
     8    5    6 ar 
     9    7    8 ar 
    10    8    9 1  
    11    9   10 ar 
    12    9   14 ar 
    13   10   11 ar 
    14   11   12 ar 
    15   12   13 ar 
    16   13   14 ar 
    17   13   15 1  
    18    4   17 1  
    19    5   18 1  
    20    6   19 1  
    21    7   20 1  
    22   10   21 1  
    23   11   22 1  
    24   12   23 1  
    25   14   24 1  
@<TRIPOS>SUBSTRUCTURE
     1 Q4G         1

