### 
### Created by X-TOOL on Wed Jan  1 15:39:36 2020
### 

@<TRIPOS>MOLECULE
5qaf_ligand
   24    25     1     0     0
SMALL
GAST_HUCK


@<TRIPOS>ATOM
      1 C         -11.4930  -17.6640   26.4960 C.2       1 S1D         0.0628
      2 O         -10.8410  -17.6940   27.5700 O.co2     1 S1D        -0.5606
      3 C1        -11.7560  -18.9720   25.7960 C.ar      1 S1D         0.0102
      4 C10       -14.4380  -24.4230   27.9770 C.ar      1 S1D         0.1332
      5 C11       -15.2350  -23.4850   27.3830 C.ar      1 S1D        -0.0271
      6 C12       -14.6320  -22.4540   26.6890 C.ar      1 S1D        -0.0554
      7 C2        -12.3570  -20.0250   26.4760 C.ar      1 S1D        -0.0408
      8 C3        -12.6000  -21.2480   25.8520 C.ar      1 S1D        -0.0168
      9 C4        -12.2240  -21.3930   24.5150 C.ar      1 S1D        -0.0525
     10 C5        -11.6290  -20.3490   23.8300 C.ar      1 S1D        -0.0583
     11 C6        -11.3950  -19.1440   24.4640 C.ar      1 S1D        -0.0482
     12 C7        -13.2430  -22.3630   26.5910 C.ar      1 S1D        -0.0209
     13 C8        -12.4800  -23.3460   27.2160 C.ar      1 S1D        -0.0554
     14 C9        -13.0730  -24.3820   27.9140 C.ar      1 S1D        -0.0271
     15 F         -15.0270  -25.4410   28.6600 F         1 S1D        -0.1827
     16 O1        -11.9380  -16.6180   25.9630 O.co2     1 S1D        -0.5606
     17 H1        -16.3148  -23.5486   27.4548 H         1 S1D         0.0606
     18 H2        -15.2493  -21.7016   26.2116 H         1 S1D         0.0615
     19 H3        -12.6428  -19.8925   27.5132 H         1 S1D         0.0653
     20 H4        -12.4005  -22.3348   24.0080 H         1 S1D         0.0638
     21 H5        -11.3452  -20.4768   22.7916 H         1 S1D         0.0623
     22 H6        -10.9284  -18.3298   23.9214 H         1 S1D         0.0646
     23 H7        -11.3988  -23.2981   27.1541 H         1 S1D         0.0615
     24 H8        -12.4710  -25.1421   28.3987 H         1 S1D         0.0606
@<TRIPOS>BOND
     1    1    2 ar 
     2    3    1 1  
     3    1   16 ar 
     4    7    3 ar 
     5    3   11 ar 
     6    5    4 ar 
     7    4   14 ar 
     8    4   15 1  
     9    6    5 ar 
    10   12    6 ar 
    11    8    7 ar 
    12    8    9 ar 
    13    8   12 1  
    14    9   10 ar 
    15   10   11 ar 
    16   12   13 ar 
    17   13   14 ar 
    18    5   17 1  
    19    6   18 1  
    20    7   19 1  
    21    9   20 1  
    22   10   21 1  
    23   11   22 1  
    24   13   23 1  
    25   14   24 1  
@<TRIPOS>SUBSTRUCTURE
     1 S1D         1

