### 
### Created by X-TOOL on Wed Jan  1 15:39:37 2020
### 

@<TRIPOS>MOLECULE
5qag_ligand
   30    31     1     0     0
SMALL
GAST_HUCK


@<TRIPOS>ATOM
      1 C          96.5430  249.0840    4.3810 C.2       1 Q2R         0.2626
      2 O          95.8290  249.8580    4.9700 O.2       1 Q2R        -0.3576
      3 C1         94.8980  248.8380    2.7040 C.3       1 Q2R         0.0646
      4 C10        97.5490  253.0090    6.4300 C.ar      1 Q2R         0.0116
      5 C11        97.5900  254.3400    5.7220 C.2       1 Q2R         0.0631
      6 C12        97.0230  252.9040    7.7120 C.ar      1 Q2R        -0.0469
      7 C13        97.0200  251.6840    8.3650 C.ar      1 Q2R        -0.0569
      8 C14        97.5390  250.5600    7.7450 C.ar      1 Q2R        -0.0503
      9 C2         97.9130  248.6950    4.8180 C.ar      1 Q2R         0.0687
     10 C3         98.4940  247.5740    4.2250 C.ar      1 Q2R        -0.0405
     11 C4         99.7740  247.1870    4.5800 C.ar      1 Q2R        -0.0561
     12 C5        100.4790  247.9030    5.5190 C.ar      1 Q2R        -0.0569
     13 C6         99.9130  249.0140    6.1180 C.ar      1 Q2R        -0.0485
     14 C7         98.6240  249.4320    5.7830 C.ar      1 Q2R         0.0032
     15 C8         98.0680  250.6380    6.4580 C.ar      1 Q2R        -0.0104
     16 C9         98.0640  251.8740    5.8130 C.ar      1 Q2R        -0.0386
     17 O1         96.1920  248.4790    3.2470 O.3       1 Q2R        -0.2811
     18 O2         98.6460  255.0110    5.8120 O.co2     1 Q2R        -0.5606
     19 O3         96.5710  254.6980    5.0840 O.co2     1 Q2R        -0.5606
     20 H1         94.7223  248.2773    1.7741 H         1 Q2R         0.0575
     21 H2         94.8762  249.9170    2.4912 H         1 Q2R         0.0575
     22 H3         94.1129  248.5923    3.4342 H         1 Q2R         0.0575
     23 H4         96.6139  253.7802    8.2018 H         1 Q2R         0.0656
     24 H5         96.6099  251.6080    9.3655 H         1 Q2R         0.0626
     25 H6         97.5338  249.6095    8.2661 H         1 Q2R         0.0650
     26 H7         97.9420  247.0055    3.4853 H         1 Q2R         0.0672
     27 H8        100.2229  246.3161    4.1162 H         1 Q2R         0.0628
     28 H9        101.4823  247.5955    5.7908 H         1 Q2R         0.0653
     29 H10       100.4787  249.5681    6.8583 H         1 Q2R         0.0636
     30 H11        98.4702  251.9519    4.8110 H         1 Q2R         0.0665
@<TRIPOS>BOND
     1    1    2 2  
     2    9    1 1  
     3    1   17 1  
     4   17    3 1  
     5    4    5 1  
     6    6    4 ar 
     7    4   16 ar 
     8    5   18 ar 
     9    5   19 ar 
    10    7    6 ar 
    11    8    7 ar 
    12   15    8 ar 
    13    9   10 ar 
    14   14    9 ar 
    15   10   11 ar 
    16   12   11 ar 
    17   13   12 ar 
    18   14   13 ar 
    19   14   15 1  
    20   15   16 ar 
    21    3   20 1  
    22    3   21 1  
    23    3   22 1  
    24    6   23 1  
    25    7   24 1  
    26    8   25 1  
    27   10   26 1  
    28   11   27 1  
    29   12   28 1  
    30   13   29 1  
    31   16   30 1  
@<TRIPOS>SUBSTRUCTURE
     1 Q2R         1

