### 
### Created by X-TOOL on Wed Jan  1 15:39:35 2020
### 

@<TRIPOS>MOLECULE
5qah_ligand
   32    33     1     0     0
SMALL
GAST_HUCK


@<TRIPOS>ATOM
      1 C          95.8420  254.5260    5.1690 C.2       1 EFX         0.0614
      2 O          97.0400  254.7870    5.4480 O.co2     1 EFX        -0.5607
      3 C1         95.3820  253.0990    5.3340 C.ar      1 EFX         0.0041
      4 C10        97.6540  247.4690    4.8470 C.2       1 EFX        -0.0727
      5 C11        96.6510  248.4070    5.0210 C.2       1 EFX        -0.0596
      6 C12        94.5540  250.4570    5.5690 C.ar      1 EFX        -0.0546
      7 C13        93.6180  251.4690    5.4500 C.ar      1 EFX        -0.0643
      8 C14        94.0270  252.7840    5.3270 C.ar      1 EFX        -0.0541
      9 C2         96.3170  252.0770    5.4670 C.ar      1 EFX        -0.0430
     10 C3         95.9200  250.7430    5.5640 C.ar      1 EFX        -0.0210
     11 C4         96.9340  249.6580    5.5680 C.3       1 EFX         0.0325
     12 C5         98.2300  249.9030    6.0230 C.3       1 EFX         0.0090
     13 C6         99.2600  249.0020    5.7690 C.2       1 EFX         0.0355
     14 C7        100.6590  249.3510    6.1330 C.2       1 EFX         0.2517
     15 C8        102.0870  251.0080    7.0150 C.3       1 EFX         0.0639
     16 C9         98.9580  247.7720    5.1980 C.2       1 EFX        -0.0638
     17 O1         95.0080  255.3660    4.7530 O.co2     1 EFX        -0.5607
     18 O2        100.7500  250.5580    6.6900 O.3       1 EFX        -0.2838
     19 O3        101.6110  248.6350    5.9430 O.2       1 EFX        -0.3649
     20 H1         97.4164  246.4902    4.4329 H         1 EFX         0.0443
     21 H2         95.6304  248.1654    4.7277 H         1 EFX         0.0733
     22 H3         94.2223  249.4297    5.6673 H         1 EFX         0.0584
     23 H4         92.5607  251.2301    5.4532 H         1 EFX         0.0607
     24 H5         93.2896  253.5719    5.2248 H         1 EFX         0.0596
     25 H6         97.3726  252.3217    5.4958 H         1 EFX         0.0596
     26 H7         96.6104  249.3287    6.5664 H         1 EFX         0.0680
     27 H8         98.1642  250.0030    7.1165 H         1 EFX         0.0472
     28 H9         98.5392  250.8634    5.5849 H         1 EFX         0.0472
     29 H10       102.0371  252.0100    7.4661 H         1 EFX         0.0574
     30 H11       102.6933  251.0485    6.0981 H         1 EFX         0.0574
     31 H12       102.5465  250.3075    7.7278 H         1 EFX         0.0574
     32 H13        99.7496  247.0442    5.0261 H         1 EFX         0.0545
@<TRIPOS>BOND
     1    1    2 ar 
     2    3    1 1  
     3    1   17 ar 
     4    3    8 ar 
     5    9    3 ar 
     6    5    4 2  
     7    4   16 1  
     8   11    5 1  
     9    6    7 ar 
    10   10    6 ar 
    11    7    8 ar 
    12   10    9 ar 
    13   10   11 1  
    14   11   12 1  
    15   12   13 1  
    16   13   14 1  
    17   13   16 2  
    18   14   18 1  
    19   14   19 2  
    20   18   15 1  
    21    4   20 1  
    22    5   21 1  
    23    6   22 1  
    24    7   23 1  
    25    8   24 1  
    26    9   25 1  
    27   11   26 1  
    28   12   27 1  
    29   12   28 1  
    30   15   29 1  
    31   15   30 1  
    32   15   31 1  
    33   16   32 1  
@<TRIPOS>SUBSTRUCTURE
     1 EFX         1

