### 
### Created by X-TOOL on Wed Jan  1 15:39:35 2020
### 

@<TRIPOS>MOLECULE
5qai_ligand
   30    31     1     0     0
SMALL
GAST_HUCK


@<TRIPOS>ATOM
      1 C          97.1120  254.3860    6.8790 C.2       1 VM7         0.0630
      2 O          97.6420  254.4590    5.7470 O.co2     1 VM7        -0.5606
      3 C1         96.5800  253.0420    7.3090 C.ar      1 VM7         0.0108
      4 C10        97.7970  249.1180    5.6470 C.ar      1 VM7        -0.0539
      5 C11        95.6070  250.5590    8.0810 C.ar      1 VM7        -0.0515
      6 C12        95.4600  251.6520    8.9170 C.ar      1 VM7        -0.0577
      7 C13        95.9470  252.8880    8.5360 C.ar      1 VM7        -0.0476
      8 C2         96.7250  251.9370    6.4780 C.ar      1 VM7        -0.0398
      9 C3         96.2530  250.6800    6.8520 C.ar      1 VM7        -0.0143
     10 C4         96.5000  249.4920    5.9950 C.ar      1 VM7        -0.0154
     11 C5         95.4410  248.6750    5.5980 C.ar      1 VM7        -0.0291
     12 C6         95.6960  247.4970    4.9120 C.ar      1 VM7         0.0884
     13 C7         94.7690  245.7700    2.9400 C.3       1 VM7         0.0596
     14 C8         96.9880  247.1290    4.5760 C.ar      1 VM7        -0.0369
     15 C9         98.0360  247.9510    4.9460 C.ar      1 VM7        -0.0594
     16 O1         94.3310  245.3510    5.4640 O.2       1 VM7        -0.1696
     17 O2         93.1660  247.2230    4.3710 O.2       1 VM7        -0.1696
     18 O3         96.9770  255.3560    7.6690 O.co2     1 VM7        -0.5606
     19 S          94.3500  246.4240    4.5110 S.o2      1 VM7        -0.0059
     20 H1         98.6299  249.7514    5.9302 H         1 VM7         0.0624
     21 H2         95.2144  249.5958    8.3862 H         1 VM7         0.0644
     22 H3         94.9617  251.5384    9.8730 H         1 VM7         0.0624
     23 H4         95.8347  253.7400    9.1967 H         1 VM7         0.0651
     24 H5         97.2156  252.0555    5.5187 H         1 VM7         0.0658
     25 H6         94.4203  248.9606    5.8254 H         1 VM7         0.0642
     26 H7         93.9780  245.0823    2.6063 H         1 VM7         0.0468
     27 H8         95.7220  245.2254    3.0118 H         1 VM7         0.0468
     28 H9         94.8699  246.5917    2.2158 H         1 VM7         0.0468
     29 H10        97.1747  246.2106    4.0313 H         1 VM7         0.0636
     30 H11        99.0521  247.6785    4.6846 H         1 VM7         0.0618
@<TRIPOS>BOND
     1    1    2 ar 
     2    3    1 1  
     3    1   18 ar 
     4    3    7 ar 
     5    8    3 ar 
     6   10    4 ar 
     7    4   15 ar 
     8    5    6 ar 
     9    9    5 ar 
    10    6    7 ar 
    11    9    8 ar 
    12    9   10 1  
    13   10   11 ar 
    14   11   12 ar 
    15   12   14 ar 
    16   12   19 1  
    17   19   13 1  
    18   14   15 ar 
    19   19   16 2  
    20   19   17 2  
    21    4   20 1  
    22    5   21 1  
    23    6   22 1  
    24    7   23 1  
    25    8   24 1  
    26   11   25 1  
    27   13   26 1  
    28   13   27 1  
    29   13   28 1  
    30   14   29 1  
    31   15   30 1  
@<TRIPOS>SUBSTRUCTURE
     1 VM7         1

