### 
### Created by X-TOOL on Wed Jan  1 15:39:35 2020
### 

@<TRIPOS>MOLECULE
5qaj_ligand
   26    27     1     0     0
SMALL
GAST_HUCK


@<TRIPOS>ATOM
      1 N           9.3580  -25.6950    3.8110 N.pl3     1 VBC        -0.3358
      2 C           8.8510  -24.5850    4.4500 C.ar      1 VBC         0.0373
      3 O           5.8850  -17.1090    4.7790 O.co2     1 VBC        -0.5606
      4 C1          9.6970  -23.5820    4.9260 C.ar      1 VBC        -0.0425
      5 C10         6.7180  -21.1260    7.6540 C.ar      1 VBC        -0.0547
      6 C11         6.9700  -23.3030    5.2570 C.ar      1 VBC        -0.0644
      7 C12         7.4750  -24.4270    4.6300 C.ar      1 VBC        -0.0425
      8 C2          9.1830  -22.4620    5.5510 C.ar      1 VBC        -0.0644
      9 C3          7.8110  -22.2970    5.7260 C.ar      1 VBC        -0.0294
     10 C4          7.2630  -21.0790    6.3710 C.ar      1 VBC        -0.0225
     11 C5          7.2860  -19.8540    5.7020 C.ar      1 VBC        -0.0430
     12 C6          6.7780  -18.7030    6.2970 C.ar      1 VBC         0.0087
     13 C7          6.8330  -17.3880    5.5600 C.2       1 VBC         0.0625
     14 C8          6.2400  -18.7770    7.5760 C.ar      1 VBC        -0.0495
     15 C9          6.2120  -19.9840    8.2500 C.ar      1 VBC        -0.0598
     16 O1          7.8300  -16.6540    5.7650 O.co2     1 VBC        -0.5606
     17 H1         10.3752  -25.7974    3.6858 H         1 VBC         0.1729
     18 H2          8.7199  -26.4226    3.4584 H         1 VBC         0.1729
     19 H3         10.7694  -23.6829    4.8040 H         1 VBC         0.0522
     20 H4          6.6904  -22.0676    8.1904 H         1 VBC         0.0626
     21 H5          5.8984  -23.2029    5.3861 H         1 VBC         0.0595
     22 H6          6.7960  -25.1935    4.2744 H         1 VBC         0.0522
     23 H7          9.8607  -21.6969    5.9122 H         1 VBC         0.0595
     24 H8          7.7058  -19.7984    4.7041 H         1 VBC         0.0640
     25 H9          5.8410  -17.8858    8.0468 H         1 VBC         0.0635
     26 H10         5.7925  -20.0359    9.2482 H         1 VBC         0.0619
@<TRIPOS>BOND
     1    2    1 1  
     2    4    2 ar 
     3    7    2 ar 
     4   13    3 ar 
     5    8    4 ar 
     6   10    5 ar 
     7    5   15 ar 
     8    6    7 ar 
     9    9    6 ar 
    10    9    8 ar 
    11   10    9 1  
    12   11   10 ar 
    13   12   11 ar 
    14   12   13 1  
    15   12   14 ar 
    16   13   16 ar 
    17   14   15 ar 
    18    1   17 1  
    19    1   18 1  
    20    4   19 1  
    21    5   20 1  
    22    6   21 1  
    23    7   22 1  
    24    8   23 1  
    25   11   24 1  
    26   14   25 1  
    27   15   26 1  
@<TRIPOS>SUBSTRUCTURE
     1 VBC         1

