### 
### Created by X-TOOL on Wed Jan  1 15:39:35 2020
### 

@<TRIPOS>MOLECULE
5qak_ligand
   32    33     1     0     0
SMALL
GAST_HUCK


@<TRIPOS>ATOM
      1 C10        95.9690  252.1080    5.6830 C.2       1 AV4         0.0630
      2 C11        95.2010  250.7590    7.6660 C.ar      1 AV4        -0.0476
      3 C12        95.0340  249.5500    8.3150 C.ar      1 AV4        -0.0577
      4 C13        95.3640  248.3670    7.6770 C.ar      1 AV4        -0.0517
      5 C14        95.3090  246.1480    5.3980 C.ar      1 AV4        -0.0371
      6 C2         95.6740  244.9650    4.7450 C.ar      1 AV4         0.0400
      7 C4         97.9520  245.7370    4.6790 C.ar      1 AV4        -0.0727
      8 C5         97.5880  246.8970    5.3290 C.ar      1 AV4        -0.0672
      9 C7         95.8700  248.3760    6.3760 C.ar      1 AV4        -0.0175
     10 C6         96.2660  247.1190    5.6980 C.ar      1 AV4        -0.0293
     11 C8         96.0260  249.6010    5.7310 C.ar      1 AV4        -0.0400
     12 C          93.3450  244.2190    4.8260 C.3       1 AV4         0.0150
     13 C1         95.1120  242.6030    4.4330 C.3       1 AV4         0.0150
     14 C3         97.0070  244.7730    4.3860 C.ar      1 AV4        -0.0441
     15 C9         95.7020  250.7940    6.3700 C.ar      1 AV4         0.0109
     16 N          94.7360  244.0060    4.4670 N.pl3     1 AV4        -0.3151
     17 O          97.0650  252.6570    5.9230 O.co2     1 AV4        -0.5606
     18 O1         95.0900  252.5620    4.9020 O.co2     1 AV4        -0.5606
     19 H1         94.9403  251.6829    8.1695 H         1 AV4         0.0651
     20 H2         94.6436  249.5284    9.3260 H         1 AV4         0.0625
     21 H3         95.2281  247.4234    8.1930 H         1 AV4         0.0644
     22 H4         94.2734  246.3117    5.6734 H         1 AV4         0.0516
     23 H5         98.9866  245.5803    4.3960 H         1 AV4         0.0584
     24 H6         98.3405  247.6439    5.5548 H         1 AV4         0.0514
     25 H7         96.4056  249.6252    4.7159 H         1 AV4         0.0659
     26 H8         92.7503  243.3443    4.5239 H         1 AV4         0.0477
     27 H9         92.9666  245.1148    4.3119 H         1 AV4         0.0477
     28 H10        93.2644  244.3591    5.9140 H         1 AV4         0.0477
     29 H11        96.1728  242.5143    4.1558 H         1 AV4         0.0477
     30 H12        94.4940  242.0756    3.6915 H         1 AV4         0.0477
     31 H13        94.9540  242.1569    5.4260 H         1 AV4         0.0477
     32 H14        97.3032  243.8640    3.8751 H         1 AV4         0.0518
@<TRIPOS>BOND
     1   15    1 1  
     2    1   17 ar 
     3    1   18 ar 
     4    3    2 ar 
     5    2   15 ar 
     6    4    3 ar 
     7    9    4 ar 
     8    5    6 ar 
     9   10    5 ar 
    10    6   14 ar 
    11    6   16 1  
    12    8    7 ar 
    13    7   14 ar 
    14   10    8 ar 
    15    9   10 1  
    16    9   11 ar 
    17   11   15 ar 
    18   16   12 1  
    19   16   13 1  
    20    2   19 1  
    21    3   20 1  
    22    4   21 1  
    23    5   22 1  
    24    7   23 1  
    25    8   24 1  
    26   11   25 1  
    27   12   26 1  
    28   12   27 1  
    29   12   28 1  
    30   13   29 1  
    31   13   30 1  
    32   13   31 1  
    33   14   32 1  
@<TRIPOS>SUBSTRUCTURE
     1 AV4         1

