### 
### Created by X-TOOL on Wed Jan  1 15:39:35 2020
### 

@<TRIPOS>MOLECULE
5qal_ligand
   28    29     1     0     0
SMALL
GAST_HUCK


@<TRIPOS>ATOM
      1 N         -14.1700  -27.7170   30.5100 N.am      1 TVZ        -0.3002
      2 C         -10.6750  -19.5720   26.8360 C.2       1 TVZ         0.0631
      3 O         -11.1730  -19.3450   27.9630 O.co2     1 TVZ        -0.5606
      4 C1        -10.5770  -21.0120   26.3990 C.ar      1 TVZ         0.0115
      5 C10       -10.5400  -25.2330   28.4980 C.ar      1 TVZ        -0.0489
      6 C11       -10.4220  -23.6710   25.6110 C.ar      1 TVZ        -0.0505
      7 C12        -9.9970  -22.6670   24.7570 C.ar      1 TVZ        -0.0571
      8 C13       -10.0720  -21.3420   25.1490 C.ar      1 TVZ        -0.0470
      9 C2        -11.0000  -22.0270   27.2490 C.ar      1 TVZ        -0.0388
     10 C3        -10.9350  -23.3660   26.8710 C.ar      1 TVZ        -0.0118
     11 C4        -11.4250  -24.4310   27.7820 C.ar      1 TVZ        -0.0134
     12 C5        -12.7880  -24.6600   27.9530 C.ar      1 TVZ        -0.0489
     13 C6        -13.2490  -25.6520   28.7970 C.ar      1 TVZ        -0.0419
     14 C7        -12.3590  -26.4530   29.5020 C.ar      1 TVZ         0.0491
     15 C8        -12.8540  -27.5490   30.4000 C.2       1 TVZ         0.2019
     16 C9        -10.9960  -26.2260   29.3440 C.ar      1 TVZ        -0.0419
     17 O1        -12.0350  -28.2610   31.0030 O.2       1 TVZ        -0.3853
     18 O2        -10.2570  -18.6870   26.0510 O.co2     1 TVZ        -0.5606
     19 H1        -14.5345  -28.4377   31.0997 H         1 TVZ         0.1808
     20 H2        -14.7941  -27.1225   30.0030 H         1 TVZ         0.1808
     21 H3         -9.4730  -25.0754   28.3897 H         1 TVZ         0.0633
     22 H4        -10.3550  -24.7061   25.2961 H         1 TVZ         0.0649
     23 H5         -9.6045  -22.9198   23.7787 H         1 TVZ         0.0626
     24 H6         -9.7355  -20.5598   24.4781 H         1 TVZ         0.0655
     25 H7        -11.3891  -21.7709   28.2278 H         1 TVZ         0.0664
     26 H8        -13.5014  -24.0478   27.4132 H         1 TVZ         0.0633
     27 H9        -14.3159  -25.8070   28.9103 H         1 TVZ         0.0667
     28 H10       -10.2840  -26.8342   29.8901 H         1 TVZ         0.0667
@<TRIPOS>BOND
     1   15    1 am 
     2    2    3 ar 
     3    4    2 1  
     4    2   18 ar 
     5    4    8 ar 
     6    9    4 ar 
     7   11    5 ar 
     8    5   16 ar 
     9    6    7 ar 
    10   10    6 ar 
    11    7    8 ar 
    12   10    9 ar 
    13   11   10 1  
    14   12   11 ar 
    15   13   12 ar 
    16   14   13 ar 
    17   14   15 1  
    18   14   16 ar 
    19   15   17 2  
    20    1   19 1  
    21    1   20 1  
    22    5   21 1  
    23    6   22 1  
    24    7   23 1  
    25    8   24 1  
    26    9   25 1  
    27   12   26 1  
    28   13   27 1  
    29   16   28 1  
@<TRIPOS>SUBSTRUCTURE
     1 TVZ         1

