### 
### Created by X-TOOL on Wed Jan  1 15:39:35 2020
### 

@<TRIPOS>MOLECULE
5qam_ligand
   32    33     1     0     0
SMALL
GAST_HUCK


@<TRIPOS>ATOM
      1 N         100.4530  246.8540    5.2990 N.am      1 GA6        -0.1898
      2 C         102.7170  248.1300    6.0900 C.3       1 GA6         0.0790
      3 O          95.4510  255.6310    4.9930 O.co2     1 GA6        -0.5607
      4 C1         99.5080  247.9230    5.3490 C.ar      1 GA6         0.0651
      5 C10        94.6450  253.0560    5.4670 C.ar      1 GA6        -0.0501
      6 C11        95.9940  253.3760    5.3750 C.ar      1 GA6         0.0080
      7 C12        96.4250  254.7800    5.1420 C.2       1 GA6         0.0624
      8 C13        96.9410  252.3580    5.4480 C.ar      1 GA6        -0.0441
      9 C2         98.3180  247.8170    4.6450 C.ar      1 GA6        -0.0429
     10 C3         97.3610  248.8090    4.7430 C.ar      1 GA6        -0.0683
     11 C4         99.7240  249.0380    6.1500 C.ar      1 GA6        -0.0429
     12 C5         98.7640  250.0300    6.2380 C.ar      1 GA6        -0.0683
     13 C6         97.5650  249.9380    5.5350 C.ar      1 GA6        -0.0332
     14 C7         96.5560  251.0240    5.5870 C.ar      1 GA6        -0.0252
     15 C8         95.1950  250.7340    5.6900 C.ar      1 GA6        -0.0558
     16 C9         94.2510  251.7420    5.6300 C.ar      1 GA6        -0.0605
     17 O1         97.6060  255.0970    5.1160 O.co2     1 GA6        -0.5607
     18 O2        101.4740  246.3270    7.4680 O.2       1 GA6        -0.1499
     19 O3        102.5950  245.6440    5.3840 O.2       1 GA6        -0.1499
     20 S         101.8410  246.6140    6.1150 S.o2      1 GA6         0.0581
     21 H1        100.2226  246.1277    4.6513 H         1 GA6         0.2178
     22 H2        103.6667  248.0137    6.6328 H         1 GA6         0.0488
     23 H3        102.1118  248.9112    6.5732 H         1 GA6         0.0488
     24 H4        102.9229  248.4174    5.0484 H         1 GA6         0.0488
     25 H5         93.8989  253.8404    5.4107 H         1 GA6         0.0630
     26 H6         97.9950  252.6059    5.3960 H         1 GA6         0.0634
     27 H7         98.1379  246.9530    4.0156 H         1 GA6         0.0490
     28 H8         96.4326  248.7072    4.1928 H         1 GA6         0.0586
     29 H9        100.6486  249.1307    6.7081 H         1 GA6         0.0490
     30 H10        98.9481  250.8946    6.8654 H         1 GA6         0.0586
     31 H11        94.8743  249.7065    5.8185 H         1 GA6         0.0620
     32 H12        93.1974  251.5004    5.7112 H         1 GA6         0.0617
@<TRIPOS>BOND
     1    4    1 1  
     2    1   20 am 
     3   20    2 1  
     4    7    3 ar 
     5    9    4 ar 
     6   11    4 ar 
     7    6    5 ar 
     8    5   16 ar 
     9    6    7 1  
    10    8    6 ar 
    11    7   17 ar 
    12   14    8 ar 
    13   10    9 ar 
    14   13   10 ar 
    15   12   11 ar 
    16   13   12 ar 
    17   13   14 1  
    18   14   15 ar 
    19   15   16 ar 
    20   20   18 2  
    21   20   19 2  
    22    1   21 1  
    23    2   22 1  
    24    2   23 1  
    25    2   24 1  
    26    5   25 1  
    27    8   26 1  
    28    9   27 1  
    29   10   28 1  
    30   11   29 1  
    31   12   30 1  
    32   15   31 1  
    33   16   32 1  
@<TRIPOS>SUBSTRUCTURE
     1 GA6         1

