### 
### Created by X-TOOL on Wed Jan  1 15:39:36 2020
### 

@<TRIPOS>MOLECULE
5qan_ligand
   35    36     1     0     0
SMALL
GAST_HUCK


@<TRIPOS>ATOM
      1 N           6.3340   41.3390  138.2400 N.am      1 M8Q        -0.2408
      2 C           3.6830   41.7960  138.6380 C.3       1 M8Q         0.0734
      3 O           8.4570   39.2840  146.6350 O.co2     1 M8Q        -0.5606
      4 C1          6.6610   39.9180  138.4230 C.3       1 M8Q         0.0598
      5 C10         7.5550   36.2060  144.9490 C.ar      1 M8Q        -0.0476
      6 C11         7.9550   37.5220  145.1380 C.ar      1 M8Q         0.0108
      7 C12         8.0890   38.0920  146.5280 C.2       1 M8Q         0.0630
      8 C13         8.2350   38.3130  144.0290 C.ar      1 M8Q        -0.0399
      9 C14         7.4540   38.9420  140.6050 C.ar      1 M8Q        -0.0513
     10 C2          7.7280   39.6900  139.4650 C.ar      1 M8Q        -0.0242
     11 C3          9.0100   40.1870  139.2940 C.ar      1 M8Q        -0.0586
     12 C4          9.9940   39.9380  140.2350 C.ar      1 M8Q        -0.0677
     13 C5          9.7090   39.1840  141.3590 C.ar      1 M8Q        -0.0608
     14 C6          8.4320   38.6680  141.5600 C.ar      1 M8Q        -0.0241
     15 C7          8.1210   37.8100  142.7330 C.ar      1 M8Q        -0.0160
     16 C8          7.7170   36.4860  142.5710 C.ar      1 M8Q        -0.0516
     17 C9          7.4370   35.6920  143.6700 C.ar      1 M8Q        -0.0577
     18 O1          7.8260   37.3380  147.4980 O.co2     1 M8Q        -0.5606
     19 O2          5.4730   41.7350  140.5000 O.2       1 M8Q        -0.1556
     20 O3          5.5440   43.5730  138.8650 O.2       1 M8Q        -0.1556
     21 S           5.3080   42.1930  139.1550 S.o2      1 M8Q         0.0378
     22 H1          6.7834   41.8188  137.4864 H         1 M8Q         0.1695
     23 H2          2.9578   42.3613  139.2417 H         1 M8Q         0.0482
     24 H3          3.5091   40.7180  138.7706 H         1 M8Q         0.0482
     25 H4          3.5611   42.0593  137.5770 H         1 M8Q         0.0482
     26 H5          7.0153   39.5131  137.4636 H         1 M8Q         0.0638
     27 H6          5.7496   39.3851  138.7317 H         1 M8Q         0.0638
     28 H7          7.3346   35.5796  145.8058 H         1 M8Q         0.0651
     29 H8          8.5480   39.3406  144.1746 H         1 M8Q         0.0658
     30 H9          6.4504   38.5608  140.7554 H         1 M8Q         0.0560
     31 H10         9.2445   40.7764  138.4150 H         1 M8Q         0.0559
     32 H11        10.9921   40.3355  140.0905 H         1 M8Q         0.0600
     33 H12        10.4868   38.9933  142.0896 H         1 M8Q         0.0567
     34 H13         7.6209   36.0733  141.5733 H         1 M8Q         0.0644
     35 H14         7.1242   34.6639  143.5279 H         1 M8Q         0.0624
@<TRIPOS>BOND
     1    4    1 1  
     2    1   21 am 
     3   21    2 1  
     4    7    3 ar 
     5   10    4 1  
     6    6    5 ar 
     7    5   17 ar 
     8    6    7 1  
     9    8    6 ar 
    10    7   18 ar 
    11   15    8 ar 
    12    9   10 ar 
    13   14    9 ar 
    14   10   11 ar 
    15   12   11 ar 
    16   13   12 ar 
    17   14   13 ar 
    18   14   15 1  
    19   15   16 ar 
    20   16   17 ar 
    21   21   19 2  
    22   21   20 2  
    23    1   22 1  
    24    2   23 1  
    25    2   24 1  
    26    2   25 1  
    27    4   26 1  
    28    4   27 1  
    29    5   28 1  
    30    8   29 1  
    31    9   30 1  
    32   11   31 1  
    33   12   32 1  
    34   13   33 1  
    35   16   34 1  
    36   17   35 1  
@<TRIPOS>SUBSTRUCTURE
     1 M8Q         1

