### 
### Created by X-TOOL on Wed Jan  1 15:39:35 2020
### 

@<TRIPOS>MOLECULE
5qao_ligand
   35    36     1     0     0
SMALL
GAST_HUCK


@<TRIPOS>ATOM
      1 C2         95.9340  247.9960    5.7120 C.ar      1 Z8R        -0.0414
      2 O2         97.3470  240.1920    1.6560 O.2       1 Z8R        -0.1556
      3 C4         95.0410  246.8360    7.6100 C.ar      1 Z8R        -0.0532
      4 C5         95.0380  248.0180    8.3300 C.ar      1 Z8R        -0.0588
      5 C7         95.5710  245.5300    5.5370 C.ar      1 Z8R        -0.0235
      6 C6         95.4760  249.1900    7.7440 C.ar      1 Z8R        -0.0485
      7 C8         96.7730  245.0830    4.9920 C.ar      1 Z8R        -0.0600
      8 C          96.3320  250.4750    5.7570 C.2       1 Z8R         0.0628
      9 C1         95.9190  249.1900    6.4280 C.ar      1 Z8R         0.0098
     10 C10        94.4250  244.7880    5.2620 C.ar      1 Z8R        -0.0600
     11 C11        94.4790  243.6550    4.4730 C.ar      1 Z8R        -0.0574
     12 C12        95.6760  243.2190    3.9320 C.ar      1 Z8R        -0.0237
     13 C13        95.6990  242.0210    3.0150 C.3       1 Z8R         0.0603
     14 C14        95.9370  240.6750   -0.4540 C.3       1 Z8R         0.0734
     15 C3         95.4950  246.8050    6.2920 C.ar      1 Z8R        -0.0185
     16 C9         96.8230  243.9460    4.2060 C.ar      1 Z8R        -0.0574
     17 N          96.1840  242.3530    1.6660 N.am      1 Z8R        -0.2406
     18 O          96.6700  250.4220    4.5500 O.co2     1 Z8R        -0.5606
     19 O1         96.3150  251.5230    6.4440 O.co2     1 Z8R        -0.5606
     20 O3         98.0740  241.9950    0.1470 O.2       1 Z8R        -0.1556
     21 S          97.0160  241.2790    0.7870 S.o2      1 Z8R         0.0379
     22 H1         96.2920  247.9914    4.6888 H         1 Z8R         0.0649
     23 H2         94.6863  245.9238    8.0761 H         1 Z8R         0.0635
     24 H3         94.6909  248.0242    9.3569 H         1 Z8R         0.0622
     25 H4         95.4738  250.1124    8.3134 H         1 Z8R         0.0643
     26 H5         97.6847  245.6359    5.1874 H         1 Z8R         0.0609
     27 H6         93.4738  245.1049    5.6742 H         1 Z8R         0.0609
     28 H7         93.5698  243.0990    4.2747 H         1 Z8R         0.0561
     29 H8         94.6782  241.6192    2.9338 H         1 Z8R         0.0642
     30 H9         96.3604  241.2569    3.4494 H         1 Z8R         0.0642
     31 H10        95.6676  241.4947   -1.1363 H         1 Z8R         0.0482
     32 H11        95.0264  240.2742    0.0152 H         1 Z8R         0.0482
     33 H12        96.4395  239.8769   -1.0201 H         1 Z8R         0.0482
     34 H13        97.7729  243.6192    3.7987 H         1 Z8R         0.0561
     35 H14        95.9961  243.2586    1.2857 H         1 Z8R         0.1696
@<TRIPOS>BOND
     1    1    9 ar 
     2   15    1 ar 
     3   21    2 2  
     4    3    4 ar 
     5   15    3 ar 
     6    4    6 ar 
     7    7    5 ar 
     8   10    5 ar 
     9    5   15 1  
    10    9    6 ar 
    11   16    7 ar 
    12    9    8 1  
    13    8   18 ar 
    14    8   19 ar 
    15   11   10 ar 
    16   12   11 ar 
    17   13   12 1  
    18   12   16 ar 
    19   17   13 1  
    20   21   14 1  
    21   17   21 am 
    22   21   20 2  
    23    1   22 1  
    24    3   23 1  
    25    4   24 1  
    26    6   25 1  
    27    7   26 1  
    28   10   27 1  
    29   11   28 1  
    30   13   29 1  
    31   13   30 1  
    32   14   31 1  
    33   14   32 1  
    34   14   33 1  
    35   16   34 1  
    36   17   35 1  
@<TRIPOS>SUBSTRUCTURE
     1 Z8R         1

