### 
### Created by X-TOOL on Wed Jan  1 15:39:35 2020
### 

@<TRIPOS>MOLECULE
5qap_ligand
   31    32     1     0     0
SMALL
GAST_HUCK


@<TRIPOS>ATOM
      1 C10        90.7220  233.1780   -4.1300 C.ar      1 AV7        -0.0746
      2 C13        96.3590  233.8710   -6.5050 C.ar      1 AV7        -0.0577
      3 C11        91.8770  232.8430   -4.8130 C.ar      1 AV7        -0.0692
      4 C12        95.1280  234.2710   -6.0100 C.ar      1 AV7        -0.0518
      5 N          91.4020  236.6790   -3.2190 N.am      1 AV7        -0.2343
      6 C          96.2210  230.1490   -5.8770 C.2       1 AV7         0.0630
      7 O          97.3950  229.8530   -6.3470 O.co2     1 AV7        -0.5606
      8 C1         95.8480  231.5860   -5.9590 C.ar      1 AV7         0.0109
      9 C14        96.7190  232.5340   -6.4830 C.ar      1 AV7        -0.0476
     10 C2         94.6120  231.9960   -5.4770 C.ar      1 AV7        -0.0400
     11 C3         94.2350  233.3360   -5.4880 C.ar      1 AV7        -0.0180
     12 C4         92.9330  233.7460   -4.9090 C.ar      1 AV7        -0.0311
     13 C5         92.7740  235.0100   -4.3440 C.ar      1 AV7        -0.0340
     14 C6         91.6060  235.3570   -3.6780 C.ar      1 AV7         0.0665
     15 C7         90.3200  237.1780   -2.5730 C.2       1 AV7         0.2004
     16 C8         90.0230  238.6190   -2.8610 C.3       1 AV7         0.0316
     17 C9         90.5890  234.4240   -3.5460 C.ar      1 AV7        -0.0410
     18 O1         89.6050  236.5020   -1.8420 O.2       1 AV7        -0.3852
     19 O2         95.4620  229.3240   -5.3770 O.co2     1 AV7        -0.5606
     20 H1         89.9151  232.4583   -4.0520 H         1 AV7         0.0579
     21 H2         97.0428  234.6076   -6.9110 H         1 AV7         0.0625
     22 H3         91.9612  231.8676   -5.2784 H         1 AV7         0.0496
     23 H4         94.8568  235.3204   -6.0288 H         1 AV7         0.0644
     24 H5         92.1464  237.3239   -3.3921 H         1 AV7         0.2255
     25 H6         97.6816  232.2263   -6.8751 H         1 AV7         0.0651
     26 H7         93.9250  231.2557   -5.0832 H         1 AV7         0.0659
     27 H8         93.5759  235.7348   -4.4258 H         1 AV7         0.0503
     28 H9         89.1331  238.9303   -2.2943 H         1 AV7         0.0472
     29 H10        89.8355  238.7467   -3.9373 H         1 AV7         0.0472
     30 H11        90.8825  239.2373   -2.5626 H         1 AV7         0.0472
     31 H12        89.6934  234.6705   -2.9873 H         1 AV7         0.0505
@<TRIPOS>BOND
     1    3    1 ar 
     2    1   17 ar 
     3    4    2 ar 
     4    2    9 ar 
     5   12    3 ar 
     6   11    4 ar 
     7   14    5 1  
     8    5   15 am 
     9    6    7 ar 
    10    8    6 1  
    11    6   19 ar 
    12    8    9 ar 
    13   10    8 ar 
    14   11   10 ar 
    15   12   11 1  
    16   13   12 ar 
    17   13   14 ar 
    18   14   17 ar 
    19   15   16 1  
    20   15   18 2  
    21    1   20 1  
    22    2   21 1  
    23    3   22 1  
    24    4   23 1  
    25    5   24 1  
    26    9   25 1  
    27   10   26 1  
    28   13   27 1  
    29   16   28 1  
    30   16   29 1  
    31   16   30 1  
    32   17   31 1  
@<TRIPOS>SUBSTRUCTURE
     1 AV7         1

