### 
### Created by X-TOOL on Wed Jan  1 15:39:36 2020
### 

@<TRIPOS>MOLECULE
5qaq_ligand
   31    32     1     0     0
SMALL
GAST_HUCK


@<TRIPOS>ATOM
      1 N          96.2570  236.4380   -4.2240 N.am      1 S1C        -0.2326
      2 C          97.0030  238.1790   -2.7350 C.3       1 S1C         0.0319
      3 O          98.4790  236.8890   -4.1010 O.2       1 S1C        -0.3845
      4 C1         97.3270  237.1190   -3.7460 C.2       1 S1C         0.2017
      5 C10        95.6260  230.7920   -9.7420 C.ar      1 S1C        -0.0602
      6 C11        95.9060  229.5590   -9.1840 C.ar      1 S1C        -0.0498
      7 C12        96.2830  229.4650   -7.8510 C.ar      1 S1C         0.0083
      8 C13        96.3740  230.6230   -7.0830 C.ar      1 S1C        -0.0436
      9 C14        96.5710  228.1400   -7.2400 C.2       1 S1C         0.0624
     10 C2         96.2460  235.3420   -5.1160 C.ar      1 S1C         0.0687
     11 C3         97.3410  234.4950   -5.2150 C.ar      1 S1C        -0.0389
     12 C4         97.2930  233.3880   -6.0430 C.ar      1 S1C        -0.0661
     13 C5         96.1580  233.0960   -6.7950 C.ar      1 S1C        -0.0314
     14 C6         95.0740  233.9670   -6.7000 C.ar      1 S1C        -0.0661
     15 C7         95.1140  235.0750   -5.8740 C.ar      1 S1C        -0.0389
     16 C8         96.0870  231.8730   -7.6320 C.ar      1 S1C        -0.0240
     17 C9         95.7140  231.9400   -8.9740 C.ar      1 S1C        -0.0554
     18 O1         96.9120  228.0310   -6.0690 O.co2     1 S1C        -0.5607
     19 O2         96.4310  227.1250   -8.0470 O.co2     1 S1C        -0.5607
     20 H1         95.3623  236.7507   -3.9051 H         1 S1C         0.2272
     21 H2         97.9313  238.6716   -2.4099 H         1 S1C         0.0472
     22 H3         96.5087  237.7188   -1.8667 H         1 S1C         0.0472
     23 H4         96.3316  238.9239   -3.1870 H         1 S1C         0.0472
     24 H5         95.3366  230.8602  -10.7844 H         1 S1C         0.0618
     25 H6         95.8311  228.6626   -9.7889 H         1 S1C         0.0632
     26 H7         96.6722  230.5521   -6.0432 H         1 S1C         0.0637
     27 H8         98.2372  234.7018   -4.6413 H         1 S1C         0.0510
     28 H9         98.1558  232.7350   -6.1077 H         1 S1C         0.0590
     29 H10        94.1825  233.7719   -7.2850 H         1 S1C         0.0590
     30 H11        94.2581  235.7378   -5.8180 H         1 S1C         0.0510
     31 H12        95.4905  232.9021   -9.4207 H         1 S1C         0.0623
@<TRIPOS>BOND
     1    1    4 am 
     2   10    1 1  
     3    4    2 1  
     4    4    3 2  
     5    6    5 ar 
     6    5   17 ar 
     7    7    6 ar 
     8    8    7 ar 
     9    7    9 1  
    10   16    8 ar 
    11    9   18 ar 
    12    9   19 ar 
    13   11   10 ar 
    14   10   15 ar 
    15   12   11 ar 
    16   13   12 ar 
    17   13   14 ar 
    18   13   16 1  
    19   14   15 ar 
    20   16   17 ar 
    21    1   20 1  
    22    2   21 1  
    23    2   22 1  
    24    2   23 1  
    25    5   24 1  
    26    6   25 1  
    27    8   26 1  
    28   11   27 1  
    29   12   28 1  
    30   14   29 1  
    31   15   30 1  
    32   17   31 1  
@<TRIPOS>SUBSTRUCTURE
     1 S1C         1

