### 
### Created by X-TOOL on Wed Jan  1 15:39:38 2020
### 

@<TRIPOS>MOLECULE
5qar_ligand
   37    38     1     0     0
SMALL
GAST_HUCK


@<TRIPOS>ATOM
      1 N         100.6300  245.0630    7.5250 N.am      1 QIU        -0.2852
      2 C          99.9720  243.8330    9.4870 C.3       1 QIU         0.0257
      3 O          94.2310  253.2380    4.8620 O.co2     1 QIU        -0.5606
      4 C1        100.4350  245.1080    8.8440 C.2       1 QIU         0.1730
      5 C10        94.1670  248.2600    5.3650 C.ar      1 QIU        -0.0516
      6 C11        93.1640  249.2120    5.3020 C.ar      1 QIU        -0.0577
      7 C12        93.4810  250.5540    5.1850 C.ar      1 QIU        -0.0476
      8 C13        94.8100  250.9550    5.1310 C.ar      1 QIU         0.0108
      9 C14        95.1690  252.4130    4.9790 C.2       1 QIU         0.0630
     10 C15        95.8130  249.9920    5.1990 C.ar      1 QIU        -0.0399
     11 C16        97.8160  247.9120    5.9580 C.ar      1 QIU        -0.0528
     12 C2        101.1510  246.1860    6.7540 C.3       1 QIU         0.0404
     13 C3        100.1630  247.3440    6.6740 C.3       1 QIU         0.0011
     14 C4         98.8700  247.0050    5.9670 C.ar      1 QIU        -0.0407
     15 C5         98.6910  245.7810    5.3410 C.ar      1 QIU        -0.0601
     16 C6         97.4880  245.4680    4.7360 C.ar      1 QIU        -0.0678
     17 C7         96.4480  246.3790    4.7400 C.ar      1 QIU        -0.0608
     18 C8         96.5980  247.6210    5.3460 C.ar      1 QIU        -0.0241
     19 C9         95.5090  248.6350    5.3130 C.ar      1 QIU        -0.0160
     20 O1         96.3840  252.7200    4.9790 O.co2     1 QIU        -0.5606
     21 O2        100.6260  246.1320    9.4960 O.2       1 QIU        -0.3974
     22 H1        100.4078  244.2168    7.0407 H         1 QIU         0.1852
     23 H2         99.8468  243.9921   10.5682 H         1 QIU         0.0467
     24 H3        100.7192  243.0440    9.3166 H         1 QIU         0.0467
     25 H4         99.0107  243.5287    9.0475 H         1 QIU         0.0467
     26 H5         93.9063  247.2117    5.4557 H         1 QIU         0.0644
     27 H6         92.1253  248.9048    5.3445 H         1 QIU         0.0624
     28 H7         92.6905  251.2940    5.1354 H         1 QIU         0.0651
     29 H8         96.8509  250.3026    5.1627 H         1 QIU         0.0658
     30 H9         97.9454  248.8737    6.4412 H         1 QIU         0.0560
     31 H10       101.3740  245.8408    5.7337 H         1 QIU         0.0542
     32 H11       102.0758  246.5430    7.2307 H         1 QIU         0.0542
     33 H12       100.6448  248.1725    6.1342 H         1 QIU         0.0445
     34 H13        99.9227  247.6644    7.6985 H         1 QIU         0.0445
     35 H14        99.5024  245.0623    5.3258 H         1 QIU         0.0558
     36 H15        97.3596  244.5043    4.2565 H         1 QIU         0.0600
     37 H16        95.5073  246.1225    4.2664 H         1 QIU         0.0567
@<TRIPOS>BOND
     1    1    4 am 
     2   12    1 1  
     3    4    2 1  
     4    9    3 ar 
     5    4   21 2  
     6    5    6 ar 
     7   19    5 ar 
     8    6    7 ar 
     9    8    7 ar 
    10    8    9 1  
    11   10    8 ar 
    12    9   20 ar 
    13   19   10 ar 
    14   11   14 ar 
    15   18   11 ar 
    16   13   12 1  
    17   14   13 1  
    18   14   15 ar 
    19   16   15 ar 
    20   17   16 ar 
    21   18   17 ar 
    22   18   19 1  
    23    1   22 1  
    24    2   23 1  
    25    2   24 1  
    26    2   25 1  
    27    5   26 1  
    28    6   27 1  
    29    7   28 1  
    30   10   29 1  
    31   11   30 1  
    32   12   31 1  
    33   12   32 1  
    34   13   33 1  
    35   13   34 1  
    36   15   35 1  
    37   16   36 1  
    38   17   37 1  
@<TRIPOS>SUBSTRUCTURE
     1 QIU         1

