### 
### Created by X-TOOL on Wed Jan  1 15:39:36 2020
### 

@<TRIPOS>MOLECULE
5qas_ligand
   37    38     1     0     0
SMALL
GAST_HUCK


@<TRIPOS>ATOM
      1 N          94.0500  242.7790    4.6800 N.am      1 CVF        -0.2852
      2 C          92.5510  242.1900    6.4720 C.3       1 CVF         0.0257
      3 O          97.6380  253.3040    7.6510 O.co2     1 CVF        -0.5606
      4 C1         92.9960  243.1510    5.4100 C.2       1 CVF         0.1730
      5 C10        95.7180  249.0800    6.7630 C.ar      1 CVF        -0.0185
      6 C11        95.0550  249.0390    7.9900 C.ar      1 CVF        -0.0532
      7 C12        95.0270  250.1470    8.8190 C.ar      1 CVF        -0.0588
      8 C13        95.6580  251.3150    8.4380 C.ar      1 CVF        -0.0485
      9 C14        96.3200  251.3850    7.2190 C.ar      1 CVF         0.0098
     10 C15        96.9950  252.6600    6.7870 C.2       1 CVF         0.0628
     11 C16        96.3460  250.2680    6.3890 C.ar      1 CVF        -0.0414
     12 C2         94.4890  243.4970    3.4930 C.3       1 CVF         0.0406
     13 C3         95.8500  244.1600    3.6800 C.3       1 CVF         0.0016
     14 C4         95.8210  245.4700    4.4330 C.ar      1 CVF        -0.0401
     15 C5         96.9940  246.0620    4.8780 C.ar      1 CVF        -0.0589
     16 C6         96.9680  247.2520    5.5840 C.ar      1 CVF        -0.0600
     17 C7         94.6240  246.1120    4.7010 C.ar      1 CVF        -0.0589
     18 C8         94.5940  247.3000    5.4080 C.ar      1 CVF        -0.0600
     19 C9         95.7640  247.8850    5.8830 C.ar      1 CVF        -0.0235
     20 O1         96.8650  253.0000    5.5900 O.co2     1 CVF        -0.5606
     21 O2         92.4120  244.2130    5.2080 O.2       1 CVF        -0.3974
     22 H1         94.5624  241.9680    4.9625 H         1 CVF         0.1852
     23 H2         91.6810  242.6057    7.0014 H         1 CVF         0.0467
     24 H3         93.3714  242.0273    7.1864 H         1 CVF         0.0467
     25 H4         92.2741  241.2323    6.0072 H         1 CVF         0.0467
     26 H5         94.5554  248.1276    8.2980 H         1 CVF         0.0635
     27 H6         94.5085  250.0979    9.7697 H         1 CVF         0.0622
     28 H7         95.6365  252.1792    9.0920 H         1 CVF         0.0643
     29 H8         96.8622  250.3221    5.4373 H         1 CVF         0.0649
     30 H9         93.7476  244.2745    3.2569 H         1 CVF         0.0543
     31 H10        94.5549  242.7868    2.6556 H         1 CVF         0.0543
     32 H11        96.2786  244.3475    2.6844 H         1 CVF         0.0449
     33 H12        96.4970  243.4626    4.2323 H         1 CVF         0.0449
     34 H13        97.9451  245.5854    4.6696 H         1 CVF         0.0560
     35 H14        97.9003  247.6989    5.9097 H         1 CVF         0.0609
     36 H15        93.6952  245.6763    4.3509 H         1 CVF         0.0560
     37 H16        93.6424  247.7841    5.5955 H         1 CVF         0.0609
@<TRIPOS>BOND
     1    1    4 am 
     2   12    1 1  
     3    4    2 1  
     4   10    3 ar 
     5    4   21 2  
     6    5    6 ar 
     7    5   11 ar 
     8   19    5 1  
     9    6    7 ar 
    10    7    8 ar 
    11    9    8 ar 
    12    9   10 1  
    13   11    9 ar 
    14   10   20 ar 
    15   13   12 1  
    16   14   13 1  
    17   15   14 ar 
    18   14   17 ar 
    19   16   15 ar 
    20   16   19 ar 
    21   17   18 ar 
    22   18   19 ar 
    23    1   22 1  
    24    2   23 1  
    25    2   24 1  
    26    2   25 1  
    27    6   26 1  
    28    7   27 1  
    29    8   28 1  
    30   11   29 1  
    31   12   30 1  
    32   12   31 1  
    33   13   32 1  
    34   13   33 1  
    35   15   34 1  
    36   16   35 1  
    37   17   36 1  
    38   18   37 1  
@<TRIPOS>SUBSTRUCTURE
     1 CVF         1

