### 
### Created by X-TOOL on Wed Jan  1 15:39:35 2020
### 

@<TRIPOS>MOLECULE
5qat_ligand
   33    34     1     0     0
SMALL
GAST_HUCK


@<TRIPOS>ATOM
      1 C           5.5020   43.3560  140.3670 C.3       1 T7O         0.0374
      2 O           6.8920   43.3150  138.4230 O.2       1 T7O        -0.3706
      3 C1          6.2250   42.7340  139.2280 C.2       1 T7O         0.2326
      4 C10         7.6050   36.5850  141.9920 C.ar      1 T7O        -0.0516
      5 C11         7.2340   35.7480  143.0290 C.ar      1 T7O        -0.0577
      6 C12         7.4740   36.1160  144.3390 C.ar      1 T7O        -0.0476
      7 C13         8.4590   38.1680  143.5760 C.ar      1 T7O        -0.0399
      8 C14         8.0850   37.3310  144.6230 C.ar      1 T7O         0.0108
      9 C15         8.3300   37.7490  146.0510 C.2       1 T7O         0.0630
     10 C2          6.9390   40.6450  138.3420 C.3       1 T7O         0.1107
     11 C3          8.0110   40.0400  139.1990 C.ar      1 T7O        -0.0124
     12 C4          7.6630   39.2500  140.2870 C.ar      1 T7O        -0.0503
     13 C5          8.6260   38.7040  141.1350 C.ar      1 T7O        -0.0240
     14 C6          9.9660   38.9800  140.8740 C.ar      1 T7O        -0.0608
     15 C7         10.3250   39.7580  139.7880 C.ar      1 T7O        -0.0677
     16 C8          9.3520   40.2810  138.9550 C.ar      1 T7O        -0.0577
     17 C9          8.2260   37.8070  142.2480 C.ar      1 T7O        -0.0160
     18 O1          6.0670   41.4060  139.2200 O.3       1 T7O        -0.2638
     19 O2          7.7860   37.0750  146.9600 O.co2     1 T7O        -0.5606
     20 O3          9.0610   38.7470  146.2460 O.co2     1 T7O        -0.5606
     21 H1          5.6516   44.4456  140.3451 H         1 T7O         0.0483
     22 H2          5.8909   42.9514  141.3131 H         1 T7O         0.0483
     23 H3          4.4282   43.1317  140.2861 H         1 T7O         0.0483
     24 H4          7.4106   36.2873  140.9680 H         1 T7O         0.0644
     25 H5          6.7535   34.8005  142.8132 H         1 T7O         0.0624
     26 H6          7.1847   35.4547  145.1477 H         1 T7O         0.0651
     27 H7          8.9387   39.1150  143.7952 H         1 T7O         0.0658
     28 H8          6.3672   39.8522  137.8375 H         1 T7O         0.0778
     29 H9          7.3882   41.3090  137.5888 H         1 T7O         0.0778
     30 H10         6.6151   39.0526  140.4821 H         1 T7O         0.0561
     31 H11        10.7339   38.5818  141.5273 H         1 T7O         0.0567
     32 H12        11.3716   39.9584  139.5891 H         1 T7O         0.0600
     33 H13         9.6426   40.8852  138.1032 H         1 T7O         0.0559
@<TRIPOS>BOND
     1    3    1 1  
     2    3    2 2  
     3   18    3 1  
     4    4    5 ar 
     5   17    4 ar 
     6    5    6 ar 
     7    8    6 ar 
     8    7    8 ar 
     9   17    7 ar 
    10    8    9 1  
    11    9   19 ar 
    12    9   20 ar 
    13   11   10 1  
    14   10   18 1  
    15   12   11 ar 
    16   11   16 ar 
    17   13   12 ar 
    18   13   14 ar 
    19   13   17 1  
    20   14   15 ar 
    21   15   16 ar 
    22    1   21 1  
    23    1   22 1  
    24    1   23 1  
    25    4   24 1  
    26    5   25 1  
    27    6   26 1  
    28    7   27 1  
    29   10   28 1  
    30   10   29 1  
    31   12   30 1  
    32   14   31 1  
    33   15   32 1  
    34   16   33 1  
@<TRIPOS>SUBSTRUCTURE
     1 T7O         1

