### 
### Created by X-TOOL on Wed Jan  1 15:39:36 2020
### 

@<TRIPOS>MOLECULE
5qau_ligand
   29    31     1     0     0
SMALL
GAST_HUCK


@<TRIPOS>ATOM
      1 N          72.5200  235.2650   37.2120 N.2       1 V7V        -0.2072
      2 C          79.5590  230.7290   34.8470 C.2       1 V7V         0.0630
      3 O          80.6580  230.1270   34.7840 O.co2     1 V7V        -0.5606
      4 C1         79.5810  232.2250   35.0450 C.ar      1 V7V         0.0108
      5 C10        76.0600  234.6120   36.2470 C.ar      1 V7V        -0.0360
      6 C11        79.5990  234.9880   35.3460 C.ar      1 V7V        -0.0515
      7 C12        80.7890  234.2990   35.1900 C.ar      1 V7V        -0.0577
      8 C13        80.7820  232.9240   35.0380 C.ar      1 V7V        -0.0476
      9 C2         78.3880  232.9240   35.2080 C.ar      1 V7V        -0.0397
     10 C3         78.3790  234.3130   35.3480 C.ar      1 V7V        -0.0134
     11 C4         77.0930  235.0550   35.4180 C.ar      1 V7V        -0.0123
     12 C5         76.8660  236.1710   34.6130 C.ar      1 V7V        -0.0503
     13 C6         75.6400  236.8130   34.6210 C.ar      1 V7V        -0.0564
     14 C7         74.6200  236.3530   35.4330 C.ar      1 V7V        -0.0439
     15 C8         74.8220  235.2510   36.2540 C.ar      1 V7V         0.0410
     16 C9         73.7450  234.7680   37.1360 C.2       1 V7V         0.1859
     17 N1         71.8680  234.5190   38.1420 N.2       1 V7V        -0.1384
     18 N2         72.6460  233.6020   38.6220 N.2       1 V7V        -0.0637
     19 N3         73.8300  233.7490   37.9940 N.pl3     1 V7V        -0.1507
     20 O1         78.4410  230.1710   34.7480 O.co2     1 V7V        -0.5606
     21 H1         76.2239  233.7583   36.8946 H         1 V7V         0.0669
     22 H2         79.6156  236.0650   35.4681 H         1 V7V         0.0644
     23 H3         81.7293  234.8383   35.1869 H         1 V7V         0.0624
     24 H4         81.7169  232.3898   34.9130 H         1 V7V         0.0650
     25 H5         77.4503  232.3805   35.2265 H         1 V7V         0.0658
     26 H6         77.6595  236.5400   33.9733 H         1 V7V         0.0653
     27 H7         75.4790  237.6788   33.9889 H         1 V7V         0.0628
     28 H8         73.6589  236.8543   35.4289 H         1 V7V         0.0661
     29 H9         74.6660  233.1682   38.1511 H         1 V7V         0.2707
@<TRIPOS>BOND
     1   16    1 2  
     2    1   17 1  
     3    2    3 ar 
     4    4    2 1  
     5    2   20 ar 
     6    4    8 ar 
     7    9    4 ar 
     8    5   11 ar 
     9   15    5 ar 
    10    6    7 ar 
    11   10    6 ar 
    12    7    8 ar 
    13   10    9 ar 
    14   11   10 1  
    15   11   12 ar 
    16   13   12 ar 
    17   14   13 ar 
    18   15   14 ar 
    19   15   16 1  
    20   16   19 1  
    21   17   18 2  
    22   18   19 1  
    23    5   21 1  
    24    6   22 1  
    25    7   23 1  
    26    8   24 1  
    27    9   25 1  
    28   12   26 1  
    29   13   27 1  
    30   14   28 1  
    31   19   29 1  
@<TRIPOS>SUBSTRUCTURE
     1 V7V         1

