### 
### Created by X-TOOL on Wed Jan  1 15:39:36 2020
### 

@<TRIPOS>MOLECULE
5qav_ligand
   29    31     1     0     0
SMALL
GAST_HUCK


@<TRIPOS>ATOM
      1 N1         82.9150  238.7790   31.6630 N.2       1 L43        -0.1385
      2 C2         79.2220  232.3600   35.9450 C.ar      1 L43        -0.0389
      3 N2         82.4990  239.6910   32.4810 N.2       1 L43        -0.0638
      4 N3         81.8560  239.0420   33.4720 N.pl3     1 L43        -0.1510
      5 C4         80.1050  234.6780   35.6500 C.ar      1 L43        -0.0138
      6 C5         79.8900  236.0280   35.9180 C.ar      1 L43        -0.0495
      7 C7         81.2570  236.6810   34.0440 C.ar      1 L43         0.0399
      8 C6         80.4570  237.0140   35.1300 C.ar      1 L43        -0.0438
      9 C8         81.8970  237.7290   33.2310 C.2       1 L43         0.1853
     10 C          78.2450  230.0490   36.0680 C.2       1 L43         0.0631
     11 C1         78.5900  231.3750   36.6990 C.ar      1 L43         0.0114
     12 C10        80.9130  234.3520   34.5630 C.ar      1 L43        -0.0495
     13 C11        79.1000  233.8730   37.8010 C.ar      1 L43        -0.0506
     14 C12        78.4810  232.8930   38.5580 C.ar      1 L43        -0.0571
     15 C13        78.2210  231.6520   38.0090 C.ar      1 L43        -0.0471
     16 C3         79.4760  233.6220   36.4810 C.ar      1 L43        -0.0120
     17 C9         81.4760  235.3350   33.7690 C.ar      1 L43        -0.0438
     18 N          82.5590  237.5420   32.1000 N.2       1 L43        -0.2075
     19 O          77.5410  229.2530   36.7320 O.co2     1 L43        -0.5606
     20 O1         78.6350  229.8410   34.8930 O.co2     1 L43        -0.5606
     21 H1         79.5211  232.1427   34.9260 H         1 L43         0.0663
     22 H2         81.4055  239.4870   34.2844 H         1 L43         0.2705
     23 H3         79.2673  236.3111   36.7589 H         1 L43         0.0632
     24 H4         80.2751  238.0571   35.3624 H         1 L43         0.0661
     25 H5         81.1040  233.3095   34.3353 H         1 L43         0.0632
     26 H6         79.2946  234.8456   38.2384 H         1 L43         0.0649
     27 H7         78.1996  233.0998   39.5842 H         1 L43         0.0626
     28 H8         77.7271  230.8916   38.6030 H         1 L43         0.0655
     29 H9         82.0940  235.0536   32.9240 H         1 L43         0.0661
@<TRIPOS>BOND
     1    1    3 2  
     2   18    1 1  
     3    2   11 ar 
     4   16    2 ar 
     5    4    3 1  
     6    9    4 1  
     7    5    6 ar 
     8    5   12 ar 
     9   16    5 1  
    10    6    8 ar 
    11    8    7 ar 
    12    7    9 1  
    13   17    7 ar 
    14    9   18 2  
    15   11   10 1  
    16   10   19 ar 
    17   10   20 ar 
    18   11   15 ar 
    19   12   17 ar 
    20   13   14 ar 
    21   13   16 ar 
    22   14   15 ar 
    23    2   21 1  
    24    4   22 1  
    25    6   23 1  
    26    8   24 1  
    27   12   25 1  
    28   13   26 1  
    29   14   27 1  
    30   15   28 1  
    31   17   29 1  
@<TRIPOS>SUBSTRUCTURE
     1 L43         1

