### 
### Created by X-TOOL on Wed Jan  1 15:39:37 2020
### 

@<TRIPOS>MOLECULE
5qaw_ligand
   30    32     1     0     0
SMALL
GAST_HUCK


@<TRIPOS>ATOM
      1 C          95.8410  255.0940    5.1120 C.2       1 TVC         0.0630
      2 O          97.0650  255.2870    5.3070 O.co2     1 TVC        -0.5606
      3 C1         95.3150  253.6890    5.2770 C.ar      1 TVC         0.0108
      4 C10       101.3610  248.7850    5.5210 C.ar      1 TVC        -0.0612
      5 C11       100.9930  247.5650    4.9810 C.ar      1 TVC        -0.0612
      6 C12        99.6780  247.2710    4.7630 C.ar      1 TVC        -0.0540
      7 C13        98.6640  248.2100    5.0710 C.ar      1 TVC        -0.0179
      8 C14        97.2920  247.9700    4.8270 C.ar      1 TVC        -0.0535
      9 C15        96.3600  248.9340    5.0640 C.ar      1 TVC        -0.0534
     10 C16        96.1980  252.6350    5.4890 C.ar      1 TVC        -0.0398
     11 C2         93.9570  253.4260    5.1620 C.ar      1 TVC        -0.0476
     12 C3         93.4890  252.1280    5.2540 C.ar      1 TVC        -0.0577
     13 C4         94.3740  251.0810    5.4450 C.ar      1 TVC        -0.0515
     14 C5         95.7450  251.3160    5.5410 C.ar      1 TVC        -0.0143
     15 C6         96.7170  250.1960    5.5410 C.ar      1 TVC        -0.0167
     16 C7         98.0430  250.4320    5.8460 C.ar      1 TVC        -0.0463
     17 C8         99.0430  249.4620    5.6080 C.ar      1 TVC        -0.0173
     18 C9        100.4160  249.7180    5.8350 C.ar      1 TVC        -0.0540
     19 O1         95.0260  255.9850    4.7750 O.co2     1 TVC        -0.5606
     20 H1        102.4087  249.0012    5.6960 H         1 TVC         0.0618
     21 H2        101.7555  246.8368    4.7291 H         1 TVC         0.0618
     22 H3         99.4066  246.3067    4.3489 H         1 TVC         0.0624
     23 H4         96.9778  247.0051    4.4459 H         1 TVC         0.0624
     24 H5         95.3147  248.7157    4.8775 H         1 TVC         0.0624
     25 H6         97.2546  252.8415    5.6158 H         1 TVC         0.0658
     26 H7         93.2609  254.2409    4.9995 H         1 TVC         0.0651
     27 H8         92.4261  251.9299    5.1763 H         1 TVC         0.0624
     28 H9         93.9971  250.0674    5.5208 H         1 TVC         0.0644
     29 H10        98.3240  251.3853    6.2789 H         1 TVC         0.0630
     30 H11       100.7206  250.6661    6.2632 H         1 TVC         0.0624
@<TRIPOS>BOND
     1    1    2 ar 
     2    3    1 1  
     3    1   19 ar 
     4   10    3 ar 
     5    3   11 ar 
     6    5    4 ar 
     7    4   18 ar 
     8    6    5 ar 
     9    7    6 ar 
    10    8    7 ar 
    11    7   17 ar 
    12    9    8 ar 
    13   15    9 ar 
    14   14   10 ar 
    15   12   11 ar 
    16   13   12 ar 
    17   14   13 ar 
    18   14   15 1  
    19   15   16 ar 
    20   16   17 ar 
    21   17   18 ar 
    22    4   20 1  
    23    5   21 1  
    24    6   22 1  
    25    8   23 1  
    26    9   24 1  
    27   10   25 1  
    28   11   26 1  
    29   12   27 1  
    30   13   28 1  
    31   16   29 1  
    32   18   30 1  
@<TRIPOS>SUBSTRUCTURE
     1 TVC         1

