### 
### Created by X-TOOL on Wed Jan  1 15:39:35 2020
### 

@<TRIPOS>MOLECULE
5qax_ligand
   29    31     1     0     0
SMALL
GAST_HUCK


@<TRIPOS>ATOM
      1 N         126.2970 -100.4240   33.0850 N.ar      1 Q92        -0.2953
      2 C         131.9530 -103.8960   27.1780 C.2       1 Q92         0.0630
      3 O         132.5050 -104.1890   26.0930 O.co2     1 Q92        -0.5606
      4 C1        130.7370 -103.0030   27.1260 C.ar      1 Q92         0.0111
      5 C10       126.9830 -100.3850   34.2180 C.ar      1 Q92         0.0105
      6 C11       128.3450 -100.6340   34.3200 C.ar      1 Q92        -0.0318
      7 C12       129.0390 -100.9380   33.1910 C.ar      1 Q92        -0.0346
      8 C13       128.3740 -100.9970   31.9510 C.ar      1 Q92         0.0076
      9 C14       129.0160 -101.3120   30.7310 C.ar      1 Q92        -0.0384
     10 C15       130.1390 -102.5650   28.3050 C.ar      1 Q92        -0.0393
     11 C2        130.1940 -102.6240   25.9050 C.ar      1 Q92        -0.0473
     12 C3        129.0750 -101.8160   25.8630 C.ar      1 Q92        -0.0574
     13 C4        128.4820 -101.3840   27.0360 C.ar      1 Q92        -0.0510
     14 C5        128.9990 -101.7600   28.2760 C.ar      1 Q92        -0.0124
     15 C6        128.3170 -101.3690   29.5370 C.ar      1 Q92        -0.0114
     16 C7        126.9480 -101.0910   29.5540 C.ar      1 Q92        -0.0480
     17 C8        126.2940 -100.7820   30.7080 C.ar      1 Q92        -0.0385
     18 C9        126.9870 -100.7300   31.9370 C.ar      1 Q92         0.0469
     19 O1        132.3380 -104.2950   28.3030 O.co2     1 Q92        -0.5606
     20 H1        126.4443 -100.1422   35.1268 H         1 Q92         0.0863
     21 H2        128.8452 -100.5870   35.2806 H         1 Q92         0.0693
     22 H3        130.1036 -101.1348   33.2453 H         1 Q92         0.0771
     23 H4        130.0811 -101.5137   30.7305 H         1 Q92         0.0658
     24 H5        130.5650 -102.8534   29.2591 H         1 Q92         0.0661
     25 H6        130.6501 -102.9636   24.9821 H         1 Q92         0.0653
     26 H7        128.6594 -101.5189   24.9069 H         1 Q92         0.0625
     27 H8        127.6064 -100.7466   26.9911 H         1 Q92         0.0646
     28 H9        126.3916 -101.1220   28.6242 H         1 Q92         0.0660
     29 H10       125.2305 -100.5738   30.6826 H         1 Q92         0.0644
@<TRIPOS>BOND
     1    1    5 ar 
     2   18    1 ar 
     3    2    3 ar 
     4    4    2 1  
     5    2   19 ar 
     6   10    4 ar 
     7    4   11 ar 
     8    6    5 ar 
     9    7    6 ar 
    10    8    7 ar 
    11    9    8 ar 
    12    8   18 ar 
    13   15    9 ar 
    14   14   10 ar 
    15   12   11 ar 
    16   13   12 ar 
    17   14   13 ar 
    18   14   15 1  
    19   15   16 ar 
    20   16   17 ar 
    21   17   18 ar 
    22    5   20 1  
    23    6   21 1  
    24    7   22 1  
    25    9   23 1  
    26   10   24 1  
    27   11   25 1  
    28   12   26 1  
    29   13   27 1  
    30   16   28 1  
    31   17   29 1  
@<TRIPOS>SUBSTRUCTURE
     1 Q92         1

