### 
### Created by X-TOOL on Wed Jan  1 15:39:36 2020
### 

@<TRIPOS>MOLECULE
5qay_ligand
   25    26     1     0     0
SMALL
GAST_HUCK


@<TRIPOS>ATOM
      1 N          14.2840  -90.8050  150.8660 N.pl3     1 X6P        -0.2755
      2 C          15.2070  -91.2820  149.8360 C.3       1 X6P         0.0420
      3 O          11.3110  -96.8690  149.8290 O.co2     1 X6P        -0.5607
      4 C1         12.9450  -91.1680  151.0400 C.2       1 X6P         0.0602
      5 C10        13.5340  -89.6820  152.6350 C.2       1 X6P        -0.0788
      6 C11        14.6230  -89.9060  151.8460 C.2       1 X6P         0.0201
      7 C2         12.2420  -92.1870  150.2410 C.ar      1 X6P        -0.0010
      8 C3         11.5640  -91.8940  149.0620 C.ar      1 X6P        -0.0548
      9 C4         10.9280  -92.9010  148.3550 C.ar      1 X6P        -0.0619
     10 C5         10.9550  -94.2030  148.8250 C.ar      1 X6P        -0.0514
     11 C6         11.6180  -94.5070  150.0090 C.ar      1 X6P         0.0068
     12 C7         11.5840  -95.8950  150.5890 C.2       1 X6P         0.0621
     13 C8         12.2690  -93.4960  150.7070 C.ar      1 X6P        -0.0430
     14 C9         12.4760  -90.4720  152.1330 C.2       1 X6P        -0.0732
     15 O1         11.8380  -95.9830  151.8050 O.co2     1 X6P        -0.5607
     16 H1         16.1883  -90.8043  149.9734 H         1 X6P         0.0580
     17 H2         14.8109  -91.0268  148.8420 H         1 X6P         0.0580
     18 H3         15.3159  -92.3735  149.9182 H         1 X6P         0.0580
     19 H4         13.4881  -89.0157  153.4952 H         1 X6P         0.0307
     20 H5         15.6022  -89.4465  151.9727 H         1 X6P         0.0853
     21 H6         11.5334  -90.8743  148.6955 H         1 X6P         0.0610
     22 H7         10.4083  -92.6694  147.4323 H         1 X6P         0.0614
     23 H8         10.4574  -94.9885  148.2679 H         1 X6P         0.0618
     24 H9         12.8016  -93.7306  151.6215 H         1 X6P         0.0625
     25 H10        11.4666  -90.5222  152.5387 H         1 X6P         0.0329
@<TRIPOS>BOND
     1    1    2 1  
     2    4    1 1  
     3    1    6 1  
     4   12    3 ar 
     5    7    4 1  
     6    4   14 2  
     7    5    6 2  
     8   14    5 1  
     9    8    7 ar 
    10    7   13 ar 
    11    9    8 ar 
    12   10    9 ar 
    13   11   10 ar 
    14   11   12 1  
    15   11   13 ar 
    16   12   15 ar 
    17    2   16 1  
    18    2   17 1  
    19    2   18 1  
    20    5   19 1  
    21    6   20 1  
    22    8   21 1  
    23    9   22 1  
    24   10   23 1  
    25   13   24 1  
    26   14   25 1  
@<TRIPOS>SUBSTRUCTURE
     1 X6P         1

