### 
### Created by X-TOOL on Wed Jan  1 15:39:37 2020
### 

@<TRIPOS>MOLECULE
5qaz_ligand
   28    30     1     0     0
SMALL
GAST_HUCK


@<TRIPOS>ATOM
      1 N          99.2620  245.2160    4.4890 N.pl3     1 Q2S        -0.2792
      2 C          95.8970  253.3960    5.5280 C.2       1 Q2S         0.0627
      3 O          96.8460  254.2100    5.6660 O.co2     1 Q2S        -0.5606
      4 C1         95.9660  252.1130    6.3190 C.ar      1 Q2S         0.0093
      5 C10       100.5510  245.5110    4.8500 C.2       1 Q2S         0.0218
      6 C11       100.5950  246.7230    5.4590 C.2       1 Q2S        -0.0634
      7 C12        99.2500  247.2260    5.4860 C.ar      1 Q2S        -0.0262
      8 C13        98.6430  248.3830    5.9730 C.ar      1 Q2S        -0.0663
      9 C14        96.5150  250.9670    5.7500 C.ar      1 Q2S        -0.0422
     10 C2         95.5150  252.0660    7.6340 C.ar      1 Q2S        -0.0489
     11 C3         95.6080  250.8910    8.3600 C.ar      1 Q2S        -0.0592
     12 C4         96.1550  249.7570    7.7860 C.ar      1 Q2S        -0.0539
     13 C5         96.6250  249.7780    6.4720 C.ar      1 Q2S        -0.0220
     14 C6         97.2640  248.5750    5.8650 C.ar      1 Q2S        -0.0335
     15 C7         96.4970  247.5850    5.2330 C.ar      1 Q2S        -0.0676
     16 C8         97.0710  246.4240    4.7360 C.ar      1 Q2S        -0.0418
     17 C9         98.4440  246.2540    4.8700 C.ar      1 Q2S         0.0648
     18 O1         94.8960  253.5870    4.7810 O.co2     1 Q2S        -0.5606
     19 H1         98.9558  244.3569    4.0104 H         1 Q2S         0.2273
     20 H2        101.4122  244.8681    4.6742 H         1 Q2S         0.0934
     21 H3        101.4810  247.2194    5.8522 H         1 Q2S         0.0287
     22 H4         99.2519  249.1465    6.4435 H         1 Q2S         0.0548
     23 H5         96.8644  250.9991    4.7244 H         1 Q2S         0.0645
     24 H6         95.0896  252.9519    8.0915 H         1 Q2S         0.0640
     25 H7         95.2506  250.8591    9.3829 H         1 Q2S         0.0621
     26 H8         96.2192  248.8419    8.3635 H         1 Q2S         0.0631
     27 H9         95.4278  247.7310    5.1303 H         1 Q2S         0.0539
     28 H10        96.4629  245.6669    4.2543 H         1 Q2S         0.0549
@<TRIPOS>BOND
     1    1    5 1  
     2   17    1 1  
     3    2    3 ar 
     4    4    2 1  
     5    2   18 ar 
     6    9    4 ar 
     7    4   10 ar 
     8    6    5 2  
     9    7    6 1  
    10    8    7 ar 
    11    7   17 ar 
    12   14    8 ar 
    13   13    9 ar 
    14   11   10 ar 
    15   12   11 ar 
    16   13   12 ar 
    17   13   14 1  
    18   14   15 ar 
    19   15   16 ar 
    20   16   17 ar 
    21    1   19 1  
    22    5   20 1  
    23    6   21 1  
    24    8   22 1  
    25    9   23 1  
    26   10   24 1  
    27   11   25 1  
    28   12   26 1  
    29   15   27 1  
    30   16   28 1  
@<TRIPOS>SUBSTRUCTURE
     1 Q2S         1

