### 
### Created by X-TOOL on Wed Jan  1 15:39:35 2020
### 

@<TRIPOS>MOLECULE
5qb0_ligand
   23    24     1     0     0
SMALL
GAST_HUCK


@<TRIPOS>ATOM
      1 C1         96.3100  250.9770    6.1670 C.ar      1 AVA         0.0127
      2 C2         96.5960  250.9160    7.5260 C.ar      1 AVA        -0.0364
      3 C3         96.6380  249.7010    8.2050 C.ar      1 AVA         0.0032
      4 C4         96.9710  249.6630    9.6500 C.ar      1 AVA         0.0531
      5 C5         98.2250  249.2700   10.1050 C.ar      1 AVA        -0.0270
      6 C6         98.4730  249.2840   11.4640 C.ar      1 AVA        -0.0422
      7 O1         97.2620  253.0770    5.6690 O.co2     1 AVA        -0.5606
      8 N          95.9960  250.0530   10.4890 N.ar      1 AVA        -0.2918
      9 C          96.2940  252.3110    5.4620 C.2       1 AVA         0.0634
     10 O          95.3060  252.5880    4.7230 O.co2     1 AVA        -0.5606
     11 C10        96.1030  248.5810    6.1350 C.ar      1 AVA        -0.0558
     12 C11        96.0670  249.7960    5.4740 C.ar      1 AVA        -0.0460
     13 C7         97.4840  249.6770   12.3320 C.ar      1 AVA        -0.0345
     14 C8         96.2680  250.0510   11.8030 C.ar      1 AVA         0.0099
     15 C9         96.3820  248.5320    7.4900 C.ar      1 AVA        -0.0482
     16 H1         96.7905  251.8339    8.0688 H         1 AVA         0.0674
     17 H2         98.9933  248.9586    9.4066 H         1 AVA         0.0715
     18 H3         99.4438  248.9862   11.8434 H         1 AVA         0.0735
     19 H4         95.9120  247.6639    5.5896 H         1 AVA         0.0629
     20 H5         95.8487  249.8274    4.4127 H         1 AVA         0.0664
     21 H6         97.6551  249.6925   13.4023 H         1 AVA         0.0705
     22 H7         95.4866  250.3613   12.4872 H         1 AVA         0.0826
     23 H8         96.4016  247.5756    7.9999 H         1 AVA         0.0660
@<TRIPOS>BOND
     1    1    2 ar 
     2    1    9 1  
     3    1   12 ar 
     4    2    3 ar 
     5    3    4 1  
     6    3   15 ar 
     7    4    5 ar 
     8    4    8 ar 
     9    5    6 ar 
    10    6   13 ar 
    11    9    7 ar 
    12    8   14 ar 
    13    9   10 ar 
    14   12   11 ar 
    15   11   15 ar 
    16   13   14 ar 
    17    2   16 1  
    18    5   17 1  
    19    6   18 1  
    20   11   19 1  
    21   12   20 1  
    22   13   21 1  
    23   14   22 1  
    24   15   23 1  
@<TRIPOS>SUBSTRUCTURE
     1 AVA         1

