### 
### Created by X-TOOL on Wed Jan  1 15:39:35 2020
### 

@<TRIPOS>MOLECULE
5qb1_ligand
   48    50     1     0     0
SMALL
GAST_HUCK


@<TRIPOS>ATOM
      1 N1         -4.3880   11.8160  128.0950 N.am      1 F1C        -0.2343
      2 C2         -7.2440    7.9920  122.3760 C.ar      1 F1C        -0.0400
      3 O2         -2.5930   11.8950  129.4850 O.2       1 F1C        -0.3852
      4 C4         -8.8540    7.5090  124.2250 C.ar      1 F1C        -0.0311
      5 C5         -9.3590    6.2870  123.7840 C.ar      1 F1C        -0.0692
      6 C7        -11.3950    6.6400  125.0100 C.ar      1 F1C        -0.0410
      7 C6        -10.6180    5.8600  124.1730 C.ar      1 F1C        -0.0746
      8 C8        -10.9060    7.8540  125.4730 C.ar      1 F1C         0.0665
      9 C          -5.7790    8.5900  120.4230 C.2       1 F1C         0.0631
     10 C1         -6.0310    8.4800  121.9070 C.ar      1 F1C         0.0115
     11 C10       -12.5980   10.4600  127.6300 C.3       1 F1C         0.0316
     12 C11        -9.6410    8.2770  125.0820 C.ar      1 F1C        -0.0340
     13 C12        -6.5990    8.5290  124.6190 C.ar      1 F1C        -0.0443
     14 C13        -5.3740    9.0220  124.1710 C.ar      1 F1C        -0.0174
     15 C14        -4.3960    9.6170  125.1120 C.ar      1 F1C        -0.0311
     16 C15        -3.0280    9.5340  124.8660 C.ar      1 F1C        -0.0692
     17 C16        -2.1220   10.1700  125.6930 C.ar      1 F1C        -0.0746
     18 C17        -2.5600   10.8960  126.7870 C.ar      1 F1C        -0.0410
     19 C18        -3.9190   10.9880  127.0510 C.ar      1 F1C         0.0665
     20 C19        -3.6820   12.3380  129.1250 C.2       1 F1C         0.2004
     21 C20        -4.3090   13.5330  129.7720 C.3       1 F1C         0.0316
     22 C21        -4.8260   10.3370  126.2250 C.ar      1 F1C        -0.0340
     23 C22        -5.0960    8.9830  122.8070 C.ar      1 F1C        -0.0400
     24 C3         -7.5480    8.0130  123.7360 C.ar      1 F1C        -0.0174
     25 C9        -11.4570    9.8440  126.8760 C.2       1 F1C         0.2004
     26 N         -11.7260    8.6370  126.3190 N.am      1 F1C        -0.2343
     27 O          -6.6110    8.0540  119.6540 O.co2     1 F1C        -0.5606
     28 O1        -10.3680   10.4020  126.7720 O.2       1 F1C        -0.3852
     29 O3         -4.7480    9.2030  120.0480 O.co2     1 F1C        -0.5606
     30 H1         -5.3612   12.0445  128.0700 H         1 F1C         0.2255
     31 H2         -7.9648    7.5889  121.6739 H         1 F1C         0.0658
     32 H3         -8.7600    5.6641  123.1296 H         1 F1C         0.0496
     33 H4        -12.3830    6.3044  125.3037 H         1 F1C         0.0505
     34 H5        -10.9968    4.9080  123.8190 H         1 F1C         0.0579
     35 H6        -12.2839   11.4304  128.0419 H         1 F1C         0.0472
     36 H7        -12.8974    9.7926  128.4516 H         1 F1C         0.0472
     37 H8        -13.4494   10.6088  126.9496 H         1 F1C         0.0472
     38 H9         -9.2590    9.2222  125.4505 H         1 F1C         0.0503
     39 H10        -6.8196    8.5471  125.6802 H         1 F1C         0.0650
     40 H11        -2.6698    8.9641  124.0163 H         1 F1C         0.0496
     41 H12        -1.0607   10.0999  125.4835 H         1 F1C         0.0579
     42 H13        -1.8447   11.3903  127.4344 H         1 F1C         0.0505
     43 H14        -3.6668   13.8846  130.5929 H         1 F1C         0.0472
     44 H15        -5.2965   13.2581  130.1710 H         1 F1C         0.0472
     45 H16        -4.4245   14.3346  129.0277 H         1 F1C         0.0472
     46 H17        -5.8852   10.3898  126.4496 H         1 F1C         0.0503
     47 H18        -4.1424    9.3478  122.4428 H         1 F1C         0.0658
     48 H19       -12.6222    8.2494  126.5348 H         1 F1C         0.2255
@<TRIPOS>BOND
     1   19    1 1  
     2    1   20 am 
     3    2   10 ar 
     4   24    2 ar 
     5   20    3 2  
     6    4    5 ar 
     7   12    4 ar 
     8    4   24 1  
     9    7    5 ar 
    10    6    7 ar 
    11    8    6 ar 
    12    8   12 ar 
    13   26    8 1  
    14   10    9 1  
    15    9   27 ar 
    16    9   29 ar 
    17   10   23 ar 
    18   25   11 1  
    19   13   14 ar 
    20   24   13 ar 
    21   14   15 1  
    22   14   23 ar 
    23   15   16 ar 
    24   15   22 ar 
    25   16   17 ar 
    26   17   18 ar 
    27   19   18 ar 
    28   22   19 ar 
    29   20   21 1  
    30   25   26 am 
    31   25   28 2  
    32    1   30 1  
    33    2   31 1  
    34    5   32 1  
    35    6   33 1  
    36    7   34 1  
    37   11   35 1  
    38   11   36 1  
    39   11   37 1  
    40   12   38 1  
    41   13   39 1  
    42   16   40 1  
    43   17   41 1  
    44   18   42 1  
    45   21   43 1  
    46   21   44 1  
    47   21   45 1  
    48   22   46 1  
    49   23   47 1  
    50   26   48 1  
@<TRIPOS>SUBSTRUCTURE
     1 F1C         1

