### 
### Created by X-TOOL on Wed Jan  1 15:39:35 2020
### 

@<TRIPOS>MOLECULE
5qb2_ligand
   44    48     1     0     0
SMALL
GAST_HUCK


@<TRIPOS>ATOM
      1 N          91.0270  247.9930    3.3440 N.ar      1 U3M        -0.2953
      2 C          92.9840  246.4270    4.5740 C.ar      1 U3M        -0.0346
      3 O          97.4220  254.9270    5.8030 O.co2     1 U3M        -0.5606
      4 C1         91.9100  245.8530    3.9690 C.ar      1 U3M        -0.0318
      5 C10        95.7830  251.7860    5.1450 C.ar      1 U3M        -0.0387
      6 C11        96.6030  252.7100    5.7680 C.ar      1 U3M         0.0124
      7 C12        96.6730  254.1090    5.2260 C.2       1 U3M         0.0632
      8 C13        95.9810  250.3190    7.0240 C.ar      1 U3M        -0.0423
      9 C14        96.8500  251.2150    7.6550 C.ar      1 U3M        -0.0108
     10 C15        97.1570  252.4090    7.0050 C.ar      1 U3M        -0.0385
     11 C16        97.2960  251.0050    9.0540 C.ar      1 U3M        -0.0115
     12 C17        96.5040  251.4440   10.1160 C.ar      1 U3M        -0.0481
     13 C18        96.9200  251.3450   11.4080 C.ar      1 U3M        -0.0453
     14 C19        98.5260  250.4410    9.3400 C.ar      1 U3M        -0.0319
     15 C2         90.9630  246.6710    3.3740 C.ar      1 U3M         0.0105
     16 C20        98.9900  250.3330   10.6700 C.ar      1 U3M         0.0467
     17 C21        98.1800  250.7970   11.7280 C.ar      1 U3M         0.0070
     18 C22       100.6760  249.7770   12.1400 C.ar      1 U3M         0.0102
     19 C23        99.9500  250.2200   13.2340 C.ar      1 U3M        -0.0318
     20 C24        98.7020  250.7210   13.0320 C.ar      1 U3M        -0.0346
     21 C3         92.0950  248.5860    3.9630 C.ar      1 U3M         0.0469
     22 C4         93.1060  247.8290    4.5930 C.ar      1 U3M         0.0076
     23 C5         92.1610  249.9940    4.0200 C.ar      1 U3M        -0.0385
     24 C6         93.1890  250.6120    4.6520 C.ar      1 U3M        -0.0480
     25 C7         94.2280  249.8910    5.2490 C.ar      1 U3M        -0.0113
     26 C8         94.1650  248.5110    5.2340 C.ar      1 U3M        -0.0384
     27 C9         95.4080  250.6100    5.7840 C.ar      1 U3M        -0.0112
     28 N1        100.2420  249.8140   10.8890 N.ar      1 U3M        -0.2959
     29 O1         95.9310  254.3700    4.2400 O.co2     1 U3M        -0.5606
     30 H1         93.7424  245.8079    5.0393 H         1 U3M         0.0771
     31 H2         91.7967  244.7751    3.9525 H         1 U3M         0.0693
     32 H3         95.4266  251.9828    4.1404 H         1 U3M         0.0665
     33 H4         95.7470  249.3778    7.5081 H         1 U3M         0.0657
     34 H5         97.8375  253.1121    7.4715 H         1 U3M         0.0665
     35 H6         95.5318  251.8752    9.9062 H         1 U3M         0.0648
     36 H7         96.2724  251.6930   12.2046 H         1 U3M         0.0655
     37 H8         99.1452  250.0752    8.5290 H         1 U3M         0.0646
     38 H9         90.1114  246.1959    2.9006 H         1 U3M         0.0863
     39 H10       101.6657  249.3730   12.3200 H         1 U3M         0.0865
     40 H11       100.3691  250.1682   14.2324 H         1 U3M         0.0692
     41 H12        98.1105  251.0612   13.8743 H         1 U3M         0.0771
     42 H13        91.3825  250.5873    3.5542 H         1 U3M         0.0644
     43 H14        93.2060  251.6950    4.6958 H         1 U3M         0.0660
     44 H15        94.9444  247.9391    5.7243 H         1 U3M         0.0658
@<TRIPOS>BOND
     1    1   15 ar 
     2   21    1 ar 
     3    2    4 ar 
     4   22    2 ar 
     5    7    3 ar 
     6    4   15 ar 
     7    5    6 ar 
     8   27    5 ar 
     9    6    7 1  
    10    6   10 ar 
    11    7   29 ar 
    12    8    9 ar 
    13   27    8 ar 
    14    9   10 ar 
    15    9   11 1  
    16   11   12 ar 
    17   11   14 ar 
    18   12   13 ar 
    19   13   17 ar 
    20   14   16 ar 
    21   16   17 ar 
    22   16   28 ar 
    23   17   20 ar 
    24   18   19 ar 
    25   28   18 ar 
    26   20   19 ar 
    27   22   21 ar 
    28   23   21 ar 
    29   26   22 ar 
    30   24   23 ar 
    31   25   24 ar 
    32   25   26 ar 
    33   25   27 1  
    34    2   30 1  
    35    4   31 1  
    36    5   32 1  
    37    8   33 1  
    38   10   34 1  
    39   12   35 1  
    40   13   36 1  
    41   14   37 1  
    42   15   38 1  
    43   18   39 1  
    44   19   40 1  
    45   20   41 1  
    46   23   42 1  
    47   24   43 1  
    48   26   44 1  
@<TRIPOS>SUBSTRUCTURE
     1 U3M         1

