### 
### Created by X-TOOL on Wed Jan  1 15:39:37 2020
### 

@<TRIPOS>MOLECULE
5qb3_ligand
   46    49     1     0     0
SMALL
GAST_HUCK


@<TRIPOS>ATOM
      1 O2         95.5840  253.8530    5.3360 O.co2     1 AVM        -0.5606
      2 C3         91.9130  247.6560    3.3830 C.ar      1 AVM         0.0665
      3 C4         90.6140  245.6210    2.8590 C.2       1 AVM         0.2004
      4 C5         90.3680  244.4610    3.7740 C.3       1 AVM         0.0316
      5 C12        97.2070  250.6190    5.5470 C.ar      1 AVM        -0.0387
      6 C13        96.1960  251.5670    5.4130 C.ar      1 AVM         0.0121
      7 C14        96.5060  253.0340    5.5650 C.2       1 AVM         0.0632
      8 C15        98.0410  248.2580    5.3250 C.ar      1 AVM        -0.0115
      9 C17        97.8730  247.0190    4.6960 C.ar      1 AVM        -0.0482
     10 C18        98.8600  246.0790    4.6920 C.ar      1 AVM        -0.0453
     11 C19       100.1000  246.3220    5.3270 C.ar      1 AVM         0.0070
     12 C20       100.2870  247.5690    5.9630 C.ar      1 AVM         0.0467
     13 C21       101.1710  245.4050    5.3600 C.ar      1 AVM        -0.0346
     14 C22       102.3310  245.7410    5.9890 C.ar      1 AVM        -0.0318
     15 C23       102.4300  246.9890    6.5850 C.ar      1 AVM         0.0102
     16 O1         97.6690  253.3490    5.9160 O.co2     1 AVM        -0.5606
     17 N          91.7630  246.2860    3.0960 N.am      1 AVM        -0.2343
     18 C          92.1650  250.1450    4.5710 C.ar      1 AVM        -0.0692
     19 O          89.7860  245.9880    2.0310 O.2       1 AVM        -0.3852
     20 C1         90.9280  249.7030    4.1350 C.ar      1 AVM        -0.0746
     21 C10        95.6660  248.8890    4.9520 C.ar      1 AVM        -0.0431
     22 C11        96.9580  249.2690    5.3040 C.ar      1 AVM        -0.0110
     23 C16        99.2440  248.5200    5.9520 C.ar      1 AVM        -0.0319
     24 C2         90.7990  248.4690    3.5250 C.ar      1 AVM        -0.0410
     25 C6         93.1590  248.1260    3.7630 C.ar      1 AVM        -0.0340
     26 C7         93.3010  249.3660    4.3810 C.ar      1 AVM        -0.0310
     27 C8         94.6360  249.8160    4.8210 C.ar      1 AVM        -0.0168
     28 C9         94.9160  251.1600    5.0580 C.ar      1 AVM        -0.0395
     29 N1        101.4640  247.8950    6.5910 N.ar      1 AVM        -0.2959
     30 H1         89.4144  243.9809    3.5091 H         1 AVM         0.0472
     31 H2         90.3228  244.8172    4.8137 H         1 AVM         0.0472
     32 H3         91.1861  243.7329    3.6711 H         1 AVM         0.0472
     33 H4         98.2005  250.9348    5.8441 H         1 AVM         0.0663
     34 H5         96.9342  246.8015    4.1995 H         1 AVM         0.0648
     35 H6         98.6919  245.1307    4.1945 H         1 AVM         0.0655
     36 H7        101.0710  244.4353    4.8859 H         1 AVM         0.0771
     37 H8        103.1618  245.0456    6.0232 H         1 AVM         0.0692
     38 H9        103.3613  247.2402    7.0796 H         1 AVM         0.0865
     39 H10        92.6033  245.7449    3.0643 H         1 AVM         0.2255
     40 H11        92.2489  251.1064    5.0647 H         1 AVM         0.0496
     41 H12        90.0538  250.3290    4.2728 H         1 AVM         0.0579
     42 H13        95.4559  247.8404    4.7747 H         1 AVM         0.0655
     43 H14        99.3897  249.4744    6.4450 H         1 AVM         0.0646
     44 H15        89.8330  248.1392    3.1601 H         1 AVM         0.0505
     45 H16        94.0377  247.5192    3.5765 H         1 AVM         0.0503
     46 H17        94.1262  251.8965    4.9644 H         1 AVM         0.0663
@<TRIPOS>BOND
     1    7    1 ar 
     2    2   17 1  
     3    2   24 ar 
     4   25    2 ar 
     5    3    4 1  
     6   17    3 am 
     7    3   19 2  
     8    5    6 ar 
     9   22    5 ar 
    10    6    7 1  
    11    6   28 ar 
    12    7   16 ar 
    13    8    9 ar 
    14   22    8 1  
    15    8   23 ar 
    16    9   10 ar 
    17   10   11 ar 
    18   12   11 ar 
    19   11   13 ar 
    20   23   12 ar 
    21   12   29 ar 
    22   13   14 ar 
    23   15   14 ar 
    24   29   15 ar 
    25   18   20 ar 
    26   26   18 ar 
    27   20   24 ar 
    28   21   22 ar 
    29   27   21 ar 
    30   26   25 ar 
    31   26   27 1  
    32   27   28 ar 
    33    4   30 1  
    34    4   31 1  
    35    4   32 1  
    36    5   33 1  
    37    9   34 1  
    38   10   35 1  
    39   13   36 1  
    40   14   37 1  
    41   15   38 1  
    42   17   39 1  
    43   18   40 1  
    44   20   41 1  
    45   21   42 1  
    46   23   43 1  
    47   24   44 1  
    48   25   45 1  
    49   28   46 1  
@<TRIPOS>SUBSTRUCTURE
     1 AVM         1

