### 
### Created by X-TOOL on Mon Sep 10 21:13:30 2018
### 

@<TRIPOS>MOLECULE
5qbv_ligand
   80    85     1     0     0
SMALL
GAST_HUCK


@<TRIPOS>ATOM
      1 C1         13.6670  -19.0670  -39.6380 C.ar      1 N2D         0.0113
      2 C2         12.8640  -18.3200  -40.4830 C.ar      1 N2D        -0.0393
      3 CL2        15.3240  -19.3320  -40.0790 Cl        1 N2D        -0.0883
      4 C3         11.5450  -18.1320  -40.0930 C.ar      1 N2D         0.0953
      5 CL3        16.4160   -6.9770  -42.5540 Cl        1 N2D        -0.0787
      6 C4         11.0620  -18.6630  -38.9250 C.ar      1 N2D         0.0945
      7 C5         11.8740  -19.4130  -38.0850 C.ar      1 N2D        -0.0523
      8 C6         13.1920  -19.6150  -38.4520 C.ar      1 N2D        -0.0762
      9 N13         9.7340  -18.3010  -38.8250 N.am      1 N2D        -0.2086
     10 C14         9.3640  -17.5460  -39.9140 C.2       1 N2D         0.3124
     11 N15        10.4830  -17.4420  -40.7000 N.am      1 N2D        -0.2024
     12 C22         8.8270  -18.6630  -37.7180 C.3       1 N2D         0.0442
     13 O24         8.2690  -17.0690  -40.1430 O.2       1 N2D        -0.3949
     14 C26        10.4220  -16.6850  -41.9470 C.3       1 N2D         0.0757
     15 C28        11.3950  -15.5270  -41.9930 C.3       1 N2D         0.0159
     16 C29        11.1760  -14.7140  -43.2510 C.3       1 N2D        -0.0293
     17 N30        11.2580  -15.5510  -44.4680 N.4       1 N2D         0.2355
     18 C31        10.2740  -16.6560  -44.4080 C.3       1 N2D        -0.0293
     19 C32        10.5020  -17.5260  -43.1830 C.3       1 N2D         0.0159
     20 C39        11.0250  -14.7300  -45.6580 C.3       1 N2D        -0.0290
     21 C41        12.2080  -14.6940  -46.5700 C.3       1 N2D         0.0191
     22 C43        12.4080  -13.3650  -47.2470 C.3       1 N2D         0.0909
     23 N45        13.7730  -12.9620  -47.2070 N.am      1 N2D        -0.1364
     24 N47        14.0200  -11.9110  -46.3480 N.2       1 N2D        -0.1427
     25 C48        15.2400  -11.4930  -46.2600 C.2       1 N2D         0.0877
     26 C49        16.2980  -12.0930  -47.0120 C.2       1 N2D        -0.0283
     27 C50        16.0390  -13.1190  -47.8410 C.2       1 N2D         0.0129
     28 C51        14.7260  -13.6250  -47.9860 C.2       1 N2D         0.2289
     29 C58        15.4950  -10.3780  -45.3510 C.ar      1 N2D        -0.0119
     30 C60        14.5920   -9.3260  -45.2110 C.ar      1 N2D        -0.0623
     31 C61        14.8790   -8.2770  -44.3450 C.ar      1 N2D        -0.0563
     32 C62        16.0670   -8.2930  -43.6270 C.ar      1 N2D         0.0409
     33 C63        16.9870   -9.3270  -43.7540 C.ar      1 N2D        -0.0092
     34 C64        16.6740  -10.3600  -44.6250 C.ar      1 N2D        -0.0525
     35 O71        14.4030  -14.5580  -48.7200 O.2       1 N2D        -0.4104
     36 C75        18.2730   -9.3420  -42.9740 C.3       1 N2D         0.0640
     37 N77        18.2600  -10.3500  -41.9130 N.am      1 N2D        -0.2748
     38 C79        19.1890  -11.3050  -41.8180 C.2       1 N2D         0.2068
     39 C81        19.0610  -12.2630  -40.6780 C.ar      1 N2D         0.0500
     40 C83        20.1980  -12.5780  -39.9350 C.ar      1 N2D        -0.0419
     41 C84        20.1220  -13.4570  -38.8700 C.ar      1 N2D        -0.0562
     42 C85        18.9140  -14.0360  -38.5320 C.ar      1 N2D        -0.0575
     43 C86        17.7790  -13.7310  -39.2600 C.ar      1 N2D        -0.0562
     44 C87        17.8480  -12.8480  -40.3290 C.ar      1 N2D        -0.0419
     45 O94        20.1140  -11.4020  -42.6220 O.2       1 N2D        -0.3845
     46 H1         13.2475  -17.9013  -41.4064 H         1 N2D         0.0465
     47 H2         11.4843  -19.8303  -37.1636 H         1 N2D         0.0461
     48 H3         13.8510  -20.1974  -37.8184 H         1 N2D         0.0460
     49 H4          9.3732  -19.2683  -36.9795 H         1 N2D         0.0549
     50 H5          7.9798  -19.2429  -38.1128 H         1 N2D         0.0549
     51 H6          8.4523  -17.7476  -37.2367 H         1 N2D         0.0549
     52 H7          9.4192  -16.2331  -41.9623 H         1 N2D         0.0625
     53 H8         12.4240  -15.9157  -41.9855 H         1 N2D         0.0344
     54 H9         11.2390  -14.8853  -41.1133 H         1 N2D         0.0344
     55 H10        11.9450  -13.9294  -43.3062 H         1 N2D         0.0815
     56 H11        10.1802  -14.2489  -43.2054 H         1 N2D         0.0815
     57 H12        12.1831  -15.9472  -44.5246 H         1 N2D         0.2033
     58 H13        10.3735  -17.2751  -45.3118 H         1 N2D         0.0815
     59 H14         9.2600  -16.2320  -44.3637 H         1 N2D         0.0815
     60 H15         9.7317  -18.3102  -43.1426 H         1 N2D         0.0344
     61 H16        11.4966  -17.9918  -43.2450 H         1 N2D         0.0344
     62 H17        10.7949  -13.7029  -45.3383 H         1 N2D         0.0815
     63 H18        10.1674  -15.1433  -46.2091 H         1 N2D         0.0815
     64 H19        12.0724  -15.4621  -47.3456 H         1 N2D         0.0347
     65 H20        13.1082  -14.9227  -45.9807 H         1 N2D         0.0347
     66 H21        11.7960  -12.6072  -46.7359 H         1 N2D         0.0664
     67 H22        12.0895  -13.4465  -48.2967 H         1 N2D         0.0664
     68 H23        17.3156  -11.7180  -46.9129 H         1 N2D         0.0731
     69 H24        16.8523  -13.5675  -48.4096 H         1 N2D         0.0609
     70 H25        13.6672   -9.3256  -45.7765 H         1 N2D         0.0547
     71 H26        14.1819   -7.4546  -44.2315 H         1 N2D         0.0600
     72 H27        17.3744  -11.1791  -44.7411 H         1 N2D         0.0538
     73 H28        18.4247   -8.3514  -42.5206 H         1 N2D         0.0684
     74 H29        19.1029   -9.5614  -43.6619 H         1 N2D         0.0684
     75 H30        17.5273  -10.3227  -41.2329 H         1 N2D         0.1872
     76 H31        21.1503  -12.1298  -40.1945 H         1 N2D         0.0669
     77 H32        21.0128  -13.6923  -38.2988 H         1 N2D         0.0629
     78 H33        18.8563  -14.7271  -37.6988 H         1 N2D         0.0653
     79 H34        16.8304  -14.1836  -38.9948 H         1 N2D         0.0629
     80 H35        16.9531  -12.6134  -40.8940 H         1 N2D         0.0669
@<TRIPOS>BOND
     1    2    1 ar 
     2    1    3 1  
     3    1    8 ar 
     4    4    2 ar 
     5    4    6 ar 
     6   11    4 1  
     7   32    5 1  
     8    6    7 ar 
     9    9    6 1  
    10    7    8 ar 
    11   10    9 am 
    12    9   12 1  
    13   11   10 am 
    14   10   13 2  
    15   14   11 1  
    16   15   14 1  
    17   19   14 1  
    18   16   15 1  
    19   17   16 1  
    20   17   18 1  
    21   20   17 1  
    22   18   19 1  
    23   21   20 1  
    24   22   21 1  
    25   23   22 1  
    26   24   23 1  
    27   23   28 am 
    28   25   24 2  
    29   25   26 1  
    30   29   25 1  
    31   26   27 2  
    32   27   28 1  
    33   28   35 2  
    34   30   29 ar 
    35   29   34 ar 
    36   31   30 ar 
    37   31   32 ar 
    38   32   33 ar 
    39   33   34 ar 
    40   33   36 1  
    41   36   37 1  
    42   37   38 am 
    43   38   39 1  
    44   38   45 2  
    45   39   40 ar 
    46   39   44 ar 
    47   40   41 ar 
    48   41   42 ar 
    49   42   43 ar 
    50   43   44 ar 
    51    2   46 1  
    52    7   47 1  
    53    8   48 1  
    54   12   49 1  
    55   12   50 1  
    56   12   51 1  
    57   14   52 1  
    58   15   53 1  
    59   15   54 1  
    60   16   55 1  
    61   16   56 1  
    62   17   57 1  
    63   18   58 1  
    64   18   59 1  
    65   19   60 1  
    66   19   61 1  
    67   20   62 1  
    68   20   63 1  
    69   21   64 1  
    70   21   65 1  
    71   22   66 1  
    72   22   67 1  
    73   26   68 1  
    74   27   69 1  
    75   30   70 1  
    76   31   71 1  
    77   34   72 1  
    78   36   73 1  
    79   36   74 1  
    80   37   75 1  
    81   40   76 1  
    82   41   77 1  
    83   42   78 1  
    84   43   79 1  
    85   44   80 1  
@<TRIPOS>SUBSTRUCTURE
     1 N2D         1

