### 
### Created by X-TOOL on Mon Sep 10 21:13:31 2018
### 

@<TRIPOS>MOLECULE
5qby_ligand
   80    85     1     0     0
SMALL
GAST_HUCK


@<TRIPOS>ATOM
      1 C1         13.8510  -19.5270  -39.3170 C.ar      1 N2A         0.0113
      2 C2         13.0810  -18.7680  -40.1650 C.ar      1 N2A        -0.0393
      3 C3         11.7790  -18.5140  -39.7870 C.ar      1 N2A         0.0953
      4 C4         11.2520  -18.9930  -38.6100 C.ar      1 N2A         0.0945
      5 C5         12.0270  -19.7620  -37.7430 C.ar      1 N2A        -0.0523
      6 C6         13.3500  -20.0350  -38.1100 C.ar      1 N2A        -0.0762
      7 N13         9.9240  -18.5470  -38.5470 N.am      1 N2A        -0.2086
      8 C14         9.6240  -17.8150  -39.6480 C.2       1 N2A         0.3124
      9 N15        10.7920  -17.8030  -40.4180 N.am      1 N2A        -0.2024
     10 C20        10.8830  -17.0960  -41.6900 C.3       1 N2A         0.0757
     11 C22         8.9920  -18.8060  -37.4910 C.3       1 N2A         0.0442
     12 CL24       15.4970  -19.8690  -39.7810 Cl        1 N2A        -0.0883
     13 C26        10.0330  -17.6930  -42.7400 C.3       1 N2A         0.0159
     14 C27         9.6260  -16.6590  -43.7490 C.3       1 N2A        -0.0293
     15 N28        10.6740  -15.6650  -43.9500 N.4       1 N2A         0.2354
     16 C29        10.8620  -14.8480  -42.7360 C.3       1 N2A        -0.0293
     17 C30        10.6230  -15.6270  -41.4840 C.3       1 N2A         0.0159
     18 C37        10.4210  -14.8850  -45.1740 C.3       1 N2A        -0.0291
     19 C39        10.2030  -13.3930  -45.0270 C.3       1 N2A         0.0178
     20 C41        10.6680  -12.7590  -46.2770 C.3       1 N2A         0.0794
     21 N43        12.1570  -12.5140  -46.2720 N.am      1 N2A        -0.1813
     22 C45        12.6280  -11.4740  -45.4930 C.2       1 N2A         0.2278
     23 C46        14.0950  -11.2850  -45.5480 C.2       1 N2A         0.0563
     24 C47        14.8480  -12.1350  -46.3290 C.2       1 N2A         0.0013
     25 N48        14.2690  -13.1570  -47.0760 N.2       1 N2A        -0.2813
     26 C49        12.9880  -13.2930  -47.0120 C.2       1 N2A         0.1422
     27 O56        11.8350  -10.7990  -44.8350 O.2       1 N2A        -0.4024
     28 O58         8.5550  -17.2890  -39.8960 O.2       1 N2A        -0.3949
     29 C60        14.7260  -10.2340  -44.7810 C.ar      1 N2A        -0.0303
     30 C62        14.0580   -9.0520  -44.5240 C.ar      1 N2A        -0.0673
     31 C63        14.6540   -8.0580  -43.7930 C.ar      1 N2A        -0.0590
     32 C64        15.9250   -8.2400  -43.3070 C.ar      1 N2A         0.0382
     33 C65        16.6410   -9.4040  -43.5370 C.ar      1 N2A        -0.0121
     34 C66        16.0190  -10.4020  -44.2790 C.ar      1 N2A        -0.0577
     35 CL73       16.6360   -6.9550  -42.3870 Cl        1 N2A        -0.0808
     36 C75        18.0260   -9.5930  -43.0060 C.3       1 N2A         0.0633
     37 N77        18.0600  -10.5250  -41.9140 N.am      1 N2A        -0.2754
     38 C79        19.0320  -11.4190  -41.7580 C.2       1 N2A         0.2037
     39 O81        19.9730  -11.5170  -42.5330 O.2       1 N2A        -0.3864
     40 C83        18.9310  -12.3070  -40.5980 C.ar      1 N2A         0.0458
     41 C85        20.0560  -12.5860  -39.8370 C.ar      1 N2A        -0.0437
     42 C86        19.9690  -13.4220  -38.7430 C.ar      1 N2A        -0.0223
     43 C87        18.7460  -13.9630  -38.4360 C.ar      1 N2A         0.1375
     44 C88        17.6160  -13.7170  -39.1580 C.ar      1 N2A        -0.0223
     45 C89        17.7140  -12.8840  -40.2430 C.ar      1 N2A        -0.0437
     46 F96        18.6590  -14.7840  -37.3650 F         1 N2A        -0.1794
     47 H1         13.4816  -18.3834  -41.0959 H         1 N2A         0.0465
     48 H2         11.6172  -20.1374  -36.8123 H         1 N2A         0.0461
     49 H3         13.9826  -20.6348  -37.4657 H         1 N2A         0.0460
     50 H4         11.9219  -17.1924  -42.0385 H         1 N2A         0.0625
     51 H5          9.4761  -19.4198  -36.7171 H         1 N2A         0.0549
     52 H6          8.1213  -19.3439  -37.8941 H         1 N2A         0.0549
     53 H7          8.6628  -17.8533  -37.0506 H         1 N2A         0.0549
     54 H8          9.1310  -18.1179  -42.2754 H         1 N2A         0.0344
     55 H9         10.5945  -18.4909  -43.2480 H         1 N2A         0.0344
     56 H10         8.7164  -16.1523  -43.3942 H         1 N2A         0.0815
     57 H11         9.4180  -17.1574  -44.7073 H         1 N2A         0.0815
     58 H12        11.5373  -16.1638  -44.0984 H         1 N2A         0.2033
     59 H13        10.1585  -14.0030  -42.7662 H         1 N2A         0.0815
     60 H14        11.8935  -14.4661  -42.7232 H         1 N2A         0.0815
     61 H15        11.2934  -15.2523  -40.6965 H         1 N2A         0.0344
     62 H16         9.5773  -15.4894  -41.1716 H         1 N2A         0.0344
     63 H17         9.5215  -15.3029  -45.6496 H         1 N2A         0.0815
     64 H18        11.2863  -15.0264  -45.8382 H         1 N2A         0.0815
     65 H19        10.7804  -13.0100  -44.1727 H         1 N2A         0.0346
     66 H20         9.1347  -13.1816  -44.8719 H         1 N2A         0.0346
     67 H21        10.1509  -11.7959  -46.3994 H         1 N2A         0.0649
     68 H22        10.4203  -13.4182  -47.1220 H         1 N2A         0.0649
     69 H23        15.9285  -12.0031  -46.3627 H         1 N2A         0.0873
     70 H24        12.5379  -14.0942  -47.5963 H         1 N2A         0.1574
     71 H25        13.0529   -8.9097  -44.9043 H         1 N2A         0.0523
     72 H26        14.1244   -7.1322  -43.5993 H         1 N2A         0.0593
     73 H27        16.5476  -11.3285  -44.4717 H         1 N2A         0.0512
     74 H28        18.4082   -8.6225  -42.6568 H         1 N2A         0.0683
     75 H29        18.6684   -9.9704  -43.8153 H         1 N2A         0.0683
     76 H30        17.3203  -10.5007  -41.2414 H         1 N2A         0.1871
     77 H31        21.0096  -12.1446  -40.1033 H         1 N2A         0.0659
     78 H32        20.8432  -13.6454  -38.1422 H         1 N2A         0.0616
     79 H33        16.6687  -14.1663  -38.8827 H         1 N2A         0.0616
     80 H34        16.8303  -12.6713  -40.8337 H         1 N2A         0.0659
@<TRIPOS>BOND
     1    1    2 ar 
     2    1    6 ar 
     3    1   12 1  
     4    2    3 ar 
     5    3    4 ar 
     6    3    9 1  
     7    4    5 ar 
     8    4    7 1  
     9    5    6 ar 
    10    7    8 am 
    11    7   11 1  
    12    8    9 am 
    13    8   28 2  
    14    9   10 1  
    15   10   13 1  
    16   10   17 1  
    17   13   14 1  
    18   14   15 1  
    19   15   16 1  
    20   15   18 1  
    21   16   17 1  
    22   18   19 1  
    23   19   20 1  
    24   20   21 1  
    25   21   22 am 
    26   21   26 1  
    27   22   23 1  
    28   22   27 2  
    29   23   24 2  
    30   23   29 1  
    31   24   25 1  
    32   25   26 2  
    33   29   30 ar 
    34   29   34 ar 
    35   30   31 ar 
    36   31   32 ar 
    37   32   33 ar 
    38   32   35 1  
    39   33   34 ar 
    40   33   36 1  
    41   36   37 1  
    42   37   38 am 
    43   38   39 2  
    44   38   40 1  
    45   40   41 ar 
    46   40   45 ar 
    47   41   42 ar 
    48   42   43 ar 
    49   43   44 ar 
    50   43   46 1  
    51   44   45 ar 
    52    2   47 1  
    53    5   48 1  
    54    6   49 1  
    55   10   50 1  
    56   11   51 1  
    57   11   52 1  
    58   11   53 1  
    59   13   54 1  
    60   13   55 1  
    61   14   56 1  
    62   14   57 1  
    63   15   58 1  
    64   16   59 1  
    65   16   60 1  
    66   17   61 1  
    67   17   62 1  
    68   18   63 1  
    69   18   64 1  
    70   19   65 1  
    71   19   66 1  
    72   20   67 1  
    73   20   68 1  
    74   24   69 1  
    75   26   70 1  
    76   30   71 1  
    77   31   72 1  
    78   34   73 1  
    79   36   74 1  
    80   36   75 1  
    81   37   76 1  
    82   41   77 1  
    83   42   78 1  
    84   44   79 1  
    85   45   80 1  
@<TRIPOS>SUBSTRUCTURE
     1 N2A         1

