### 
### Created by X-TOOL on Mon Sep 10 21:13:31 2018
### 

@<TRIPOS>MOLECULE
5qc4_ligand
   90    94     1     0     0
SMALL
GAST_HUCK


@<TRIPOS>ATOM
      1 C1          8.6560   -6.6430   12.0850 C.2       1 BC7         0.1765
      2 C4          7.8670   -5.4360   14.0980 C.3       1 BC7         0.0467
      3 C5          6.4080   -5.1320   14.4160 C.3       1 BC7         0.0262
      4 C6          5.7940   -4.3170   13.3210 C.2       1 BC7         0.0766
      5 C8          7.8010   -4.3440   11.8760 C.3       1 BC7         0.0526
      6 C9          5.4480   -3.1970   11.4590 C.2       1 BC7         0.0531
      7 C12         3.4990   -3.8880   14.2510 C.3       1 BC7         0.1015
      8 C13         3.4160   -2.5410   14.9550 C.3       1 BC7         0.1240
      9 C15         2.0280   -2.2530   15.4820 C.3       1 BC7        -0.0024
     10 C17         2.0310   -1.0350   17.5890 C.3       1 BC7        -0.0315
     11 C19         1.6960    1.4600   17.6200 C.3       1 BC7        -0.0031
     12 C18         1.3440    0.1210   18.2770 C.3       1 BC7        -0.0069
     13 C20         2.9100    1.2690   16.6970 C.3       1 BC7        -0.0069
     14 C22         1.8600    2.6170   18.6520 C.3       1 BC7         0.0637
     15 C23         5.5800   -2.5530   10.1430 C.ar      1 BC7         0.0048
     16 C24         4.6300   -2.7050    9.1410 C.ar      1 BC7        -0.0340
     17 C25         4.8000   -2.0870    7.9180 C.ar      1 BC7        -0.0399
     18 C26         5.9160   -1.3020    7.6570 C.ar      1 BC7         0.0516
     19 C27         6.8850   -1.1520    8.6790 C.ar      1 BC7         0.0493
     20 C28         6.7020   -1.7790    9.9060 C.ar      1 BC7        -0.0147
     21 C21         2.6820    0.1720   15.6150 C.3       1 BC7        -0.0315
     22 C30         8.2890    0.8480    9.9400 C.3       1 BC7         0.1026
     23 C31         9.4890    1.7780    9.9990 C.2       1 BC7         0.1916
     24 C34         8.6180    2.7330   12.1530 C.3       1 BC7         0.0340
     25 C35         8.8430    4.1920   12.7060 C.3       1 BC7        -0.0307
     26 C36        10.0390    4.7580   11.9270 C.3       1 BC7        -0.0307
     27 C37        10.6910    3.5750   11.2220 C.3       1 BC7         0.0340
     28 C38         6.0720   -0.6530    6.3070 C.3       1 BC7         0.3625
     29 C43         8.9580   -7.8090   12.9910 C.3       1 BC7         0.0259
     30 C44         2.9890    2.3450   19.6260 C.3       1 BC7        -0.0361
     31 C45         0.5650    2.8690   19.4090 C.3       1 BC7        -0.0361
     32 C7          6.4130   -3.9550   12.1810 C.2       1 BC7         0.0057
     33 F39         7.2060   -1.0090    5.6940 F         1 BC7        -0.2349
     34 F40         5.1170   -0.9600    5.4980 F         1 BC7        -0.2349
     35 F41         6.0890    0.6540    6.3550 F         1 BC7        -0.2349
     36 N10         4.3000   -3.0990   12.1330 N.2       1 BC7        -0.2092
     37 N11         4.5380   -3.8090   13.2770 N.pl3     1 BC7        -0.2009
     38 N16         1.8730   -0.9410   16.1380 N.4       1 BC7         0.2371
     39 N3          8.1360   -5.5230   12.6470 N.am      1 BC7        -0.2668
     40 N33         9.5830    2.6280   11.0510 N.am      1 BC7        -0.2724
     41 O14         4.4400   -2.4760   15.9610 O.3       1 BC7        -0.3836
     42 O2          8.8730   -6.6980   10.8810 O.2       1 BC7        -0.3971
     43 O32        10.3340    1.7430    9.1130 O.2       1 BC7        -0.3957
     44 O42         2.2040    3.8270   17.9470 O.3       1 BC7        -0.3888
     45 S29         8.3390   -0.1800    8.4550 S.3       1 BC7        -0.0550
     46 H1          8.1341   -6.3968   14.5622 H         1 BC7         0.0547
     47 H2          8.4922   -4.6370   14.5231 H         1 BC7         0.0547
     48 H3          6.3522   -4.5707   15.3604 H         1 BC7         0.0469
     49 H4          5.8547   -6.0772   14.5180 H         1 BC7         0.0469
     50 H5          8.4821   -3.5224   12.1424 H         1 BC7         0.0599
     51 H6          7.8955   -4.5652   10.8026 H         1 BC7         0.0599
     52 H7          2.5412   -4.1123   13.7587 H         1 BC7         0.0667
     53 H8          3.7300   -4.6779   14.9809 H         1 BC7         0.0667
     54 H9          3.6386   -1.7625   14.2105 H         1 BC7         0.0677
     55 H10         1.7715   -3.0333   16.2136 H         1 BC7         0.0841
     56 H11         1.3254   -2.2976   14.6368 H         1 BC7         0.0841
     57 H12         1.5883   -1.9788   17.9400 H         1 BC7         0.0814
     58 H13         3.1025   -1.0179   17.8373 H         1 BC7         0.0814
     59 H14         0.8472    1.7390   16.9784 H         1 BC7         0.0332
     60 H15         1.6587    0.1471   19.3307 H         1 BC7         0.0320
     61 H16         0.2554   -0.0276   18.2229 H         1 BC7         0.0320
     62 H17         3.7761    0.9815   17.3112 H         1 BC7         0.0320
     63 H18         3.1197    2.2229   16.1909 H         1 BC7         0.0320
     64 H19         3.7501   -3.3123    9.3202 H         1 BC7         0.0645
     65 H20         4.0488   -2.2168    7.1473 H         1 BC7         0.0806
     66 H21         7.4461   -1.6603   10.6853 H         1 BC7         0.0625
     67 H22         3.6579   -0.2175   15.2895 H         1 BC7         0.0814
     68 H23         2.1609    0.6199   14.7560 H         1 BC7         0.0814
     69 H24         7.3680    1.4493    9.9303 H         1 BC7         0.0652
     70 H25         8.2934    0.1982   10.8276 H         1 BC7         0.0652
     71 H26         7.5885    2.6063   11.7867 H         1 BC7         0.0522
     72 H27         8.8259    1.9823   12.9297 H         1 BC7         0.0522
     73 H28         9.0670    4.1628   13.7825 H         1 BC7         0.0285
     74 H29         7.9483    4.8084   12.5342 H         1 BC7         0.0285
     75 H30        10.7534    5.2306   12.6171 H         1 BC7         0.0285
     76 H31         9.6966    5.4989   11.1895 H         1 BC7         0.0285
     77 H32        11.4892    3.1392   11.8408 H         1 BC7         0.0522
     78 H33        11.1049    3.8764   10.2484 H         1 BC7         0.0522
     79 H34         9.3713   -8.6375   12.3970 H         1 BC7         0.0467
     80 H35         8.0323   -8.1385   13.4855 H         1 BC7         0.0467
     81 H36         9.6909   -7.5021   13.7517 H         1 BC7         0.0467
     82 H37         3.0714    3.1821   20.3348 H         1 BC7         0.0257
     83 H38         3.9335    2.2392   19.0722 H         1 BC7         0.0257
     84 H39         2.7815    1.4164   20.1779 H         1 BC7         0.0257
     85 H40        -0.2463    3.0650   18.6925 H         1 BC7         0.0257
     86 H41         0.6896    3.7401   20.0690 H         1 BC7         0.0257
     87 H42         0.3151    1.9842   20.0128 H         1 BC7         0.0257
     88 H43         0.9146   -0.6767   15.9715 H         1 BC7         0.2034
     89 H44         4.2562   -3.1145   16.6400 H         1 BC7         0.2102
     90 H45         1.5184    4.0343   17.3229 H         1 BC7         0.2101
@<TRIPOS>BOND
     1    1   29 1  
     2   39    1 am 
     3    1   42 2  
     4    3    2 1  
     5   39    2 1  
     6    4    3 1  
     7   32    4 2  
     8    4   37 1  
     9   32    5 1  
    10    5   39 1  
    11   15    6 1  
    12    6   32 1  
    13    6   36 2  
    14    7    8 1  
    15   37    7 1  
    16    8    9 1  
    17    8   41 1  
    18    9   38 1  
    19   10   12 1  
    20   38   10 1  
    21   12   11 1  
    22   13   11 1  
    23   11   14 1  
    24   21   13 1  
    25   14   30 1  
    26   14   31 1  
    27   14   44 1  
    28   15   16 ar 
    29   20   15 ar 
    30   17   16 ar 
    31   18   17 ar 
    32   19   18 ar 
    33   18   28 1  
    34   19   20 ar 
    35   45   19 1  
    36   38   21 1  
    37   23   22 1  
    38   22   45 1  
    39   40   23 am 
    40   23   43 2  
    41   24   25 1  
    42   24   40 1  
    43   25   26 1  
    44   26   27 1  
    45   27   40 1  
    46   28   33 1  
    47   28   34 1  
    48   28   35 1  
    49   36   37 1  
    50    2   46 1  
    51    2   47 1  
    52    3   48 1  
    53    3   49 1  
    54    5   50 1  
    55    5   51 1  
    56    7   52 1  
    57    7   53 1  
    58    8   54 1  
    59    9   55 1  
    60    9   56 1  
    61   10   57 1  
    62   10   58 1  
    63   11   59 1  
    64   12   60 1  
    65   12   61 1  
    66   13   62 1  
    67   13   63 1  
    68   16   64 1  
    69   17   65 1  
    70   20   66 1  
    71   21   67 1  
    72   21   68 1  
    73   22   69 1  
    74   22   70 1  
    75   24   71 1  
    76   24   72 1  
    77   25   73 1  
    78   25   74 1  
    79   26   75 1  
    80   26   76 1  
    81   27   77 1  
    82   27   78 1  
    83   29   79 1  
    84   29   80 1  
    85   29   81 1  
    86   30   82 1  
    87   30   83 1  
    88   30   84 1  
    89   31   85 1  
    90   31   86 1  
    91   31   87 1  
    92   38   88 1  
    93   41   89 1  
    94   44   90 1  
@<TRIPOS>SUBSTRUCTURE
     1 BC7         1

