### 
### Created by X-TOOL on Mon Sep 10 21:13:32 2018
### 

@<TRIPOS>MOLECULE
5qck_ligand
   61    65     1     0     0
SMALL
GAST_HUCK


@<TRIPOS>ATOM
      1 N14        40.1560  -15.6590   26.7520 N.2       1 BUV        -0.0466
      2 C18        40.3840  -21.4220   29.1820 C.3       1 BUV         0.1509
      3 C15        39.2140  -19.2590   29.3420 C.2       1 BUV         0.1934
      4 C19        40.2130  -22.6470   28.2320 C.3       1 BUV         0.0354
      5 C20        38.9400  -22.3050   27.4390 C.3       1 BUV        -0.0156
      6 C21        38.9250  -20.7970   27.3660 C.3       1 BUV         0.0379
      7 C22        41.8510  -20.9870   29.1420 C.2       1 BUV         0.2327
      8 C23        40.2580  -24.0450   28.8060 C.ar      1 BUV        -0.0354
      9 C24        40.5070  -24.2860   30.1510 C.ar      1 BUV        -0.0599
     10 C11        38.9330  -15.1970   25.0160 C.2       1 BUV         0.1690
     11 C34        46.7090  -21.5630   31.0410 C.ar      1 BUV        -0.0055
     12 C27        40.2660  -26.4240   28.4210 C.ar      1 BUV        -0.0685
     13 C33        46.2830  -21.0480   29.8140 C.ar      1 BUV        -0.0612
     14 CL1        34.2060  -14.4520   29.8690 Cl        1 BUV        -0.0754
     15 C2         37.1290  -13.8520   27.2120 C.ar      1 BUV        -0.0176
     16 C3         35.9980  -13.6810   27.9940 C.ar      1 BUV        -0.0476
     17 C4         35.6300  -14.6750   28.8780 C.ar      1 BUV         0.0380
     18 C5         36.3740  -15.8310   29.0140 C.ar      1 BUV        -0.0382
     19 C6         37.5430  -15.9960   28.2610 C.ar      1 BUV         0.0262
     20 C7         37.8870  -15.0160   27.3120 C.ar      1 BUV         0.1410
     21 N8         38.9290  -15.2400   26.3550 N.pl3     1 BUV        -0.0913
     22 C9         38.4580  -17.0630   28.6720 C.2       1 BUV        -0.0388
     23 C10        38.2070  -18.3410   28.7700 C.2       1 BUV         0.0073
     24 N12        40.0930  -15.5910   24.5660 N.2       1 BUV        -0.2058
     25 N13        40.8370  -15.8710   25.6690 N.2       1 BUV        -0.1365
     26 O16        39.8170  -19.0020   30.3840 O.2       1 BUV        -0.3925
     27 N17        39.4800  -20.4080   28.6630 N.am      1 BUV        -0.2514
     28 C25        40.6380  -25.5770   30.6210 C.ar      1 BUV        -0.0685
     29 C26        40.5270  -26.6480   29.7560 C.ar      1 BUV        -0.0687
     30 C28        40.1280  -25.1320   27.9480 C.ar      1 BUV        -0.0599
     31 O29        42.3100  -20.3990   28.1660 O.2       1 BUV        -0.3815
     32 N30        42.5720  -21.3890   30.2190 N.am      1 BUV        -0.2299
     33 C31        43.9770  -21.4020   30.4250 C.ar      1 BUV         0.0697
     34 C32        44.9330  -20.9720   29.5060 C.ar      1 BUV        -0.0373
     35 C35        45.7440  -21.9780   31.9560 C.ar      1 BUV        -0.0612
     36 C36        44.3960  -21.9010   31.6540 C.ar      1 BUV        -0.0373
     37 C37        48.1630  -21.6830   31.3800 C.2       1 BUV         0.0528
     38 O38        48.5450  -22.2360   32.4180 O.co2     1 BUV        -0.5648
     39 O39        48.9890  -21.2120   30.4840 O.co2     1 BUV        -0.5648
     40 H1         40.1067  -21.6817   30.2143 H         1 BUV         0.0832
     41 H2         41.0572  -22.6160   27.5274 H         1 BUV         0.0510
     42 H3         38.0463  -22.6766   27.9616 H         1 BUV         0.0312
     43 H4         38.9828  -22.7414   26.4302 H         1 BUV         0.0312
     44 H5         37.9006  -20.4158   27.2422 H         1 BUV         0.0524
     45 H6         39.5539  -20.4333   26.5400 H         1 BUV         0.0524
     46 H7         40.5993  -23.4525   30.8379 H         1 BUV         0.0557
     47 H8         38.0949  -14.8810   24.3966 H         1 BUV         0.1430
     48 H9         40.1688  -27.2624   27.7407 H         1 BUV         0.0599
     49 H10        47.0166  -20.7037   29.0941 H         1 BUV         0.0611
     50 H11        37.4259  -13.0744   26.5176 H         1 BUV         0.0602
     51 H12        35.4080  -12.7753   27.9123 H         1 BUV         0.0635
     52 H13        36.0544  -16.6067   29.7004 H         1 BUV         0.0642
     53 H14        39.4705  -16.7533   28.9268 H         1 BUV         0.0739
     54 H15        37.2500  -18.7324   28.4282 H         1 BUV         0.0628
     55 H16        40.8289  -25.7512   31.6738 H         1 BUV         0.0599
     56 H17        40.6446  -27.6604   30.1252 H         1 BUV         0.0559
     57 H18        39.9164  -24.9646   26.8981 H         1 BUV         0.0557
     58 H19        42.0295  -21.7290   30.9872 H         1 BUV         0.2272
     59 H20        44.6198  -20.5765   28.5465 H         1 BUV         0.0511
     60 H21        46.0539  -22.3671   32.9191 H         1 BUV         0.0611
     61 H22        43.6617  -22.2316   32.3797 H         1 BUV         0.0511
@<TRIPOS>BOND
     1   21    1 1  
     2    1   25 2  
     3    2    4 1  
     4    7    2 1  
     5    2   27 1  
     6    3   23 1  
     7    3   26 2  
     8   27    3 am 
     9    4    5 1  
    10    4    8 1  
    11    6    5 1  
    12   27    6 1  
    13    7   31 2  
    14   32    7 am 
    15    8    9 ar 
    16    8   30 ar 
    17    9   28 ar 
    18   21   10 1  
    19   10   24 2  
    20   13   11 ar 
    21   11   35 ar 
    22   11   37 1  
    23   12   29 ar 
    24   30   12 ar 
    25   34   13 ar 
    26   17   14 1  
    27   15   16 ar 
    28   20   15 ar 
    29   17   16 ar 
    30   18   17 ar 
    31   19   18 ar 
    32   19   20 ar 
    33   22   19 1  
    34   20   21 1  
    35   23   22 2  
    36   24   25 1  
    37   28   29 ar 
    38   33   32 1  
    39   33   34 ar 
    40   33   36 ar 
    41   35   36 ar 
    42   37   38 ar 
    43   37   39 ar 
    44    2   40 1  
    45    4   41 1  
    46    5   42 1  
    47    5   43 1  
    48    6   44 1  
    49    6   45 1  
    50    9   46 1  
    51   10   47 1  
    52   12   48 1  
    53   13   49 1  
    54   15   50 1  
    55   16   51 1  
    56   18   52 1  
    57   22   53 1  
    58   23   54 1  
    59   28   55 1  
    60   29   56 1  
    61   30   57 1  
    62   32   58 1  
    63   34   59 1  
    64   35   60 1  
    65   36   61 1  
@<TRIPOS>SUBSTRUCTURE
     1 BUV         1

