### 
### Created by X-TOOL on Mon Sep 10 21:13:33 2018
### 

@<TRIPOS>MOLECULE
5qcl_ligand
   58    62     1     0     0
SMALL
GAST_HUCK


@<TRIPOS>ATOM
      1 C13        38.1340  -16.9910   28.7300 C.2       1 BUY        -0.0388
      2 C17        38.8100  -20.9940   27.2010 C.3       1 BUY         0.0460
      3 C15        39.2790  -19.1590   28.9600 C.2       1 BUY         0.1950
      4 C19        40.2000  -21.4090   29.2920 C.3       1 BUY         0.1697
      5 C20        40.0670  -22.8960   29.0170 C.ar      1 BUY         0.0036
      6 C21        39.7620  -23.2540   27.7040 C.ar      1 BUY        -0.0345
      7 C22        39.5710  -22.1880   26.6530 C.3       1 BUY        -0.0006
      8 C23        40.2810  -23.8890   29.9700 C.ar      1 BUY        -0.0622
      9 C24        40.1950  -25.2230   29.6290 C.ar      1 BUY        -0.0750
     10 C34        43.8720  -21.2980   30.3420 C.ar      1 BUY         0.0698
     11 C27        41.6930  -21.0960   29.1140 C.2       1 BUY         0.2409
     12 C33        44.6920  -20.6590   29.4140 C.ar      1 BUY        -0.0373
     13 CL1        33.6950  -14.5620   29.6210 Cl        1 BUY        -0.0754
     14 C2         36.7350  -13.8800   27.0880 C.ar      1 BUY        -0.0176
     15 C3         35.5580  -13.7390   27.8150 C.ar      1 BUY        -0.0476
     16 C4         35.1910  -14.7300   28.7070 C.ar      1 BUY         0.0380
     17 C5         35.9800  -15.8480   28.9050 C.ar      1 BUY        -0.0382
     18 C6         37.1940  -15.9780   28.2210 C.ar      1 BUY         0.0262
     19 C7         37.5420  -15.0100   27.2620 C.ar      1 BUY         0.1410
     20 N8         38.6530  -15.2060   26.3810 N.pl3     1 BUY        -0.0913
     21 C9         38.7570  -15.1530   25.0460 C.2       1 BUY         0.1690
     22 N10        39.9800  -15.4380   24.6890 N.2       1 BUY        -0.2058
     23 N11        40.6530  -15.6760   25.8450 N.2       1 BUY        -0.1365
     24 N12        39.8720  -15.5360   26.8730 N.2       1 BUY        -0.0466
     25 C14        38.3780  -18.2100   28.2480 C.2       1 BUY         0.0075
     26 O16        39.8150  -18.8930   30.0390 O.2       1 BUY        -0.3924
     27 N18        39.4430  -20.4740   28.4300 N.am      1 BUY        -0.2421
     28 C25        39.8910  -25.5820   28.3360 C.ar      1 BUY        -0.0752
     29 C26        39.6790  -24.6040   27.3770 C.ar      1 BUY        -0.0663
     30 O28        42.1110  -20.6110   28.0640 O.2       1 BUY        -0.3790
     31 C29        44.4420  -21.8130   31.5060 C.ar      1 BUY        -0.0373
     32 C30        45.8090  -21.7250   31.7140 C.ar      1 BUY        -0.0612
     33 C31        46.6360  -21.1090   30.7750 C.ar      1 BUY        -0.0055
     34 C32        46.0540  -20.5630   29.6330 C.ar      1 BUY        -0.0612
     35 N35        42.4730  -21.4540   30.1680 N.am      1 BUY        -0.2285
     36 C36        48.1230  -21.1690   30.9020 C.2       1 BUY         0.0528
     37 O37        48.5750  -21.9680   31.8420 O.co2     1 BUY        -0.5648
     38 O38        48.8530  -20.4410   30.2270 O.co2     1 BUY        -0.5648
     39 H1         38.7033  -16.7079   29.6142 H         1 BUY         0.0739
     40 H2         37.7790  -21.3007   27.4309 H         1 BUY         0.0545
     41 H3         38.7952  -20.1987   26.4412 H         1 BUY         0.0545
     42 H4         39.8943  -21.2255   30.3326 H         1 BUY         0.0951
     43 H5         40.5578  -21.8520   26.3017 H         1 BUY         0.0432
     44 H6         39.0074  -22.6145   25.8101 H         1 BUY         0.0432
     45 H7         40.5177  -23.6106   30.9906 H         1 BUY         0.0542
     46 H8         40.3666  -25.9871   30.3785 H         1 BUY         0.0542
     47 H9         44.2596  -20.2347   28.5151 H         1 BUY         0.0511
     48 H10        37.0289  -13.1108   26.3830 H         1 BUY         0.0602
     49 H11        34.9349  -12.8617   27.6839 H         1 BUY         0.0635
     50 H12        35.6582  -16.6239   29.5901 H         1 BUY         0.0642
     51 H13        37.9448  -14.9092   24.3628 H         1 BUY         0.1430
     52 H14        37.9090  -18.5182   27.3147 H         1 BUY         0.0628
     53 H15        39.8173  -26.6296   28.0674 H         1 BUY         0.0544
     54 H16        39.4455  -24.8945   26.3591 H         1 BUY         0.0538
     55 H17        43.8123  -22.2845   32.2518 H         1 BUY         0.0511
     56 H18        46.2409  -22.1400   32.6175 H         1 BUY         0.0611
     57 H19        46.6777  -20.0557   28.9058 H         1 BUY         0.0611
     58 H20        41.9921  -21.8893   30.9291 H         1 BUY         0.2273
@<TRIPOS>BOND
     1   18    1 1  
     2    1   25 2  
     3    2    7 1  
     4   27    2 1  
     5   25    3 1  
     6    3   26 2  
     7    3   27 am 
     8    4    5 1  
     9    4   11 1  
    10   27    4 1  
    11    5    6 ar 
    12    5    8 ar 
    13    7    6 1  
    14    6   29 ar 
    15    8    9 ar 
    16    9   28 ar 
    17   10   12 ar 
    18   10   31 ar 
    19   35   10 1  
    20   11   30 2  
    21   11   35 am 
    22   12   34 ar 
    23   16   13 1  
    24   15   14 ar 
    25   14   19 ar 
    26   16   15 ar 
    27   17   16 ar 
    28   17   18 ar 
    29   18   19 ar 
    30   19   20 1  
    31   20   21 1  
    32   20   24 1  
    33   21   22 2  
    34   22   23 1  
    35   23   24 2  
    36   28   29 ar 
    37   31   32 ar 
    38   32   33 ar 
    39   33   34 ar 
    40   33   36 1  
    41   36   37 ar 
    42   36   38 ar 
    43    1   39 1  
    44    2   40 1  
    45    2   41 1  
    46    4   42 1  
    47    7   43 1  
    48    7   44 1  
    49    8   45 1  
    50    9   46 1  
    51   12   47 1  
    52   14   48 1  
    53   15   49 1  
    54   17   50 1  
    55   21   51 1  
    56   25   52 1  
    57   28   53 1  
    58   29   54 1  
    59   31   55 1  
    60   32   56 1  
    61   34   57 1  
    62   35   58 1  
@<TRIPOS>SUBSTRUCTURE
     1 BUY         1

