### 
### Created by X-TOOL on Mon Sep 10 21:13:34 2018
### 

@<TRIPOS>MOLECULE
5qcm_ligand
   64    68     1     0     0
SMALL
GAST_HUCK


@<TRIPOS>ATOM
      1 C13        38.4170  -17.1640   28.2360 C.2       1 BVJ        -0.0392
      2 C18        38.9180  -20.9600   27.3200 C.3       1 BVJ         0.0460
      3 C15        39.3420  -19.2300   29.1570 C.2       1 BVJ         0.1927
      4 C20        40.3750  -21.4340   29.3410 C.3       1 BVJ         0.1686
      5 C21        40.2140  -22.9130   29.0360 C.ar      1 BVJ         0.0035
      6 C22        39.9000  -23.2320   27.7120 C.ar      1 BVJ        -0.0345
      7 C23        39.6780  -22.1250   26.7090 C.3       1 BVJ        -0.0006
      8 C24        40.4080  -23.9350   29.9640 C.ar      1 BVJ        -0.0622
      9 C34        44.9490  -20.8800   29.6190 C.ar      1 BVJ        -0.0532
     10 C27        39.8100  -24.5730   27.3460 C.ar      1 BVJ        -0.0663
     11 C33        46.2980  -20.9390   29.9340 C.ar      1 BVJ        -0.0532
     12 CL1        34.0340  -14.5850   29.6310 Cl        1 BVJ        -0.0768
     13 C2         37.0440  -13.8030   27.1080 C.ar      1 BVJ        -0.0213
     14 C3         35.8630  -13.7070   27.8260 C.ar      1 BVJ        -0.0491
     15 C4         35.4870  -14.7350   28.6710 C.ar      1 BVJ         0.0719
     16 C5         36.3010  -15.8500   28.8030 C.ar      1 BVJ         0.1589
     17 C6         37.5100  -15.9870   28.1110 C.ar      1 BVJ         0.0609
     18 C7         37.8320  -14.9510   27.2200 C.ar      1 BVJ         0.1400
     19 N8         38.8830  -15.1630   26.2750 N.pl3     1 BVJ        -0.0922
     20 C9         38.8680  -15.2980   24.9450 C.2       1 BVJ         0.1689
     21 N10        40.0560  -15.6390   24.5260 N.2       1 BVJ        -0.2058
     22 N11        40.8310  -15.7060   25.6380 N.2       1 BVJ        -0.1365
     23 N12        40.1460  -15.4110   26.6960 N.2       1 BVJ        -0.0467
     24 C14        38.2130  -18.3990   28.6660 C.2       1 BVJ         0.0048
     25 O16        40.0290  -18.8960   30.1110 O.2       1 BVJ        -0.3938
     26 F17        35.9210  -16.8190   29.6480 F         1 BVJ        -0.1784
     27 N19        39.5860  -20.4730   28.5370 N.am      1 BVJ        -0.2427
     28 C25        40.3170  -25.2570   29.5830 C.ar      1 BVJ        -0.0750
     29 C26        40.0190  -25.5790   28.2770 C.ar      1 BVJ        -0.0752
     30 C28        41.8750  -21.1320   29.2000 C.2       1 BVJ         0.2360
     31 O29        42.3390  -20.7000   28.1450 O.2       1 BVJ        -0.3815
     32 C30        44.4070  -21.7280   31.7990 C.ar      1 BVJ        -0.0532
     33 C31        45.7510  -21.7820   32.1130 C.ar      1 BVJ        -0.0532
     34 C32        46.7110  -21.4230   31.1730 C.ar      1 BVJ         0.0540
     35 C35        43.9940  -21.3040   30.5410 C.ar      1 BVJ         0.0522
     36 N36        42.6010  -21.4210   30.3060 N.am      1 BVJ        -0.2388
     37 N37        48.0360  -21.7390   31.5690 N.am      1 BVJ        -0.2172
     38 C38        49.1950  -21.5560   30.8890 C.2       1 BVJ         0.3459
     39 O39        50.1620  -22.3000   31.4650 O.3       1 BVJ        -0.2630
     40 O40        49.3570  -20.8460   29.9180 O.2       1 BVJ        -0.3687
     41 C41        51.1910  -22.8290   30.5890 C.3       1 BVJ         0.0667
     42 H1         39.4389  -16.9712   27.9129 H         1 BVJ         0.0734
     43 H2         37.9002  -21.2895   27.5760 H         1 BVJ         0.0545
     44 H3         38.8650  -20.1415   26.5871 H         1 BVJ         0.0545
     45 H4         40.0786  -21.2824   30.3894 H         1 BVJ         0.0950
     46 H5         40.6545  -21.7660   26.3518 H         1 BVJ         0.0432
     47 H6         39.1008  -22.5223   25.8611 H         1 BVJ         0.0432
     48 H7         40.6326  -23.6879   30.9953 H         1 BVJ         0.0542
     49 H8         44.6361  -20.5027   28.6521 H         1 BVJ         0.0470
     50 H9         39.5736  -24.8333   26.3206 H         1 BVJ         0.0538
     51 H10        47.0352  -20.6066   29.2121 H         1 BVJ         0.0469
     52 H11        37.3554  -12.9903   26.4617 H         1 BVJ         0.0570
     53 H12        35.2356  -12.8287   27.7257 H         1 BVJ         0.0627
     54 H13        37.9974  -15.1466   24.3085 H         1 BVJ         0.1430
     55 H14        37.2050  -18.8110   28.6597 H         1 BVJ         0.0604
     56 H15        40.4800  -26.0432   30.3113 H         1 BVJ         0.0542
     57 H16        39.9480  -26.6184   27.9774 H         1 BVJ         0.0544
     58 H17        43.6693  -22.0182   32.5384 H         1 BVJ         0.0470
     59 H18        46.0600  -22.1068   33.1000 H         1 BVJ         0.0469
     60 H19        42.0713  -21.7720   31.0781 H         1 BVJ         0.2211
     61 H20        48.1281  -22.1538   32.4742 H         1 BVJ         0.2227
     62 H21        51.9119  -23.4123   31.1807 H         1 BVJ         0.0575
     63 H22        51.7123  -21.9977   30.0918 H         1 BVJ         0.0575
     64 H23        50.7289  -23.4780   29.8306 H         1 BVJ         0.0575
@<TRIPOS>BOND
     1    1   17 1  
     2   24    1 2  
     3    2    7 1  
     4   27    2 1  
     5    3   24 1  
     6    3   25 2  
     7   27    3 am 
     8    4    5 1  
     9    4   27 1  
    10   30    4 1  
    11    5    6 ar 
    12    5    8 ar 
    13    6    7 1  
    14    6   10 ar 
    15    8   28 ar 
    16    9   11 ar 
    17   35    9 ar 
    18   10   29 ar 
    19   11   34 ar 
    20   15   12 1  
    21   13   14 ar 
    22   18   13 ar 
    23   15   14 ar 
    24   16   15 ar 
    25   17   16 ar 
    26   16   26 1  
    27   17   18 ar 
    28   18   19 1  
    29   19   20 1  
    30   19   23 1  
    31   20   21 2  
    32   22   21 1  
    33   23   22 2  
    34   28   29 ar 
    35   30   31 2  
    36   36   30 am 
    37   32   33 ar 
    38   35   32 ar 
    39   33   34 ar 
    40   34   37 1  
    41   35   36 1  
    42   37   38 am 
    43   38   39 1  
    44   38   40 2  
    45   39   41 1  
    46    1   42 1  
    47    2   43 1  
    48    2   44 1  
    49    4   45 1  
    50    7   46 1  
    51    7   47 1  
    52    8   48 1  
    53    9   49 1  
    54   10   50 1  
    55   11   51 1  
    56   13   52 1  
    57   14   53 1  
    58   20   54 1  
    59   24   55 1  
    60   28   56 1  
    61   29   57 1  
    62   32   58 1  
    63   33   59 1  
    64   36   60 1  
    65   37   61 1  
    66   41   62 1  
    67   41   63 1  
    68   41   64 1  
@<TRIPOS>SUBSTRUCTURE
     1 BVJ         1

