### 
### Created by X-TOOL on Mon Sep 10 21:13:32 2018
### 

@<TRIPOS>MOLECULE
5qcn_ligand
   84    89     1     0     0
SMALL
GAST_HUCK


@<TRIPOS>ATOM
      1 C13        38.1240  -16.8570   28.2490 C.2       1 BVM        -0.0388
      2 C18        39.9800  -21.3980   28.6200 C.3       1 BVM         0.1707
      3 C15        38.9740  -19.1250   28.5930 C.2       1 BVM         0.1950
      4 C19        39.9000  -22.8150   28.0840 C.ar      1 BVM         0.0095
      5 C20        39.6060  -22.9510   26.7250 C.ar      1 BVM        -0.0139
      6 C21        39.2250  -21.7280   25.9220 C.3       1 BVM         0.0031
      7 C22        38.3690  -20.7950   26.7500 C.3       1 BVM         0.0469
      8 C23        40.1080  -23.9480   28.8670 C.ar      1 BVM        -0.0579
      9 C24        40.0620  -25.2100   28.2980 C.ar      1 BVM        -0.0693
     10 C34        45.5270  -21.5680   31.0920 C.ar      1 BVM        -0.0612
     11 C27        41.4560  -20.9880   28.4880 C.2       1 BVM         0.2409
     12 C33        46.3680  -21.0460   30.1080 C.ar      1 BVM        -0.0055
     13 CL1        33.7060  -14.4270   29.2800 Cl        1 BVM        -0.0754
     14 C2         36.5870  -13.8240   26.5850 C.ar      1 BVM        -0.0176
     15 C3         35.4260  -13.6880   27.3330 C.ar      1 BVM        -0.0476
     16 C4         35.1420  -14.6190   28.3100 C.ar      1 BVM         0.0380
     17 C5         35.9870  -15.6790   28.5620 C.ar      1 BVM        -0.0382
     18 C6         37.1870  -15.8000   27.8490 C.ar      1 BVM         0.0262
     19 C7         37.4730  -14.8720   26.8300 C.ar      1 BVM         0.1410
     20 N8         38.5060  -15.1320   25.8810 N.pl3     1 BVM        -0.0913
     21 C9         38.5780  -14.9550   24.5570 C.2       1 BVM         0.1690
     22 N10        39.7890  -15.2090   24.1440 N.2       1 BVM        -0.2058
     23 N11        40.4990  -15.5080   25.2610 N.2       1 BVM        -0.1365
     24 N12        39.7460  -15.4670   26.3130 N.2       1 BVM        -0.0466
     25 C14        38.0030  -18.1540   28.0300 C.2       1 BVM         0.0075
     26 O16        39.6920  -18.8620   29.5580 O.2       1 BVM        -0.3924
     27 N17        39.0790  -20.4050   27.9770 N.am      1 BVM        -0.2419
     28 C25        39.8130  -25.3580   26.9400 C.ar      1 BVM        -0.0551
     29 C26        39.5750  -24.2310   26.1500 C.ar      1 BVM         0.0456
     30 O28        41.9040  -20.5570   27.4240 O.2       1 BVM        -0.3790
     31 N29        42.1980  -21.2450   29.5870 N.am      1 BVM        -0.2286
     32 C30        43.5920  -21.0960   29.7430 C.ar      1 BVM         0.0698
     33 C31        44.4210  -20.5420   28.7710 C.ar      1 BVM        -0.0373
     34 C32        45.7910  -20.5070   28.9610 C.ar      1 BVM        -0.0612
     35 C35        44.1560  -21.5970   30.9100 C.ar      1 BVM        -0.0373
     36 C36        47.8530  -20.9690   30.3030 C.2       1 BVM         0.0528
     37 O37        48.3650  -21.6160   31.3190 O.co2     1 BVM        -0.5648
     38 O38        48.5350  -20.2240   29.6170 O.co2     1 BVM        -0.5648
     39 C39        39.1980  -24.4050   24.7040 C.2       1 BVM         0.2011
     40 O40        38.0450  -24.6940   24.4350 O.2       1 BVM        -0.3884
     41 N41        40.1070  -24.0960   23.7540 N.am      1 BVM        -0.2711
     42 C42        39.7610  -24.0180   22.3330 C.3       1 BVM         0.0541
     43 C43        40.1130  -22.6340   21.7770 C.3       1 BVM         0.0803
     44 C44        41.5850  -22.2780   22.0530 C.3       1 BVM        -0.0282
     45 C45        41.9800  -22.5010   23.5100 C.3       1 BVM        -0.0301
     46 C46        41.5450  -23.8720   23.9860 C.3       1 BVM         0.0335
     47 C47        39.1350  -21.5680   22.2330 C.2       1 BVM         0.2388
     48 O48        39.7690  -20.5120   22.7670 O.3       1 BVM        -0.2769
     49 O49        37.9370  -21.6510   22.1360 O.2       1 BVM        -0.3700
     50 C50        38.9790  -19.4120   23.3250 C.3       1 BVM         0.0740
     51 C51        39.8760  -18.6010   24.2040 C.3       1 BVM        -0.0371
     52 H1         39.0163  -16.5368   28.7848 H         1 BVM         0.0739
     53 H2         39.7131  -21.4246   29.6868 H         1 BVM         0.0952
     54 H3         38.6611  -22.0413   25.0310 H         1 BVM         0.0446
     55 H4         40.1386  -21.2003   25.6109 H         1 BVM         0.0446
     56 H5         37.4323  -21.3050   27.0193 H         1 BVM         0.0547
     57 H6         38.1400  -19.8943   26.1615 H         1 BVM         0.0547
     58 H7         40.3069  -23.8416   29.9273 H         1 BVM         0.0577
     59 H8         40.2212  -26.0864   28.9158 H         1 BVM         0.0555
     60 H9         45.9534  -21.9555   32.0102 H         1 BVM         0.0611
     61 H10        36.8073  -13.1076   25.8018 H         1 BVM         0.0602
     62 H11        34.7504  -12.8599   27.1515 H         1 BVM         0.0635
     63 H12        35.7233  -16.4175   29.3105 H         1 BVM         0.0642
     64 H13        37.7506  -14.6456   23.9201 H         1 BVM         0.1430
     65 H14        37.1744  -18.5180   27.4244 H         1 BVM         0.0628
     66 H15        39.8033  -26.3459   26.4940 H         1 BVM         0.0595
     67 H16        41.6993  -21.5812   30.3859 H         1 BVM         0.2273
     68 H17        43.9914  -20.1366   27.8621 H         1 BVM         0.0511
     69 H18        46.4239  -20.0538   28.2066 H         1 BVM         0.0611
     70 H19        43.5183  -22.0127   31.6818 H         1 BVM         0.0511
     71 H20        38.6821  -24.1945   22.2116 H         1 BVM         0.0550
     72 H21        40.3226  -24.7852   21.7798 H         1 BVM         0.0550
     73 H22        40.0093  -22.6980   20.6838 H         1 BVM         0.0574
     74 H23        41.7440  -21.2186   21.8032 H         1 BVM         0.0295
     75 H24        42.2247  -22.9052   21.4148 H         1 BVM         0.0295
     76 H25        41.4991  -21.7339   24.1347 H         1 BVM         0.0286
     77 H26        43.0728  -22.4177   23.6034 H         1 BVM         0.0286
     78 H27        42.1178  -24.6372   23.4416 H         1 BVM         0.0522
     79 H28        41.7504  -23.9575   25.0633 H         1 BVM         0.0522
     80 H29        38.1423  -19.8145   23.9148 H         1 BVM         0.0610
     81 H30        38.5858  -18.7843   22.5118 H         1 BVM         0.0610
     82 H31        39.3068  -17.7655   24.6376 H         1 BVM         0.0255
     83 H32        40.7123  -18.2052   23.6091 H         1 BVM         0.0255
     84 H33        40.2688  -19.2355   25.0122 H         1 BVM         0.0255
@<TRIPOS>BOND
     1    1   18 1  
     2   25    1 2  
     3    2    4 1  
     4   11    2 1  
     5    2   27 1  
     6    3   25 1  
     7    3   26 2  
     8   27    3 am 
     9    4    5 ar 
    10    4    8 ar 
    11    5    6 1  
    12    5   29 ar 
    13    7    6 1  
    14   27    7 1  
    15    8    9 ar 
    16    9   28 ar 
    17   10   12 ar 
    18   35   10 ar 
    19   11   30 2  
    20   31   11 am 
    21   12   34 ar 
    22   12   36 1  
    23   16   13 1  
    24   14   15 ar 
    25   19   14 ar 
    26   16   15 ar 
    27   17   16 ar 
    28   18   17 ar 
    29   18   19 ar 
    30   19   20 1  
    31   20   21 1  
    32   20   24 1  
    33   21   22 2  
    34   23   22 1  
    35   24   23 2  
    36   29   28 ar 
    37   29   39 1  
    38   32   31 1  
    39   32   33 ar 
    40   32   35 ar 
    41   33   34 ar 
    42   36   37 ar 
    43   36   38 ar 
    44   39   40 2  
    45   39   41 am 
    46   41   42 1  
    47   41   46 1  
    48   42   43 1  
    49   43   44 1  
    50   43   47 1  
    51   44   45 1  
    52   45   46 1  
    53   47   48 1  
    54   47   49 2  
    55   48   50 1  
    56   50   51 1  
    57    1   52 1  
    58    2   53 1  
    59    6   54 1  
    60    6   55 1  
    61    7   56 1  
    62    7   57 1  
    63    8   58 1  
    64    9   59 1  
    65   10   60 1  
    66   14   61 1  
    67   15   62 1  
    68   17   63 1  
    69   21   64 1  
    70   25   65 1  
    71   28   66 1  
    72   31   67 1  
    73   33   68 1  
    74   34   69 1  
    75   35   70 1  
    76   42   71 1  
    77   42   72 1  
    78   43   73 1  
    79   44   74 1  
    80   44   75 1  
    81   45   76 1  
    82   45   77 1  
    83   46   78 1  
    84   46   79 1  
    85   50   80 1  
    86   50   81 1  
    87   51   82 1  
    88   51   83 1  
    89   51   84 1  
@<TRIPOS>SUBSTRUCTURE
     1 BVM         1

