### 
### Created by X-TOOL on Wed Jan  1 15:39:35 2020
### 

@<TRIPOS>MOLECULE
5qik_ligand
   43    46     1     0     0
SMALL
GAST_HUCK


@<TRIPOS>ATOM
      1 N14         4.6070    8.7450    9.7860 N.am      1 J2M        -0.2902
      2 C13         3.7640    7.5680    9.9210 C.3       1 J2M         0.0436
      3 C16         5.7440    9.7830    5.4400 C.ar      1 J2M        -0.0138
      4 C15         5.0240    9.2780    8.6330 C.2       1 J2M         0.1748
      5 C19         7.0260    9.7990    5.9760 C.ar      1 J2M         0.0076
      6 C21         7.7130   11.3470    4.4890 C.ar      1 J2M         0.2096
      7 C22         6.4970   11.4240    3.8520 C.ar      1 J2M        -0.0004
      8 C23         5.4900   10.6190    4.3570 C.ar      1 J2M        -0.0445
      9 C24        -0.1860    6.2540    2.2320 C.2       1 J2M         0.2042
     10 C12         2.7400    7.4360    8.8080 C.3       1 J2M         0.0320
     11 N1          3.3180    6.6680    1.3620 N.ar      1 J2M        -0.2950
     12 C2          2.2500    6.8050    2.1870 C.ar      1 J2M         0.1297
     13 C3          2.3550    7.3890    3.4610 C.ar      1 J2M        -0.0142
     14 C4          3.6100    7.7810    3.9170 C.ar      1 J2M        -0.0029
     15 C5          4.7020    7.6640    3.0620 C.ar      1 J2M        -0.0494
     16 C6          4.5060    7.1120    1.8110 C.ar      1 J2M        -0.0147
     17 C7          3.7880    8.1270    5.3430 C.2       1 J2M         0.0738
     18 C8          4.6910    8.9200    6.0130 C.2       1 J2M        -0.0060
     19 C9          4.4450    8.7380    7.4320 C.2       1 J2M         0.0502
     20 C10         3.3670    7.8940    7.5290 C.2       1 J2M         0.0737
     21 N11         2.9790    7.5350    6.2770 N.pl3     1 J2M        -0.2668
     22 N17         1.0450    6.3150    1.6470 N.am      1 J2M        -0.2205
     23 O18         5.8580   10.1700    8.6700 O.2       1 J2M        -0.4052
     24 N20         8.0110   10.5790    5.5130 N.ar      1 J2M        -0.2684
     25 C25        -1.2580    5.5990    1.4060 C.3       1 J2M         0.0324
     26 O26        -0.4210    6.7040    3.3470 O.2       1 J2M        -0.3833
     27 F27         8.7200   12.1550    4.0840 F         1 J2M        -0.1560
     28 H1          4.9005    9.1952   10.6293 H         1 J2M         0.1833
     29 H2          3.2310    7.6278   10.8813 H         1 J2M         0.0546
     30 H3          4.4062    6.6750    9.9131 H         1 J2M         0.0546
     31 H4          7.2401    9.1451    6.8137 H         1 J2M         0.0778
     32 H5          6.3358   12.0779    3.0026 H         1 J2M         0.0668
     33 H6          4.5033   10.6400    3.9085 H         1 J2M         0.0693
     34 H7          1.8627    8.0594    9.0351 H         1 J2M         0.0508
     35 H8          2.4286    6.3853    8.7131 H         1 J2M         0.0508
     36 H9          1.4746    7.5315    4.0771 H         1 J2M         0.0538
     37 H10         5.6855    7.9990    3.3713 H         1 J2M         0.0540
     38 H11         5.3618    7.0316    1.1506 H         1 J2M         0.0749
     39 H12         2.1905    6.9083    6.0614 H         1 J2M         0.2364
     40 H13         1.0988    5.9658    0.7115 H         1 J2M         0.2304
     41 H14        -2.2050    5.6015    1.9657 H         1 J2M         0.0473
     42 H15        -0.9667    4.5620    1.1829 H         1 J2M         0.0473
     43 H16        -1.3867    6.1543    0.4652 H         1 J2M         0.0473
@<TRIPOS>BOND
     1    1    2 1  
     2    4    1 am 
     3    2   10 1  
     4    3    5 ar 
     5    3    8 ar 
     6   18    3 1  
     7   19    4 1  
     8    4   23 2  
     9    5   24 ar 
    10    7    6 ar 
    11   24    6 ar 
    12    6   27 1  
    13    8    7 ar 
    14   22    9 am 
    15    9   25 1  
    16    9   26 2  
    17   10   20 1  
    18   12   11 ar 
    19   16   11 ar 
    20   13   12 ar 
    21   12   22 1  
    22   14   13 ar 
    23   14   15 ar 
    24   17   14 1  
    25   15   16 ar 
    26   18   17 2  
    27   17   21 1  
    28   18   19 1  
    29   19   20 2  
    30   20   21 1  
    31    1   28 1  
    32    2   29 1  
    33    2   30 1  
    34    5   31 1  
    35    7   32 1  
    36    8   33 1  
    37   10   34 1  
    38   10   35 1  
    39   13   36 1  
    40   15   37 1  
    41   16   38 1  
    42   21   39 1  
    43   22   40 1  
    44   25   41 1  
    45   25   42 1  
    46   25   43 1  
@<TRIPOS>SUBSTRUCTURE
     1 J2M         1

