### 
### Created by X-TOOL on Wed Jan  1 15:39:35 2020
### 

@<TRIPOS>MOLECULE
5qil_ligand
   44    47     1     0     0
SMALL
GAST_HUCK


@<TRIPOS>ATOM
      1 C17         6.9930    9.6350    5.9650 C.ar      1 J2V         0.0011
      2 C16         5.7800    9.7550    5.3000 C.ar      1 J2V        -0.0148
      3 C15         2.3890    7.3000    3.2880 C.ar      1 J2V        -0.0054
      4 C19         8.0290   11.0920    4.5620 C.ar      1 J2V         0.1609
      5 C20         6.8590   11.3040    3.8030 C.ar      1 J2V        -0.0081
      6 C21         5.7260   10.6050    4.1930 C.ar      1 J2V        -0.0497
      7 C23        -0.0680    6.0000    1.9300 C.2       1 J2V         0.2044
      8 C11         4.7740    7.4980    3.1070 C.ar      1 J2V        -0.0417
      9 C12         4.6820    6.8160    1.9080 C.ar      1 J2V        -0.0086
     10 C27        10.3920   11.4930    4.8320 C.3       1 J2V         0.0624
     11 C1          4.1080    9.2520    7.2150 C.ar      1 J2V         0.0574
     12 C2          2.9030    8.5560    7.3060 C.ar      1 J2V         0.0948
     13 C3          2.1890    8.5640    8.5120 C.ar      1 J2V        -0.0210
     14 C4          2.7270    9.2760    9.5770 C.ar      1 J2V        -0.0461
     15 C5          3.9440    9.9410    9.4020 C.ar      1 J2V        -0.0066
     16 N6          4.6390    9.9430    8.2450 N.ar      1 J2V        -0.3142
     17 C7          4.5760    9.0930    5.8570 C.2       1 J2V         0.0178
     18 C8          3.6540    8.2990    5.2050 C.2       1 J2V         0.0881
     19 N9          2.6380    7.9810    6.0890 N.pl3     1 J2V        -0.2619
     20 C10         3.6070    7.7300    3.8330 C.ar      1 J2V         0.0138
     21 N13         3.5210    6.3680    1.3790 N.ar      1 J2V        -0.2883
     22 C14         2.3860    6.6000    2.0680 C.ar      1 J2V         0.1367
     23 N18         8.1080   10.2890    5.6180 N.ar      1 J2V        -0.2777
     24 N22         1.2180    6.0290    1.4590 N.am      1 J2V        -0.2192
     25 O24        -0.4180    6.5590    2.9490 O.2       1 J2V        -0.3833
     26 C25        -1.0580    5.2120    1.1160 C.3       1 J2V         0.0324
     27 O26         9.1450   11.7170    4.1250 O.3       1 J2V        -0.3043
     28 H1          7.0399    8.9694    6.8193 H         1 J2V         0.0755
     29 H2          1.4573    7.5053    3.8026 H         1 J2V         0.0591
     30 H3          6.8459   11.9804    2.9560 H         1 J2V         0.0628
     31 H4          4.8007   10.7182    3.6398 H         1 J2V         0.0672
     32 H5          5.7330    7.8448    3.4746 H         1 J2V         0.0583
     33 H6          5.5971    6.6288    1.3579 H         1 J2V         0.0764
     34 H7         11.1950   12.0710    4.3513 H         1 J2V         0.0582
     35 H8         10.6429   10.4224    4.8027 H         1 J2V         0.0582
     36 H9         10.2836   11.8158    5.8780 H         1 J2V         0.0582
     37 H10         1.2492    8.0329    8.6105 H         1 J2V         0.0678
     38 H11         2.2107    9.3152   10.5293 H         1 J2V         0.0629
     39 H12         4.3533   10.4868   10.2444 H         1 J2V         0.0746
     40 H13         1.8137    7.4042    5.8683 H         1 J2V         0.2287
     41 H14         1.3629    5.5934    0.5706 H         1 J2V         0.2307
     42 H15        -2.0481    5.2637    1.5924 H         1 J2V         0.0473
     43 H16        -0.7330    4.1627    1.0588 H         1 J2V         0.0473
     44 H17        -1.1168    5.6335    0.1017 H         1 J2V         0.0473
@<TRIPOS>BOND
     1    2    1 ar 
     2    1   23 ar 
     3    2    6 ar 
     4   17    2 1  
     5    3   20 ar 
     6   22    3 ar 
     7    5    4 ar 
     8   23    4 ar 
     9    4   27 1  
    10    6    5 ar 
    11   24    7 am 
    12    7   25 2  
    13    7   26 1  
    14    9    8 ar 
    15   20    8 ar 
    16   21    9 ar 
    17   27   10 1  
    18   12   11 ar 
    19   11   16 ar 
    20   17   11 1  
    21   12   13 ar 
    22   19   12 1  
    23   13   14 ar 
    24   14   15 ar 
    25   16   15 ar 
    26   18   17 2  
    27   18   19 1  
    28   20   18 1  
    29   22   21 ar 
    30   22   24 1  
    31    1   28 1  
    32    3   29 1  
    33    5   30 1  
    34    6   31 1  
    35    8   32 1  
    36    9   33 1  
    37   10   34 1  
    38   10   35 1  
    39   10   36 1  
    40   13   37 1  
    41   14   38 1  
    42   15   39 1  
    43   19   40 1  
    44   24   41 1  
    45   26   42 1  
    46   26   43 1  
    47   26   44 1  
@<TRIPOS>SUBSTRUCTURE
     1 J2V         1

