### 
### Created by X-TOOL on Wed Jan  1 15:39:35 2020
### 

@<TRIPOS>MOLECULE
5qim_ligand
   44    47     1     0     0
SMALL
GAST_HUCK


@<TRIPOS>ATOM
      1 C18         7.9780   10.8640    5.6400 C.ar      1 J2Y         0.0327
      2 C16         5.7460   10.2600    5.4950 C.ar      1 J2Y         0.0269
      3 C15         2.3510    7.7000    3.7190 C.ar      1 J2Y        -0.0046
      4 C19         7.8630   11.7000    4.5450 C.ar      1 J2Y         0.1146
      5 C20         6.6320   11.8160    3.9050 C.ar      1 J2Y        -0.0171
      6 C21         5.5550   11.0820    4.3790 C.ar      1 J2Y        -0.0422
      7 C23        -0.1450    6.3920    2.5750 C.2       1 J2Y         0.2044
      8 C11         4.7160    7.9290    3.3860 C.ar      1 J2Y        -0.0409
      9 C12         4.5620    7.2660    2.1760 C.ar      1 J2Y        -0.0080
     10 C27        10.2360   12.1760    4.5010 C.3       1 J2Y         0.0606
     11 C1          4.1110    9.8220    7.5000 C.ar      1 J2Y         0.0586
     12 C2          2.9240    9.1020    7.6330 C.ar      1 J2Y         0.0956
     13 C3          2.1840    9.2050    8.8160 C.ar      1 J2Y        -0.0208
     14 C4          2.6910   10.0130    9.8350 C.ar      1 J2Y        -0.0460
     15 C5          3.8990   10.6770    9.6300 C.ar      1 J2Y        -0.0066
     16 N6          4.6170   10.5970    8.4830 N.ar      1 J2Y        -0.3140
     17 C7          4.5990    9.5550    6.1140 C.2       1 J2Y         0.0280
     18 C8          3.6920    8.6890    5.5440 C.2       1 J2Y         0.0909
     19 N9          2.6900    8.4070    6.4630 N.pl3     1 J2Y        -0.2604
     20 C10         3.5910    8.1300    4.1840 C.ar      1 J2Y         0.0156
     21 N13         3.3830    6.8060    1.7170 N.ar      1 J2Y        -0.2876
     22 C14         2.2920    7.0120    2.4940 C.ar      1 J2Y         0.1373
     23 N17         6.9360   10.1370    6.1140 N.ar      1 J2Y        -0.3114
     24 N22         1.0920    6.4560    1.9870 N.am      1 J2Y        -0.2190
     25 O24        -0.3980    6.8720    3.6770 O.2       1 J2Y        -0.3832
     26 C25        -1.2230    5.7310    1.7530 C.3       1 J2Y         0.0324
     27 O26         8.9140   12.3750    3.9670 O.3       1 J2Y        -0.3156
     28 H1          8.9374   10.7867    6.1386 H         1 J2Y         0.0739
     29 H2          1.4495    7.8917    4.2896 H         1 J2Y         0.0596
     30 H3          6.5170   12.4706    3.0486 H         1 J2Y         0.0652
     31 H4          4.5867   11.1438    3.8956 H         1 J2Y         0.0647
     32 H5          5.6903    8.2828    3.7034 H         1 J2Y         0.0587
     33 H6          5.4433    7.1094    1.5646 H         1 J2Y         0.0766
     34 H7         10.9563   12.7822    3.9321 H         1 J2Y         0.0579
     35 H8         10.5076   11.1131    4.4211 H         1 J2Y         0.0579
     36 H9         10.2543   12.4807    5.5578 H         1 J2Y         0.0579
     37 H10         1.2467    8.6741    8.9373 H         1 J2Y         0.0679
     38 H11         2.1540   10.1222   10.7703 H         1 J2Y         0.0629
     39 H12         4.2866   11.2926   10.4337 H         1 J2Y         0.0747
     40 H13         1.8934    7.7755    6.2972 H         1 J2Y         0.2296
     41 H14         1.1558    6.0544    1.0734 H         1 J2Y         0.2307
     42 H15        -2.1676    5.7341    2.3166 H         1 J2Y         0.0473
     43 H16        -0.9314    4.6937    1.5319 H         1 J2Y         0.0473
     44 H17        -1.3563    6.2831    0.8110 H         1 J2Y         0.0473
@<TRIPOS>BOND
     1    1    4 ar 
     2   23    1 ar 
     3    2    6 ar 
     4   17    2 1  
     5    2   23 ar 
     6    3   20 ar 
     7   22    3 ar 
     8    5    4 ar 
     9    4   27 1  
    10    6    5 ar 
    11   24    7 am 
    12    7   25 2  
    13    7   26 1  
    14    9    8 ar 
    15   20    8 ar 
    16   21    9 ar 
    17   27   10 1  
    18   12   11 ar 
    19   11   16 ar 
    20   17   11 1  
    21   12   13 ar 
    22   19   12 1  
    23   13   14 ar 
    24   14   15 ar 
    25   16   15 ar 
    26   18   17 2  
    27   18   19 1  
    28   20   18 1  
    29   22   21 ar 
    30   22   24 1  
    31    1   28 1  
    32    3   29 1  
    33    5   30 1  
    34    6   31 1  
    35    8   32 1  
    36    9   33 1  
    37   10   34 1  
    38   10   35 1  
    39   10   36 1  
    40   13   37 1  
    41   14   38 1  
    42   15   39 1  
    43   19   40 1  
    44   24   41 1  
    45   26   42 1  
    46   26   43 1  
    47   26   44 1  
@<TRIPOS>SUBSTRUCTURE
     1 J2Y         1

