### 
### Created by X-TOOL on Wed Jan  1 15:39:36 2020
### 

@<TRIPOS>MOLECULE
5qin_ligand
   44    47     1     0     0
SMALL
GAST_HUCK


@<TRIPOS>ATOM
      1 C17        15.7150   -3.2080   11.9720 C.ar      1 J2V         0.0011
      2 C16        15.2260   -3.4710   10.6940 C.ar      1 J2V        -0.0148
      3 C15        13.0090   -2.1910    6.8200 C.ar      1 J2V        -0.0054
      4 C19        14.9030   -5.1770   12.7970 C.ar      1 J2V         0.1609
      5 C20        14.3970   -5.5730   11.5390 C.ar      1 J2V        -0.0081
      6 C21        14.5480   -4.6780   10.4870 C.ar      1 J2V        -0.0497
      7 C23        11.7640   -1.6460    4.0800 C.2       1 J2V         0.2044
      8 C11        12.4580   -2.6030    9.1240 C.ar      1 J2V        -0.0417
      9 C12        11.1250   -2.6160    8.7480 C.ar      1 J2V        -0.0086
     10 C27        15.1560   -5.6600   15.1240 C.3       1 J2V         0.0624
     11 C1         16.9220   -1.9550    9.4380 C.ar      1 J2V         0.0574
     12 C2         16.8720   -1.2050    8.2690 C.ar      1 J2V         0.0948
     13 C3         18.0040   -0.5110    7.8460 C.ar      1 J2V        -0.0210
     14 C4         19.1560   -0.6090    8.6260 C.ar      1 J2V        -0.0461
     15 C5         19.1210   -1.4030    9.7740 C.ar      1 J2V        -0.0066
     16 N6         18.0330   -2.0630   10.1990 N.ar      1 J2V        -0.3142
     17 C7         15.6030   -2.5600    9.5890 C.2       1 J2V         0.0178
     18 C8         14.8410   -2.1380    8.5130 C.2       1 J2V         0.0881
     19 N9         15.6180   -1.3210    7.7100 N.pl3     1 J2V        -0.2619
     20 C10        13.4280   -2.3650    8.1430 C.ar      1 J2V         0.0138
     21 N13        10.6970   -2.3980    7.4830 N.ar      1 J2V        -0.2883
     22 C14        11.6270   -2.1960    6.5340 C.ar      1 J2V         0.1367
     23 N18        15.5450   -4.0320   13.0280 N.ar      1 J2V        -0.2777
     24 N22        11.0930   -1.9410    5.2270 N.am      1 J2V        -0.2192
     25 O24        12.9710   -1.5450    4.0030 O.2       1 J2V        -0.3833
     26 C25        10.9070   -1.4360    2.8550 C.3       1 J2V         0.0324
     27 O26        14.7760   -6.0660   13.8030 O.3       1 J2V        -0.3043
     28 H1         16.2648   -2.2868   12.1277 H         1 J2V         0.0755
     29 H2         13.7347   -2.0544    6.0264 H         1 J2V         0.0591
     30 H3         13.9123   -6.5327   11.4005 H         1 J2V         0.0628
     31 H4         14.1423   -4.9135    9.5097 H         1 J2V         0.0672
     32 H5         12.7440   -2.7734   10.1556 H         1 J2V         0.0583
     33 H6         10.3812   -2.8123    9.5117 H         1 J2V         0.0764
     34 H7         14.9934   -6.4924   15.8244 H         1 J2V         0.0582
     35 H8         14.5468   -4.7974   15.4320 H         1 J2V         0.0582
     36 H9         16.2194   -5.3786   15.1295 H         1 J2V         0.0582
     37 H10        17.9896    0.0852    6.9408 H         1 J2V         0.0678
     38 H11        20.0598   -0.0797    8.3468 H         1 J2V         0.0629
     39 H12        20.0297   -1.4917   10.3584 H         1 J2V         0.0746
     40 H13        15.3088   -0.8723    6.8359 H         1 J2V         0.2287
     41 H14        10.0971   -1.9859    5.1483 H         1 J2V         0.2307
     42 H15        11.5500   -1.2050    1.9929 H         1 J2V         0.0473
     43 H16        10.2149   -0.5993    3.0307 H         1 J2V         0.0473
     44 H17        10.3318   -2.3506    2.6487 H         1 J2V         0.0473
@<TRIPOS>BOND
     1    2    1 ar 
     2    1   23 ar 
     3    2    6 ar 
     4   17    2 1  
     5    3   20 ar 
     6   22    3 ar 
     7    5    4 ar 
     8   23    4 ar 
     9    4   27 1  
    10    6    5 ar 
    11   24    7 am 
    12    7   25 2  
    13    7   26 1  
    14    9    8 ar 
    15   20    8 ar 
    16   21    9 ar 
    17   27   10 1  
    18   12   11 ar 
    19   11   16 ar 
    20   17   11 1  
    21   12   13 ar 
    22   19   12 1  
    23   13   14 ar 
    24   14   15 ar 
    25   16   15 ar 
    26   18   17 2  
    27   18   19 1  
    28   20   18 1  
    29   22   21 ar 
    30   22   24 1  
    31    1   28 1  
    32    3   29 1  
    33    5   30 1  
    34    6   31 1  
    35    8   32 1  
    36    9   33 1  
    37   10   34 1  
    38   10   35 1  
    39   10   36 1  
    40   13   37 1  
    41   14   38 1  
    42   15   39 1  
    43   19   40 1  
    44   24   41 1  
    45   26   42 1  
    46   26   43 1  
    47   26   44 1  
@<TRIPOS>SUBSTRUCTURE
     1 J2V         1

