### 
### Created by X-TOOL on Mon Aug  2 16:12:14 2021
### 

@<TRIPOS>MOLECULE
5qj2_ligand
   39    42     1     0     0
SMALL
GAST_HUCK


@<TRIPOS>ATOM
      1 C05       -21.6350   15.7380   34.4190 C.ar      1 JXS        -0.0513
      2 C06       -20.6340   12.3550   35.8900 C.ar      1 JXS         0.0041
      3 C01       -19.0450   17.1830   33.7280 C.ar      1 JXS        -0.0686
      4 C13       -18.0070   11.0430   36.0570 C.ar      1 JXS         0.1557
      5 C16       -20.6550   15.2220   36.7720 C.3       1 JXS         0.1079
      6 C15       -23.9900   16.5360   28.7740 C.3       1 JXS         0.0606
      7 C11       -19.4790   13.0270   36.4820 C.ar      1 JXS         0.1207
      8 C02       -20.1630   17.0880   32.7290 C.ar      1 JXS        -0.0618
      9 C03       -19.1980   16.5280   35.0550 C.ar      1 JXS        -0.0584
     10 C04       -23.9040   15.8390   32.3190 C.2       1 JXS        -0.0408
     11 C12       -22.5780   16.2750   32.0740 C.2       1 JXS         0.0352
     12 C07       -24.5770   15.8920   31.1230 C.2       1 JXS         0.0510
     13 C08       -21.4650   16.3700   33.0940 C.ar      1 JXS        -0.0212
     14 C09       -20.4900   15.8310   35.4280 C.ar      1 JXS        -0.0127
     15 C10       -18.1430   12.3060   36.5700 C.ar      1 JXS         0.1226
     16 C14       -20.5050   11.0110   35.3800 C.ar      1 JXS         0.0846
     17 N17       -16.9160   12.6950   37.0670 N.2       1 JXS        -0.2028
     18 N18       -22.4560   16.5700   30.7620 N.2       1 JXS        -0.2102
     19 N19       -19.2100   10.3360   35.4550 N.ar      1 JXS        -0.2820
     20 N20       -16.0380   11.6450   36.8930 N.2       1 JXS        -0.0859
     21 N21       -16.7110   10.6130   36.2830 N.pl3     1 JXS        -0.1708
     22 N22       -23.6980   16.3350   30.1510 N.pl3     1 JXS        -0.2097
     23 N23       -21.6120   10.3590   34.7900 N.pl3     1 JXS        -0.3265
     24 O24       -19.5480   14.3340   37.0230 O.3       1 JXS        -0.2964
     25 H1        -22.5529   15.2190   34.6705 H         1 JXS         0.0552
     26 H2        -21.5882   12.8664   35.8339 H         1 JXS         0.0447
     27 H3        -18.1370   17.7228   33.4847 H         1 JXS         0.0598
     28 H4        -21.5974   14.6558   36.8074 H         1 JXS         0.0787
     29 H5        -20.6737   16.0133   37.5359 H         1 JXS         0.0787
     30 H6        -25.0396   16.2706   28.5792 H         1 JXS         0.0607
     31 H7        -23.3318   15.9008   28.1630 H         1 JXS         0.0607
     32 H8        -23.8246   17.5921   28.5144 H         1 JXS         0.0607
     33 H9        -20.0474   17.5296   31.7458 H         1 JXS         0.0559
     34 H10       -18.3766   16.5498   35.7620 H         1 JXS         0.0552
     35 H11       -24.3130   15.5212   33.2769 H         1 JXS         0.0351
     36 H12       -25.6225   15.6304   30.9667 H         1 JXS         0.0991
     37 H13       -16.3227    9.6907   36.0393 H         1 JXS         0.2586
     38 H14       -21.5120    9.3998   34.4283 H         1 JXS         0.1769
     39 H15       -22.5185   10.8432   34.7218 H         1 JXS         0.1769
@<TRIPOS>BOND
     1   13    1 ar 
     2    1   14 ar 
     3    7    2 ar 
     4    2   16 ar 
     5    8    3 ar 
     6    3    9 ar 
     7   15    4 ar 
     8    4   19 ar 
     9    4   21 1  
    10   14    5 1  
    11    5   24 1  
    12   22    6 1  
    13    7   15 ar 
    14   24    7 1  
    15   13    8 ar 
    16   14    9 ar 
    17   10   11 1  
    18   12   10 2  
    19   11   13 1  
    20   11   18 2  
    21   12   22 1  
    22   15   17 1  
    23   16   19 ar 
    24   16   23 1  
    25   17   20 2  
    26   18   22 1  
    27   20   21 1  
    28    1   25 1  
    29    2   26 1  
    30    3   27 1  
    31    5   28 1  
    32    5   29 1  
    33    6   30 1  
    34    6   31 1  
    35    6   32 1  
    36    8   33 1  
    37    9   34 1  
    38   10   35 1  
    39   12   36 1  
    40   21   37 1  
    41   23   38 1  
    42   23   39 1  
@<TRIPOS>SUBSTRUCTURE
     1 JXS         1

