### 
### Created by X-TOOL on Mon Aug  2 16:17:18 2021
### 

@<TRIPOS>MOLECULE
5qj3_ligand
   39    42     1     0     0
SMALL
GAST_HUCK


@<TRIPOS>ATOM
      1 C13        26.0280   -3.0910   22.4090 C.ar      1 JXP        -0.0214
      2 C18        25.7410   -3.3240   21.0620 C.ar      1 JXP        -0.0207
      3 C17        26.6700   -2.9990   20.1040 C.ar      1 JXP         0.1329
      4 C16        27.8990   -2.4780   20.3990 C.ar      1 JXP        -0.0281
      5 C15        28.1980   -2.2480   21.7330 C.ar      1 JXP        -0.0629
      6 C11        24.1260   -2.9570   25.6800 C.ar      1 JXP        -0.0537
      7 C12        22.9940   -3.6760   25.3550 C.ar      1 JXP         0.0441
      8 F          26.3330   -3.1670   18.7960 F         1 JXP        -0.1835
      9 O          20.5930   -4.8850   23.3090 O.3       1 JXP        -0.2975
     10 CL         21.7330   -3.7860   26.5300 Cl        1 JXP        -0.0766
     11 C1         19.5480   -7.0440   23.7440 C.ar      1 JXP         0.0061
     12 N1         17.1530   -7.1940   23.8210 N.ar      1 JXP        -0.3035
     13 C2         18.3750   -7.7610   23.9760 C.ar      1 JXP         0.0825
     14 N2         17.7940   -3.8630   22.6010 N.pl3     1 JXP        -0.1725
     15 C3         17.1400   -5.9310   23.3600 C.ar      1 JXP         0.1153
     16 N3         16.5150   -3.8760   22.6310 N.2       1 JXP        -0.0767
     17 C4         18.2490   -5.1450   23.0650 C.ar      1 JXP         0.1576
     18 N4         16.0310   -5.1100   23.0840 N.2       1 JXP        -0.1943
     19 C5         19.5080   -5.7290   23.3150 C.ar      1 JXP         0.1390
     20 N5         18.4010   -9.0750   24.2960 N.pl3     1 JXP        -0.3290
     21 C6         21.8270   -5.3650   23.8680 C.3       1 JXP         0.1070
     22 C7         22.8280   -4.2660   24.1050 C.ar      1 JXP         0.0020
     23 C8         23.8090   -4.0020   23.1450 C.ar      1 JXP        -0.0498
     24 C9         24.9890   -3.3140   23.4520 C.ar      1 JXP        -0.0255
     25 C10        25.1290   -2.8030   24.7440 C.ar      1 JXP        -0.0605
     26 C14        27.2700   -2.5360   22.7260 C.ar      1 JXP        -0.0581
     27 H1         24.7906   -3.7588   20.7744 H         1 JXP         0.0609
     28 H2         28.6149   -2.2525   19.6169 H         1 JXP         0.0605
     29 H3         29.1649   -1.8396   22.0039 H         1 JXP         0.0608
     30 H4         24.2272   -2.5155   26.6648 H         1 JXP         0.0606
     31 H5         20.5068   -7.5244   23.9022 H         1 JXP         0.0485
     32 H6         18.3886   -3.0778   22.2996 H         1 JXP         0.2585
     33 H7         17.5200   -9.5820   24.4625 H         1 JXP         0.1747
     34 H8         19.3018   -9.5685   24.3731 H         1 JXP         0.1747
     35 H9         22.2662   -6.0963   23.1735 H         1 JXP         0.0785
     36 H10        21.6102   -5.8556   24.8283 H         1 JXP         0.0785
     37 H11        23.6507   -4.3416   22.1278 H         1 JXP         0.0561
     38 H12        26.0377   -2.2782   25.0157 H         1 JXP         0.0567
     39 H13        27.5132   -2.3270   23.7615 H         1 JXP         0.0590
@<TRIPOS>BOND
     1    1    2 ar 
     2   24    1 1  
     3    1   26 ar 
     4    2    3 ar 
     5    3    4 ar 
     6    3    8 1  
     7    5    4 ar 
     8   26    5 ar 
     9    7    6 ar 
    10    6   25 ar 
    11    7   10 1  
    12   22    7 ar 
    13    9   19 1  
    14   21    9 1  
    15   11   13 ar 
    16   19   11 ar 
    17   13   12 ar 
    18   15   12 ar 
    19   13   20 1  
    20   14   16 1  
    21   17   14 1  
    22   17   15 ar 
    23   15   18 1  
    24   18   16 2  
    25   19   17 ar 
    26   22   21 1  
    27   23   22 ar 
    28   23   24 ar 
    29   24   25 ar 
    30    2   27 1  
    31    4   28 1  
    32    5   29 1  
    33    6   30 1  
    34   11   31 1  
    35   14   32 1  
    36   20   33 1  
    37   20   34 1  
    38   21   35 1  
    39   21   36 1  
    40   23   37 1  
    41   25   38 1  
    42   26   39 1  
@<TRIPOS>SUBSTRUCTURE
     1 JXP         1

