### 
### Created by X-TOOL on Mon Aug  2 16:11:35 2021
### 

@<TRIPOS>MOLECULE
5qqo_ligand
   67    71     1     0     0
SMALL
GAST_HUCK


@<TRIPOS>ATOM
      1 C13        45.5840  -20.6180   29.9390 C.ar      1 NRJ        -0.0842
      2 C17        44.2770  -22.4430   30.8390 C.ar      1 NRJ         0.0584
      3 C16        45.3150  -22.7220   31.7250 C.ar      1 NRJ        -0.0236
      4 C15        46.4830  -21.9620   31.7270 C.ar      1 NRJ         0.0525
      5 C19        48.7710  -21.9680   32.7320 C.2       1 NRJ         0.3495
      6 C22        50.7430  -22.1400   34.0440 C.3       1 NRJ         0.0668
      7 C24        42.7000  -24.0570   29.8450 C.2       1 NRJ         0.2056
      8 C12        44.4000  -21.3610   29.9360 C.ar      1 NRJ        -0.0212
      9 C34        36.7820  -13.3920   27.4840 C.ar      1 NRJ        -0.0680
     10 C27        41.5150  -24.9400   30.1710 C.3       1 NRJ         0.0498
     11 C33        37.4170  -14.6210   27.3870 C.ar      1 NRJ        -0.0574
     12 CL1        33.5660  -14.2360   29.6940 Cl        1 NRJ        -0.0725
     13 N2         39.2220  -19.2160   28.1970 N.am      1 NRJ        -0.2263
     14 C3         39.8170  -20.5400   28.4070 C.3       1 NRJ         0.1286
     15 C4         41.3130  -20.5570   28.4150 C.2       1 NRJ         0.1396
     16 C5         39.2860  -21.5870   27.4050 C.3       1 NRJ         0.0031
     17 C6         39.8080  -22.9720   27.6490 C.2       1 NRJ        -0.0938
     18 C7         39.8850  -23.5850   28.8150 C.2       1 NRJ        -0.0962
     19 N8         42.0690  -20.4290   27.3080 N.pl3     1 NRJ        -0.2632
     20 C9         43.3520  -20.6970   27.6610 C.2       1 NRJ         0.0292
     21 C10        43.3330  -20.9750   28.9980 C.2       1 NRJ        -0.0044
     22 N11        42.0430  -20.8750   29.4660 N.2       1 NRJ        -0.3325
     23 C14        46.6250  -20.9300   30.7980 C.ar      1 NRJ        -0.0583
     24 N18        47.4600  -22.3330   32.6910 N.am      1 NRJ        -0.2133
     25 O20        49.3490  -22.4910   33.8260 O.3       1 NRJ        -0.2623
     26 O21        49.3570  -21.3070   31.9000 O.2       1 NRJ        -0.3669
     27 N23        43.1090  -23.2550   30.8530 N.am      1 NRJ        -0.2366
     28 O25        43.2310  -24.0670   28.7360 O.2       1 NRJ        -0.3844
     29 C26        40.4570  -24.9260   29.0590 C.3       1 NRJ        -0.0190
     30 C28        38.9740  -18.8050   26.8030 C.3       1 NRJ         0.0435
     31 C29        38.4860  -17.3570   26.7500 C.3       1 NRJ         0.0084
     32 C30        37.5590  -17.0920   27.9180 C.3       1 NRJ         0.1238
     33 O31        38.3480  -17.2880   29.1360 O.3       1 NRJ        -0.2470
     34 C32        36.8710  -15.7480   27.9920 C.ar      1 NRJ        -0.0094
     35 C35        35.5830  -13.2700   28.1670 C.ar      1 NRJ        -0.0548
     36 C36        35.0510  -14.3880   28.7790 C.ar      1 NRJ         0.0339
     37 C37        35.6740  -15.6220   28.7010 C.ar      1 NRJ        -0.0437
     38 C38        39.0740  -18.4150   29.2720 C.2       1 NRJ         0.3272
     39 O39        39.5980  -18.6270   30.3420 O.2       1 NRJ        -0.3772
     40 H1         45.6895  -19.7824   29.2566 H         1 NRJ         0.0509
     41 H2         45.2125  -23.5438   32.4244 H         1 NRJ         0.0370
     42 H3         51.1035  -22.6242   34.9635 H         1 NRJ         0.0575
     43 H4         50.8350  -21.0484   34.1442 H         1 NRJ         0.0575
     44 H5         51.3452  -22.4818   33.1893 H         1 NRJ         0.0575
     45 H6         37.2278  -12.5190   27.0212 H         1 NRJ         0.0599
     46 H7         41.0533  -24.5830   31.1034 H         1 NRJ         0.0528
     47 H8         41.8698  -25.9720   30.3091 H         1 NRJ         0.0528
     48 H9         38.3464  -14.7039   26.8352 H         1 NRJ         0.0559
     49 H10        39.4954  -20.8622   29.4084 H         1 NRJ         0.0819
     50 H11        39.5803  -21.2783   26.3911 H         1 NRJ         0.0438
     51 H12        38.1886  -21.6116   27.4768 H         1 NRJ         0.0438
     52 H13        40.1576  -23.5257   26.7788 H         1 NRJ         0.0453
     53 H14        39.4899  -23.0527   29.6790 H         1 NRJ         0.0451
     54 H15        41.7354  -20.1747   26.3673 H         1 NRJ         0.2370
     55 H16        44.2234  -20.6914   27.0079 H         1 NRJ         0.0770
     56 H17        47.5525  -20.3711   30.7486 H         1 NRJ         0.0383
     57 H18        47.1469  -22.9337   33.4266 H         1 NRJ         0.2271
     58 H19        42.5435  -23.2303   31.6774 H         1 NRJ         0.2263
     59 H20        39.6416  -25.6071   29.3439 H         1 NRJ         0.0413
     60 H21        40.9234  -25.2815   28.1284 H         1 NRJ         0.0413
     61 H22        38.2086  -19.4611   26.3629 H         1 NRJ         0.0526
     62 H23        39.9076  -18.8935   26.2280 H         1 NRJ         0.0526
     63 H24        37.9454  -17.1868   25.8073 H         1 NRJ         0.0335
     64 H25        39.3490  -16.6772   26.8057 H         1 NRJ         0.0335
     65 H26        36.7648  -17.8521   27.8797 H         1 NRJ         0.0813
     66 H27        35.0721  -12.3154   28.2201 H         1 NRJ         0.0565
     67 H28        35.2353  -16.4857   29.1875 H         1 NRJ         0.0563
@<TRIPOS>BOND
     1    8    1 ar 
     2    1   23 ar 
     3    2    3 ar 
     4    8    2 ar 
     5    2   27 1  
     6    3    4 ar 
     7   23    4 ar 
     8    4   24 1  
     9   24    5 am 
    10    5   25 1  
    11    5   26 2  
    12   25    6 1  
    13   10    7 1  
    14    7   27 am 
    15    7   28 2  
    16   21    8 1  
    17    9   11 ar 
    18   35    9 ar 
    19   29   10 1  
    20   11   34 ar 
    21   36   12 1  
    22   13   14 1  
    23   30   13 1  
    24   38   13 am 
    25   14   15 1  
    26   14   16 1  
    27   15   19 1  
    28   15   22 2  
    29   16   17 1  
    30   17   18 2  
    31   18   29 1  
    32   19   20 1  
    33   21   20 2  
    34   22   21 1  
    35   31   30 1  
    36   32   31 1  
    37   32   33 1  
    38   34   32 1  
    39   33   38 1  
    40   34   37 ar 
    41   35   36 ar 
    42   36   37 ar 
    43   38   39 2  
    44    1   40 1  
    45    3   41 1  
    46    6   42 1  
    47    6   43 1  
    48    6   44 1  
    49    9   45 1  
    50   10   46 1  
    51   10   47 1  
    52   11   48 1  
    53   14   49 1  
    54   16   50 1  
    55   16   51 1  
    56   17   52 1  
    57   18   53 1  
    58   19   54 1  
    59   20   55 1  
    60   23   56 1  
    61   24   57 1  
    62   27   58 1  
    63   29   59 1  
    64   29   60 1  
    65   30   61 1  
    66   30   62 1  
    67   31   63 1  
    68   31   64 1  
    69   32   65 1  
    70   35   66 1  
    71   37   67 1  
@<TRIPOS>SUBSTRUCTURE
     1 NRJ         1

