### 
### Created by X-TOOL on Mon Aug  2 16:12:14 2021
### 

@<TRIPOS>MOLECULE
5qqp_ligand
   69    73     1     0     0
SMALL
GAST_HUCK


@<TRIPOS>ATOM
      1 C13        46.5830  -20.8850   30.7400 C.ar      1 NR7        -0.0583
      2 C18        48.7390  -21.9120   32.6550 C.2       1 NR7         0.3495
      3 C16        44.2550  -22.4270   30.7590 C.ar      1 NR7         0.0584
      4 C15        45.2960  -22.7090   31.6390 C.ar      1 NR7        -0.0236
      5 C21        50.7380  -22.1580   33.9140 C.3       1 NR7         0.0668
      6 C23        39.9010  -23.6150   28.6980 C.2       1 NR7        -0.0962
      7 C24        40.4860  -24.9590   28.9250 C.3       1 NR7        -0.0190
      8 C11        44.3660  -21.3290   29.8740 C.ar      1 NR7        -0.0212
      9 C12        45.5400  -20.5750   29.8840 C.ar      1 NR7        -0.0842
     10 C34        37.2190  -14.6660   27.3140 C.ar      1 NR7        -0.0598
     11 C33        36.6530  -15.7640   27.9580 C.ar      1 NR7        -0.0372
     12 CL1        33.4470  -14.1120   29.6970 Cl        1 NR7        -0.0725
     13 C2         39.7560  -20.5770   28.3080 C.3       1 NR7         0.1267
     14 C3         39.2380  -21.6180   27.2900 C.3       1 NR7         0.0031
     15 C4         39.7870  -22.9980   27.5280 C.2       1 NR7        -0.0938
     16 N5         39.2000  -19.2280   28.1690 N.am      1 NR7        -0.2507
     17 C6         41.2490  -20.6160   28.3410 C.2       1 NR7         0.1397
     18 N7         42.0180  -20.4440   27.2480 N.pl3     1 NR7        -0.2632
     19 C8         43.3060  -20.6480   27.6200 C.2       1 NR7         0.0292
     20 C9         43.2860  -20.9460   28.9520 C.2       1 NR7        -0.0044
     21 N10        41.9740  -20.9120   29.4020 N.2       1 NR7        -0.3325
     22 C14        46.4560  -21.9370   31.6480 C.ar      1 NR7         0.0525
     23 N17        47.4390  -22.3120   32.6000 N.am      1 NR7        -0.2133
     24 O19        49.3070  -21.2140   31.8420 O.2       1 NR7        -0.3669
     25 O20        49.3230  -22.4360   33.7440 O.3       1 NR7        -0.2623
     26 N22        43.1090  -23.2640   30.7350 N.am      1 NR7        -0.2366
     27 C25        41.5650  -24.9780   30.0230 C.3       1 NR7         0.0498
     28 C26        42.7160  -24.0530   29.7100 C.2       1 NR7         0.2056
     29 O27        43.2440  -24.0340   28.6030 O.2       1 NR7        -0.3844
     30 C28        38.2340  -17.2300   29.2370 C.3       1 NR7         0.0501
     31 C29        39.1170  -18.4530   29.2890 C.2       1 NR7         0.1833
     32 C30        37.3640  -17.1060   28.0020 C.3       1 NR7         0.0113
     33 C31        38.2380  -17.4060   26.7910 C.3       1 NR7        -0.0176
     34 C32        38.7330  -18.8560   26.8170 C.3       1 NR7         0.0393
     35 C35        36.6200  -13.4180   27.3870 C.ar      1 NR7        -0.0680
     36 C36        35.4290  -13.2500   28.0730 C.ar      1 NR7        -0.0548
     37 C37        34.8810  -14.3360   28.7250 C.ar      1 NR7         0.0338
     38 C38        35.4700  -15.5860   28.6720 C.ar      1 NR7        -0.0461
     39 O39        39.7110  -18.7440   30.3180 O.2       1 NR7        -0.3965
     40 H1         47.5007  -20.3090   30.7048 H         1 NR7         0.0383
     41 H2         45.2029  -23.5413   32.3273 H         1 NR7         0.0370
     42 H3         51.0978  -22.6382   34.8359 H         1 NR7         0.0575
     43 H4         50.8925  -21.0711   33.9824 H         1 NR7         0.0575
     44 H5         51.2956  -22.5542   33.0526 H         1 NR7         0.0575
     45 H6         39.5300  -23.0843   29.5736 H         1 NR7         0.0451
     46 H7         40.9393  -25.3055   27.9846 H         1 NR7         0.0413
     47 H8         39.6784  -25.6460   29.2178 H         1 NR7         0.0413
     48 H9         45.6371  -19.7318   29.2098 H         1 NR7         0.0509
     49 H10        38.1368  -14.7887   26.7503 H         1 NR7         0.0558
     50 H11        39.4173  -20.9254   29.2949 H         1 NR7         0.0819
     51 H12        39.5289  -21.2948   26.2796 H         1 NR7         0.0438
     52 H13        38.1411  -21.6606   27.3598 H         1 NR7         0.0438
     53 H14        40.1256  -23.5473   26.6508 H         1 NR7         0.0453
     54 H15        41.6879  -20.2019   26.3028 H         1 NR7         0.2370
     55 H16        44.1853  -20.5861   26.9805 H         1 NR7         0.0770
     56 H17        47.1417  -22.9448   33.3149 H         1 NR7         0.2271
     57 H18        42.5372  -23.2707   31.5553 H         1 NR7         0.2263
     58 H19        41.9516  -26.0031   30.1216 H         1 NR7         0.0528
     59 H20        41.1082  -24.6653   30.9736 H         1 NR7         0.0528
     60 H21        38.8814  -16.3421   29.2861 H         1 NR7         0.0528
     61 H22        37.5734  -17.2512   30.1163 H         1 NR7         0.0528
     62 H23        36.5837  -17.8799   28.0495 H         1 NR7         0.0486
     63 H24        39.1054  -16.7296   26.7969 H         1 NR7         0.0311
     64 H25        37.6517  -17.2424   25.8748 H         1 NR7         0.0311
     65 H26        37.9092  -19.5234   26.5239 H         1 NR7         0.0526
     66 H27        39.5647  -18.9657   26.1055 H         1 NR7         0.0526
     67 H28        37.0873  -12.5676   26.9036 H         1 NR7         0.0599
     68 H29        34.9367  -12.2845   28.0975 H         1 NR7         0.0565
     69 H30        35.0127  -16.4247   29.1844 H         1 NR7         0.0562
@<TRIPOS>BOND
     1    9    1 ar 
     2    1   22 ar 
     3   23    2 am 
     4    2   24 2  
     5    2   25 1  
     6    3    4 ar 
     7    8    3 ar 
     8    3   26 1  
     9    4   22 ar 
    10   25    5 1  
    11    6    7 1  
    12   15    6 2  
    13    7   27 1  
    14    8    9 ar 
    15   20    8 1  
    16   10   11 ar 
    17   35   10 ar 
    18   11   32 1  
    19   11   38 ar 
    20   37   12 1  
    21   13   14 1  
    22   16   13 1  
    23   13   17 1  
    24   14   15 1  
    25   31   16 am 
    26   34   16 1  
    27   17   18 1  
    28   17   21 2  
    29   18   19 1  
    30   20   19 2  
    31   21   20 1  
    32   22   23 1  
    33   26   28 am 
    34   27   28 1  
    35   28   29 2  
    36   30   31 1  
    37   32   30 1  
    38   31   39 2  
    39   32   33 1  
    40   33   34 1  
    41   36   35 ar 
    42   36   37 ar 
    43   37   38 ar 
    44    1   40 1  
    45    4   41 1  
    46    5   42 1  
    47    5   43 1  
    48    5   44 1  
    49    6   45 1  
    50    7   46 1  
    51    7   47 1  
    52    9   48 1  
    53   10   49 1  
    54   13   50 1  
    55   14   51 1  
    56   14   52 1  
    57   15   53 1  
    58   18   54 1  
    59   19   55 1  
    60   23   56 1  
    61   26   57 1  
    62   27   58 1  
    63   27   59 1  
    64   30   60 1  
    65   30   61 1  
    66   32   62 1  
    67   33   63 1  
    68   33   64 1  
    69   34   65 1  
    70   34   66 1  
    71   35   67 1  
    72   36   68 1  
    73   38   69 1  
@<TRIPOS>SUBSTRUCTURE
     1 NR7         1

