### 
### Created by X-TOOL on Mon Aug  2 16:12:14 2021
### 

@<TRIPOS>MOLECULE
5qtt_ligand
   72    76     1     0     0
SMALL
GAST_HUCK


@<TRIPOS>ATOM
      1 C18        43.1070  -24.2020   29.8330 C.2       1 QEY         0.2084
      2 C17        42.5870  -21.1410   29.0300 C.ar      1 QEY        -0.0325
      3 C16        43.9560  -21.1800   28.7800 C.ar      1 QEY        -0.0225
      4 C15        44.3750  -20.9660   27.4660 C.ar      1 QEY        -0.0426
      5 C19        49.0310  -22.0270   32.9940 C.2       1 QEY         0.3514
      6 C22        50.8870  -22.0750   34.4610 C.3       1 QEY         0.0668
      7 C23        39.7500  -22.5310   27.5720 C.3       1 QEY        -0.0180
      8 C24        40.5260  -23.7630   28.0370 C.3       1 QEY        -0.0466
      9 C11        40.2220  -21.2090   28.1820 C.3       1 QEY         0.0873
     10 C34        35.3250  -15.0270   28.4320 C.ar      1 QEY         0.1808
     11 C33        34.6730  -13.8550   28.7460 C.ar      1 QEY         0.0692
     12 CL1        33.3320  -13.8840   29.8470 Cl        1 QEY        -0.0742
     13 C2         44.6980  -22.5700   30.7890 C.ar      1 QEY         0.0674
     14 C3         44.9250  -21.5330   29.8550 C.ar      1 QEY        -0.0020
     15 C4         46.1420  -20.8470   29.9070 C.ar      1 QEY        -0.0744
     16 C5         47.1050  -21.1750   30.8440 C.ar      1 QEY        -0.0511
     17 C6         46.8640  -22.1800   31.7830 C.ar      1 QEY         0.0589
     18 C7         45.6670  -22.8950   31.7340 C.ar      1 QEY        -0.0174
     19 N8         43.4840  -23.3100   30.7810 N.am      1 QEY        -0.2328
     20 N9         47.7690  -22.5000   32.8260 N.am      1 QEY        -0.2096
     21 C10        41.7000  -20.9540   27.9810 C.ar      1 QEY         0.0454
     22 N12        39.4680  -20.0980   27.6240 N.am      1 QEY        -0.2778
     23 N13        42.1000  -20.7270   26.7180 N.ar      1 QEY        -0.3045
     24 C14        43.4250  -20.7490   26.4840 C.ar      1 QEY        -0.0043
     25 O20        49.6420  -21.3310   32.2140 O.2       1 QEY        -0.3661
     26 O21        49.5350  -22.4930   34.1460 O.3       1 QEY        -0.2620
     27 C25        40.5870  -23.9680   29.5620 C.3       1 QEY        -0.0327
     28 C26        41.7500  -24.8480   30.0560 C.3       1 QEY         0.0522
     29 O27        43.7810  -24.4350   28.8320 O.2       1 QEY        -0.3834
     30 C28        41.7060  -26.2400   29.4230 C.3       1 QEY        -0.0448
     31 C29        39.2250  -18.9860   28.3290 C.2       1 QEY         0.1733
     32 O30        39.7420  -18.7410   29.4160 O.2       1 QEY        -0.4104
     33 C31        36.2490  -12.6310   27.4190 C.ar      1 QEY        -0.0699
     34 C32        35.1160  -12.6510   28.2240 C.ar      1 QEY        -0.0571
     35 C35        36.4400  -15.0050   27.6190 C.ar      1 QEY         0.1459
     36 C36        36.9310  -13.8030   27.1220 C.ar      1 QEY        -0.0279
     37 N37        37.1440  -16.2130   27.4300 N.pl3     1 QEY        -0.1365
     38 C38        37.9130  -16.8790   28.3310 C.2       1 QEY         0.1947
     39 C39        38.3350  -18.0340   27.7070 C.2       1 QEY         0.0805
     40 C40        37.7310  -17.9890   26.4340 C.2       1 QEY        -0.0042
     41 N41        37.0270  -16.8920   26.2510 N.2       1 QEY        -0.2224
     42 N42        38.1240  -16.4560   29.6120 N.pl3     1 QEY        -0.3000
     43 F43        34.9390  -16.1760   29.0070 F         1 QEY        -0.1853
     44 H1         42.2157  -21.2565   30.0419 H         1 QEY         0.0602
     45 H2         45.4303  -20.9698   27.2183 H         1 QEY         0.0611
     46 H3         51.1924  -22.5152   35.4217 H         1 QEY         0.0575
     47 H4         50.9245  -20.9779   34.5320 H         1 QEY         0.0575
     48 H5         51.5699  -22.4147   33.6684 H         1 QEY         0.0575
     49 H6         38.6920  -22.6723   27.8376 H         1 QEY         0.0312
     50 H7         39.8470  -22.4576   26.4788 H         1 QEY         0.0312
     51 H8         41.5574  -23.6750   27.6649 H         1 QEY         0.0269
     52 H9         40.0508  -24.6507   27.5940 H         1 QEY         0.0269
     53 H10        40.0300  -21.2528   29.2642 H         1 QEY         0.0744
     54 H11        46.3338  -20.0459   29.2023 H         1 QEY         0.0570
     55 H12        48.0526  -20.6487   30.8495 H         1 QEY         0.0404
     56 H13        45.4913  -23.7048   32.4329 H         1 QEY         0.0384
     57 H14        42.8528  -23.1590   31.5418 H         1 QEY         0.2284
     58 H15        47.4416  -23.1464   33.5152 H         1 QEY         0.2294
     59 H16        39.1216  -20.1663   26.6884 H         1 QEY         0.1860
     60 H17        43.7674  -20.5875   25.4683 H         1 QEY         0.0781
     61 H18        39.6448  -24.4378   29.8808 H         1 QEY         0.0292
     62 H19        40.6825  -22.9797   30.0353 H         1 QEY         0.0292
     63 H20        41.6224  -24.9738   31.1413 H         1 QEY         0.0541
     64 H21        42.5487  -26.8398   29.7973 H         1 QEY         0.0257
     65 H22        41.7787  -26.1479   28.3293 H         1 QEY         0.0257
     66 H23        40.7590  -26.7333   29.6873 H         1 QEY         0.0257
     67 H24        36.6044  -11.6886   27.0182 H         1 QEY         0.0565
     68 H25        34.5837  -11.7321   28.4414 H         1 QEY         0.0549
     69 H26        37.8286  -13.7815   26.5146 H         1 QEY         0.0570
     70 H27        37.8352  -18.7737   25.6861 H         1 QEY         0.0647
     71 H28        38.7191  -17.0087   30.2454 H         1 QEY         0.1830
     72 H29        37.6881  -15.5842   29.9449 H         1 QEY         0.1830
@<TRIPOS>BOND
     1    1   19 am 
     2   28    1 1  
     3    1   29 2  
     4    2    3 ar 
     5   21    2 ar 
     6    3    4 ar 
     7    3   14 1  
     8   24    4 ar 
     9   20    5 am 
    10    5   25 2  
    11    5   26 1  
    12   26    6 1  
    13    7    8 1  
    14    9    7 1  
    15    8   27 1  
    16    9   21 1  
    17   22    9 1  
    18   10   11 ar 
    19   35   10 ar 
    20   10   43 1  
    21   11   12 1  
    22   11   34 ar 
    23   14   13 ar 
    24   13   18 ar 
    25   13   19 1  
    26   14   15 ar 
    27   15   16 ar 
    28   16   17 ar 
    29   18   17 ar 
    30   17   20 1  
    31   21   23 ar 
    32   31   22 am 
    33   23   24 ar 
    34   27   28 1  
    35   28   30 1  
    36   31   32 2  
    37   39   31 1  
    38   33   34 ar 
    39   36   33 ar 
    40   35   36 ar 
    41   37   35 1  
    42   38   37 1  
    43   37   41 1  
    44   38   39 2  
    45   38   42 1  
    46   39   40 1  
    47   40   41 2  
    48    2   44 1  
    49    4   45 1  
    50    6   46 1  
    51    6   47 1  
    52    6   48 1  
    53    7   49 1  
    54    7   50 1  
    55    8   51 1  
    56    8   52 1  
    57    9   53 1  
    58   15   54 1  
    59   16   55 1  
    60   18   56 1  
    61   19   57 1  
    62   20   58 1  
    63   22   59 1  
    64   24   60 1  
    65   27   61 1  
    66   27   62 1  
    67   28   63 1  
    68   30   64 1  
    69   30   65 1  
    70   30   66 1  
    71   33   67 1  
    72   34   68 1  
    73   36   69 1  
    74   40   70 1  
    75   42   71 1  
    76   42   72 1  
@<TRIPOS>SUBSTRUCTURE
     1 QEY         1

