### 
### Created by X-TOOL on Mon Aug  2 16:11:35 2021
### 

@<TRIPOS>MOLECULE
5qtu_ligand
   73    77     1     0     0
SMALL
GAST_HUCK


@<TRIPOS>ATOM
      1 C18        43.2290  -24.4340   29.7970 C.2       1 QEV         0.2084
      2 C17        42.7290  -21.3310   29.0740 C.ar      1 QEV        -0.0325
      3 C16        44.0960  -21.3530   28.8000 C.ar      1 QEV        -0.0225
      4 C15        44.4890  -21.0690   27.4920 C.ar      1 QEV        -0.0426
      5 C19        49.1240  -22.1880   33.1210 C.2       1 QEV         0.3514
      6 C22        50.9780  -22.3430   34.5790 C.3       1 QEV         0.0668
      7 C23        39.9330  -22.7350   27.5670 C.3       1 QEV        -0.0180
      8 C24        40.6780  -23.9900   28.0260 C.3       1 QEV        -0.0466
      9 C11        40.3480  -21.4250   28.2540 C.3       1 QEV         0.0875
     10 C34        35.4900  -15.1920   28.3680 C.ar      1 QEV         0.1809
     11 C33        34.8800  -14.0000   28.6920 C.ar      1 QEV         0.0698
     12 CL1        33.5210  -13.9930   29.7620 Cl        1 QEV        -0.0741
     13 C2         44.8610  -22.8010   30.7560 C.ar      1 QEV         0.0674
     14 C3         45.0880  -21.7530   29.8380 C.ar      1 QEV        -0.0020
     15 C4         46.2950  -21.0540   29.9230 C.ar      1 QEV        -0.0744
     16 C5         47.2320  -21.3490   30.8990 C.ar      1 QEV        -0.0511
     17 C6         46.9900  -22.3640   31.8240 C.ar      1 QEV         0.0589
     18 C7         45.8130  -23.1030   31.7290 C.ar      1 QEV        -0.0174
     19 N8         43.6480  -23.5420   30.7260 N.am      1 QEV        -0.2328
     20 N9         47.8800  -22.6940   32.8860 N.am      1 QEV        -0.2096
     21 C10        41.8190  -21.1290   28.0410 C.ar      1 QEV         0.0454
     22 N12        39.5610  -20.3160   27.7410 N.am      1 QEV        -0.2760
     23 N13        42.1980  -20.8400   26.7860 N.ar      1 QEV        -0.3045
     24 C14        43.5200  -20.8080   26.5380 C.ar      1 QEV        -0.0043
     25 O20        49.7270  -21.4040   32.4200 O.2       1 QEV        -0.3661
     26 O21        49.6220  -22.7240   34.2450 O.3       1 QEV        -0.2620
     27 C25        40.6720  -24.2510   29.5460 C.3       1 QEV        -0.0327
     28 C26        41.8690  -25.0540   30.0690 C.3       1 QEV         0.0522
     29 O27        43.8670  -24.7010   28.7810 O.2       1 QEV        -0.3834
     30 C28        41.8420  -26.4920   29.5460 C.3       1 QEV        -0.0448
     31 C29        39.3870  -19.2040   28.4700 C.2       1 QEV         0.1844
     32 O30        39.9140  -19.0200   29.5630 O.2       1 QEV        -0.4049
     33 C31        36.4230  -12.8270   27.2990 C.ar      1 QEV        -0.0693
     34 C32        35.3380  -12.8100   28.1590 C.ar      1 QEV        -0.0565
     35 C35        36.5610  -15.2160   27.4930 C.ar      1 QEV         0.1356
     36 C36        37.0500  -14.0210   26.9740 C.ar      1 QEV        -0.0279
     37 N37        37.3450  -16.4040   27.3800 N.pl3     1 QEV        -0.1950
     38 C38        38.1100  -16.9800   28.3690 C.2       1 QEV         0.0937
     39 C39        38.5230  -18.1770   27.8420 C.2       1 QEV         0.0894
     40 N40        38.0060  -18.3650   26.5690 N.2       1 QEV        -0.3197
     41 C41        37.3230  -17.2740   26.3280 C.2       1 QEV         0.1105
     42 C42        38.2510  -16.4010   29.7380 C.3       1 QEV         0.0006
     43 F43        35.1060  -16.3200   28.9880 F         1 QEV        -0.1848
     44 H1         42.3761  -21.4709   30.0893 H         1 QEV         0.0602
     45 H2         45.5397  -21.0528   27.2258 H         1 QEV         0.0611
     46 H3         51.2787  -22.8393   35.5135 H         1 QEV         0.0575
     47 H4         51.0307  -21.2521   34.7099 H         1 QEV         0.0575
     48 H5         51.6551  -22.6481   33.7675 H         1 QEV         0.0575
     49 H6         38.8606  -22.8906   27.7559 H         1 QEV         0.0312
     50 H7         40.1018  -22.6180   26.4864 H         1 QEV         0.0312
     51 H8         41.7254  -23.8989   27.7026 H         1 QEV         0.0269
     52 H9         40.2158  -24.8574   27.5321 H         1 QEV         0.0269
     53 H10        40.1618  -21.5245   29.3335 H         1 QEV         0.0744
     54 H11        46.5022  -20.2643   29.2099 H         1 QEV         0.0570
     55 H12        48.1584  -20.7880   30.9442 H         1 QEV         0.0404
     56 H13        45.6355  -23.9207   32.4181 H         1 QEV         0.0384
     57 H14        43.0228  -23.3840   31.4903 H         1 QEV         0.2284
     58 H15        47.5532  -23.3789   33.5373 H         1 QEV         0.2294
     59 H16        39.1446  -20.3830   26.8343 H         1 QEV         0.1863
     60 H17        43.8453  -20.5638   25.5332 H         1 QEV         0.0781
     61 H18        39.7546  -24.8051   29.7937 H         1 QEV         0.0292
     62 H19        40.6628  -23.2783   30.0595 H         1 QEV         0.0292
     63 H20        41.7571  -25.0997   31.1623 H         1 QEV         0.0541
     64 H21        42.7111  -27.0410   29.9377 H         1 QEV         0.0257
     65 H22        41.8790  -26.4831   28.4467 H         1 QEV         0.0257
     66 H23        40.9166  -26.9856   29.8778 H         1 QEV         0.0257
     67 H24        36.7862  -11.8977   26.8753 H         1 QEV         0.0566
     68 H25        34.8533  -11.8738   28.4114 H         1 QEV         0.0554
     69 H26        37.9148  -14.0231   26.3204 H         1 QEV         0.0576
     70 H27        36.7969  -17.0823   25.3940 H         1 QEV         0.1196
     71 H28        38.9108  -17.0421   30.3410 H         1 QEV         0.0438
     72 H29        37.2615  -16.3418   30.2148 H         1 QEV         0.0438
     73 H30        38.6847  -15.3926   29.6668 H         1 QEV         0.0438
@<TRIPOS>BOND
     1    1   19 am 
     2   28    1 1  
     3    1   29 2  
     4    2    3 ar 
     5   21    2 ar 
     6    3    4 ar 
     7    3   14 1  
     8   24    4 ar 
     9   20    5 am 
    10    5   25 2  
    11    5   26 1  
    12   26    6 1  
    13    7    8 1  
    14    9    7 1  
    15    8   27 1  
    16    9   21 1  
    17   22    9 1  
    18   10   11 ar 
    19   35   10 ar 
    20   10   43 1  
    21   11   12 1  
    22   11   34 ar 
    23   14   13 ar 
    24   13   18 ar 
    25   13   19 1  
    26   14   15 ar 
    27   15   16 ar 
    28   16   17 ar 
    29   18   17 ar 
    30   17   20 1  
    31   21   23 ar 
    32   31   22 am 
    33   23   24 ar 
    34   27   28 1  
    35   28   30 1  
    36   31   32 2  
    37   39   31 1  
    38   33   34 ar 
    39   36   33 ar 
    40   35   36 ar 
    41   37   35 1  
    42   38   37 1  
    43   37   41 1  
    44   38   39 2  
    45   38   42 1  
    46   39   40 1  
    47   40   41 2  
    48    2   44 1  
    49    4   45 1  
    50    6   46 1  
    51    6   47 1  
    52    6   48 1  
    53    7   49 1  
    54    7   50 1  
    55    8   51 1  
    56    8   52 1  
    57    9   53 1  
    58   15   54 1  
    59   16   55 1  
    60   18   56 1  
    61   19   57 1  
    62   20   58 1  
    63   22   59 1  
    64   24   60 1  
    65   27   61 1  
    66   27   62 1  
    67   28   63 1  
    68   30   64 1  
    69   30   65 1  
    70   30   66 1  
    71   33   67 1  
    72   34   68 1  
    73   36   69 1  
    74   41   70 1  
    75   42   71 1  
    76   42   72 1  
    77   42   73 1  
@<TRIPOS>SUBSTRUCTURE
     1 QEV         1

