### 
### Created by X-TOOL on Tue Oct 16 15:18:03 2018
### 

@<TRIPOS>MOLECULE
5swg_ligand
   14    14     1     0     0
SMALL
GAST_HUCK


@<TRIPOS>ATOM
      1 C1         57.7150   47.4780   73.9560 C.ar      1 CAQ        -0.0819
      2 C2         58.4890   46.5900   73.2040 C.ar      1 CAQ        -0.0417
      3 C3         58.6350   45.2580   73.6180 C.ar      1 CAQ         0.1160
      4 O3         59.3830   44.3850   72.8910 O.3       1 CAQ        -0.3369
      5 C4         58.0110   44.8090   74.7780 C.ar      1 CAQ         0.1160
      6 O4         57.8980   43.4660   75.0000 O.3       1 CAQ        -0.3369
      7 C5         57.2350   45.7030   75.5300 C.ar      1 CAQ        -0.0417
      8 C6         57.0850   47.0340   75.1220 C.ar      1 CAQ        -0.0819
      9 H1         57.6036   48.5077   73.6361 H         1 CAQ         0.0495
     10 H2         58.9776   46.9315   72.2986 H         1 CAQ         0.0509
     11 H3         59.3735   43.5338   73.3129 H         1 CAQ         0.2442
     12 H4         58.7643   43.0776   75.0325 H         1 CAQ         0.2442
     13 H5         56.7469   45.3605   76.4353 H         1 CAQ         0.0509
     14 H6         56.4822   47.7179   75.7085 H         1 CAQ         0.0495
@<TRIPOS>BOND
     1    1    2 ar 
     2    1    8 ar 
     3    2    3 ar 
     4    3    4 1  
     5    3    5 ar 
     6    5    6 1  
     7    5    7 ar 
     8    7    8 ar 
     9    1    9 1  
    10    2   10 1  
    11    4   11 1  
    12    6   12 1  
    13    7   13 1  
    14    8   14 1  
@<TRIPOS>SUBSTRUCTURE
     1 CAQ         1

