### 
### Created by X-TOOL on Fri Nov  2 10:13:28 2018
### 

@<TRIPOS>MOLECULE
5swh_ligand
   56    58     1     0     0
SMALL
GAST_HUCK


@<TRIPOS>ATOM
      1 C1        -12.3890  -35.5720    5.8700 C.ar      1 MOL         0.0480
      2 C2        -10.5040  -36.7560    5.9290 C.ar      1 MOL         0.1386
      3 C3         -9.8980  -35.8360    6.7930 C.ar      1 MOL         0.0473
      4 C4         -8.6520  -36.4210    7.1870 C.2       1 MOL        -0.0019
      5 C5         -7.6880  -35.7510    8.0850 C.ar      1 MOL        -0.0458
      6 C6         -6.7270  -34.8860    7.5820 C.ar      1 MOL        -0.0668
      7 C13        -6.0930  -38.3090    6.3140 C.3       1 MOL         0.1855
      8 C14        -6.1090  -37.4650    5.1140 C.1       1 MOL         0.1177
      9 C15        -5.1470  -39.4930    6.0840 C.2       1 MOL         0.2081
     10 C16        -2.9250  -40.3180    6.8290 C.3       1 MOL         0.0365
     11 C17        -1.5570  -39.7220    7.1260 C.3       1 MOL        -0.0423
     12 C18        -2.8390  -41.4360    5.8090 C.3       1 MOL        -0.0423
     13 C19        -9.4330  -38.2690    4.2740 C.3       1 MOL         0.0807
     14 C20        -9.8440  -39.7250    4.2030 C.3       1 MOL         0.0744
     15 O          -5.5680  -40.5680    5.6540 O.2       1 MOL        -0.3942
     16 N4         -3.8530  -39.2720    6.3720 N.am      1 MOL        -0.2823
     17 N3         -6.1630  -36.8250    4.1740 N.1       1 MOL        -0.3003
     18 C12        -7.5330  -38.7600    6.6890 C.3       1 MOL         0.0561
     19 C11        -8.5760  -37.6460    6.5740 C.2       1 MOL         0.0733
     20 N5         -9.5930  -37.7690    5.6500 N.pl3     1 MOL        -0.2350
     21 O1         -8.9660  -40.4180    3.3040 O.3       1 MOL        -0.3803
     22 C21        -9.4810  -41.6850    2.8750 C.3       1 MOL         0.0366
     23 N2        -11.7540  -36.6670    5.4450 N.ar      1 MOL        -0.2789
     24 N1        -11.9370  -34.6010    6.6680 N.ar      1 MOL        -0.2763
     25 C         -10.6800  -34.7050    7.1470 C.ar      1 MOL         0.1130
     26 N         -10.2380  -33.7290    7.9390 N.pl3     1 MOL        -0.3176
     27 C10        -7.7700  -35.9340    9.4600 C.ar      1 MOL        -0.0668
     28 C9         -6.9210  -35.2600   10.3170 C.ar      1 MOL        -0.0567
     29 C8         -5.9810  -34.4080    9.7940 C.ar      1 MOL         0.0315
     30 CL         -4.8990  -33.5760   10.8720 Cl        1 MOL        -0.0781
     31 C7         -5.8710  -34.2100    8.4350 C.ar      1 MOL        -0.0567
     32 H1        -13.4084  -35.4554    5.5204 H         1 MOL         0.0956
     33 H2         -6.6455  -34.7380    6.5112 H         1 MOL         0.0544
     34 H3         -5.6987  -37.7151    7.1517 H         1 MOL         0.0867
     35 H4         -3.3201  -40.7423    7.7638 H         1 MOL         0.0550
     36 H5         -0.8768  -40.5168    7.4659 H         1 MOL         0.0252
     37 H6         -1.6522  -38.9595    7.9131 H         1 MOL         0.0252
     38 H7         -1.1529  -39.2589    6.2138 H         1 MOL         0.0252
     39 H8         -3.8450  -41.8396    5.6217 H         1 MOL         0.0252
     40 H9         -2.1893  -42.2353    6.1949 H         1 MOL         0.0252
     41 H10        -2.4205  -41.0444    4.8701 H         1 MOL         0.0252
     42 H11       -10.0657  -37.6780    3.5955 H         1 MOL         0.0632
     43 H12        -8.3800  -38.1721    3.9710 H         1 MOL         0.0632
     44 H13       -10.8786  -39.7982    3.8367 H         1 MOL         0.0587
     45 H14        -9.7767  -40.1759    5.2041 H         1 MOL         0.0587
     46 H15        -3.5003  -38.3419    6.2696 H         1 MOL         0.1854
     47 H16        -7.5242  -39.1216    7.7278 H         1 MOL         0.0544
     48 H17        -7.8259  -39.5806    6.0175 H         1 MOL         0.0544
     49 H18        -8.7622  -42.1605    2.1915 H         1 MOL         0.0524
     50 H19       -10.4380  -41.5344    2.3539 H         1 MOL         0.0524
     51 H20        -9.6380  -42.3324    3.7503 H         1 MOL         0.0524
     52 H21       -10.8493  -32.9308    8.1629 H         1 MOL         0.1813
     53 H22        -9.2850  -33.7727    8.3273 H         1 MOL         0.1813
     54 H23        -8.5098  -36.6145    9.8658 H         1 MOL         0.0544
     55 H24        -6.9966  -35.4025   11.3889 H         1 MOL         0.0601
     56 H25        -5.1232  -33.5330    8.0382 H         1 MOL         0.0601
@<TRIPOS>BOND
     1   23    1 ar 
     2    1   24 ar 
     3    3    2 ar 
     4    2   20 1  
     5    2   23 ar 
     6    4    3 1  
     7    3   25 ar 
     8    4    5 1  
     9   19    4 2  
    10    5    6 ar 
    11    5   27 ar 
    12    6   31 ar 
    13    7    8 1  
    14    7    9 1  
    15   18    7 1  
    16    8   17 3  
    17    9   15 2  
    18    9   16 am 
    19   10   11 1  
    20   10   12 1  
    21   16   10 1  
    22   13   14 1  
    23   20   13 1  
    24   14   21 1  
    25   18   19 1  
    26   19   20 1  
    27   21   22 1  
    28   24   25 ar 
    29   25   26 1  
    30   27   28 ar 
    31   28   29 ar 
    32   29   30 1  
    33   29   31 ar 
    34    1   32 1  
    35    6   33 1  
    36    7   34 1  
    37   10   35 1  
    38   11   36 1  
    39   11   37 1  
    40   11   38 1  
    41   12   39 1  
    42   12   40 1  
    43   12   41 1  
    44   13   42 1  
    45   13   43 1  
    46   14   44 1  
    47   14   45 1  
    48   16   46 1  
    49   18   47 1  
    50   18   48 1  
    51   22   49 1  
    52   22   50 1  
    53   22   51 1  
    54   26   52 1  
    55   26   53 1  
    56   27   54 1  
    57   28   55 1  
    58   31   56 1  
@<TRIPOS>SUBSTRUCTURE
     1 MOL         1

