### 
### Created by X-TOOL on Mon Sep 10 21:13:33 2018
### 

@<TRIPOS>MOLECULE
5sxk_ligand
   19    19     1     0     0
SMALL
GAST_HUCK


@<TRIPOS>ATOM
      1 C3         58.0340   43.2880   74.3140 C.ar      1 71K        -0.0640
      2 C2         57.5370   43.3440   75.6190 C.ar      1 71K        -0.0915
      3 C1         57.0760   44.5520   76.1650 C.ar      1 71K        -0.0640
      4 C4         58.0870   44.4290   73.4910 C.ar      1 71K         0.0253
      5 C5         57.6010   45.7540   74.0250 C.ar      1 71K        -0.0116
      6 C6         57.6220   47.0350   73.2020 C.3       1 71K        -0.0390
      7 N1         58.5810   44.2820   72.2310 N.pl3     1 71K        -0.3429
      8 C          57.0790   45.7590   75.4380 C.ar      1 71K         0.0253
      9 N          56.6060   46.8920   76.0460 N.pl3     1 71K        -0.3429
     10 H1         58.3883   42.3403   73.9249 H         1 71K         0.0391
     11 H2         57.5071   42.4412   76.2183 H         1 71K         0.0496
     12 H3         56.7041   44.5566   77.1832 H         1 71K         0.0391
     13 H4         58.0361   46.8236   72.2051 H         1 71K         0.0335
     14 H5         58.2478   47.7853   73.7074 H         1 71K         0.0335
     15 H6         56.5973   47.4215   73.0989 H         1 71K         0.0335
     16 H7         58.9018   43.3580   71.9081 H         1 71K         0.1693
     17 H8         58.6340   45.0948   71.6005 H         1 71K         0.1693
     18 H9         56.2582   46.8498   77.0146 H         1 71K         0.1693
     19 H10        56.5982   47.7860   75.5345 H         1 71K         0.1693
@<TRIPOS>BOND
     1    1    2 ar 
     2    1    4 ar 
     3    2    3 ar 
     4    3    8 ar 
     5    4    5 ar 
     6    4    7 1  
     7    5    6 1  
     8    5    8 ar 
     9    8    9 1  
    10    1   10 1  
    11    2   11 1  
    12    3   12 1  
    13    6   13 1  
    14    6   14 1  
    15    6   15 1  
    16    7   16 1  
    17    7   17 1  
    18    9   18 1  
    19    9   19 1  
@<TRIPOS>SUBSTRUCTURE
     1 71K         1

