### 
### Created by X-TOOL on Mon Sep 10 21:13:29 2018
### 

@<TRIPOS>MOLECULE
5sxm_ligand
  109   109     1     0     0
SMALL
GAST_HUCK


@<TRIPOS>ATOM
      1 C          35.1130  -20.0590   23.5580 C.2       1 ACE         0.1751
      2 O          35.1360  -21.1460   22.9820 O.2       1 ACE        -0.3972
      3 CH3        35.3970  -18.7680   22.8480 C.3       1 ACE         0.0258
      4 N          34.5300  -19.9310   24.7470 N.am      1 ALA        -0.2661
      5 CA         34.3060  -21.0250   25.6900 C.3       1 ALA         0.1281
      6 C          33.3510  -22.0840   25.1370 C.2       1 ALA         0.2036
      7 O          33.4750  -23.2630   25.4570 O.2       1 ALA        -0.3944
      8 CB         33.7890  -20.4850   27.0140 C.3       1 ALA        -0.0244
      9 N          32.4060  -21.6620   24.3020 N.am      1 ARG        -0.2637
     10 CA         31.4170  -22.5860   23.7510 C.3       1 ARG         0.1311
     11 C          32.0780  -23.6620   22.8970 C.2       1 ARG         0.2040
     12 O          31.5740  -24.7820   22.7920 O.2       1 ARG        -0.3944
     13 CB         30.3520  -21.8330   22.9380 C.3       1 ARG        -0.0092
     14 CG         29.1730  -22.7090   22.4960 C.3       1 ARG        -0.0156
     15 CD         28.1640  -21.9270   21.6550 C.3       1 ARG         0.0627
     16 NE         27.5850  -20.8090   22.3930 N.pl3     1 ARG        -0.2723
     17 CZ         26.4310  -20.8660   23.0520 C.cat     1 ARG         0.2882
     18 NH1        25.7180  -21.9860   23.0540 N.pl3     1 ARG        -0.2849
     19 NH2        25.9830  -19.7990   23.7020 N.pl3     1 ARG        -0.2849
     20 N          33.2190  -23.3180   22.3080 N.am      1 THR        -0.2613
     21 CA         33.9440  -24.2340   21.4370 C.3       1 THR         0.1565
     22 C          34.8480  -25.1900   22.2170 C.2       1 THR         0.2065
     23 O          35.5710  -25.9900   21.6260 O.2       1 THR        -0.3943
     24 CB         34.7800  -23.4650   20.3910 C.3       1 THR         0.0924
     25 OG1        35.8290  -22.7400   21.0460 O.3       1 THR        -0.3874
     26 CG2        33.8970  -22.4850   19.6310 C.3       1 THR        -0.0346
     27 N          34.8010  -25.1040   23.5430 N.am      1 GLU        -0.2635
     28 CA         35.5670  -26.0030   24.4040 C.3       1 GLU         0.1325
     29 C          34.6300  -26.7880   25.3170 C.2       1 GLU         0.2040
     30 O          33.5120  -26.3510   25.5960 O.2       1 GLU        -0.3944
     31 CB         36.5710  -25.2160   25.2530 C.3       1 GLU        -0.0008
     32 CG         37.6600  -24.5090   24.4590 C.3       1 GLU         0.0044
     33 CD         38.6940  -25.4650   23.8950 C.2       1 GLU         0.0350
     34 OE1        38.9490  -26.5110   24.5280 O.co2     1 GLU        -0.5690
     35 OE2        39.2520  -25.1730   22.8150 O.co2     1 GLU        -0.5690
     36 N          35.0910  -27.9430   25.7870 N.am      1 VAL        -0.2635
     37 CA         34.3090  -28.7500   26.7180 C.3       1 VAL         0.1333
     38 C          34.5290  -28.2910   28.1540 C.2       1 VAL         0.2043
     39 O          35.6650  -28.2350   28.6250 O.2       1 VAL        -0.3944
     40 CB         34.6780  -30.2440   26.6330 C.3       1 VAL        -0.0063
     41 CG1        33.7640  -31.0660   27.5380 C.3       1 VAL        -0.0584
     42 CG2        34.5960  -30.7340   25.2010 C.3       1 VAL        -0.0584
     43 N          33.4380  -27.9640   28.8430 N.am      1 TYR        -0.2621
     44 CA         33.4900  -27.6030   30.2550 C.3       1 TYR         0.1387
     45 C          33.6820  -28.8570   31.1010 C.2       1 TYR         0.2010
     46 O          32.8560  -29.7690   31.0710 O.2       1 TYR        -0.3946
     47 CB         32.2060  -26.8670   30.6580 C.3       1 TYR         0.0163
     48 CG         32.0620  -26.5670   32.1380 C.ar      1 TYR        -0.0493
     49 CD1        33.0130  -25.8140   32.8160 C.ar      1 TYR        -0.0685
     50 CD2        30.9520  -27.0080   32.8470 C.ar      1 TYR        -0.0685
     51 CE1        32.8740  -25.5320   34.1630 C.ar      1 TYR        -0.0398
     52 CE2        30.8050  -26.7310   34.1950 C.ar      1 TYR        -0.0398
     53 CZ         31.7680  -25.9930   34.8480 C.ar      1 TYR         0.0805
     54 OH         31.6230  -25.7150   36.1890 O.3       1 TYR        -0.3376
     55 N          34.7850  -28.9050   31.8430 N.am      1 NH2        -0.2988
     56 H1         35.3191  -17.9332   23.5600 H         1 ACE         0.0467
     57 H2         34.6674  -18.6274   22.0369 H         1 ACE         0.0467
     58 H3         36.4127  -18.7970   22.4267 H         1 ACE         0.0467
     59 H4         34.2221  -19.0183   25.0155 H         1 ALA         0.1882
     60 H5         35.2750  -21.5118   25.8743 H         1 ALA         0.0797
     61 H6         33.6257  -21.3196   27.7117 H         1 ALA         0.0277
     62 H7         32.8396  -19.9547   26.8481 H         1 ALA         0.0277
     63 H8         34.5276  -19.7901   27.4401 H         1 ALA         0.0277
     64 H9         32.3715  -20.6957   24.0467 H         1 ARG         0.1883
     65 H10        30.9137  -23.0831   24.5933 H         1 ARG         0.0800
     66 H11        30.8315  -21.4185   22.0390 H         1 ARG         0.0313
     67 H12        29.9606  -21.0119   23.5565 H         1 ARG         0.0313
     68 H13        28.6644  -23.0980   23.3904 H         1 ARG         0.0301
     69 H14        29.5583  -23.5486   21.8989 H         1 ARG         0.0301
     70 H15        27.3552  -22.6066   21.3483 H         1 ARG         0.0689
     71 H16        28.6735  -21.5366   20.7617 H         1 ARG         0.0689
     72 H17        28.1031  -19.9189   22.4043 H         1 ARG         0.2642
     73 H18        24.8248  -22.0270   23.5653 H         1 ARG         0.2615
     74 H19        26.0581  -22.8139   22.5443 H         1 ARG         0.2615
     75 H20        26.5329  -18.9281   23.7030 H         1 ARG         0.2615
     76 H21        25.0854  -19.8419   24.2054 H         1 ARG         0.2615
     77 H22        33.5908  -22.4035   22.4674 H         1 THR         0.1884
     78 H23        33.1989  -24.8391   20.8997 H         1 THR         0.0826
     79 H24        35.2198  -24.1824   19.6825 H         1 THR         0.0639
     80 H25        35.4499  -22.1232   21.6611 H         1 THR         0.2101
     81 H26        34.5034  -21.9439   18.8897 H         1 THR         0.0257
     82 H27        33.4542  -21.7669   20.3369 H         1 THR         0.0257
     83 H28        33.0955  -23.0360   19.1172 H         1 THR         0.0257
     84 H29        34.2245  -24.4035   23.9637 H         1 GLU         0.1883
     85 H30        36.1195  -26.7111   23.7689 H         1 GLU         0.0801
     86 H31        37.0550  -25.9171   25.9488 H         1 GLU         0.0330
     87 H32        36.0160  -24.4571   25.8240 H         1 GLU         0.0330
     88 H33        38.1684  -23.7928   25.1212 H         1 GLU         0.0433
     89 H34        37.1906  -23.9674   23.6245 H         1 GLU         0.0433
     90 H35        35.9920  -28.2653   25.4966 H         1 VAL         0.1883
     91 H36        33.2451  -28.6331   26.4643 H         1 VAL         0.0802
     92 H37        35.7140  -30.3667   26.9818 H         1 VAL         0.0343
     93 H38        34.0381  -32.1290   27.4677 H         1 VAL         0.0234
     94 H39        32.7191  -30.9350   27.2202 H         1 VAL         0.0234
     95 H40        33.8762  -30.7265   28.5782 H         1 VAL         0.0234
     96 H41        35.2613  -30.1287   24.5677 H         1 VAL         0.0234
     97 H42        33.5611  -30.6404   24.8401 H         1 VAL         0.0234
     98 H43        34.9062  -31.7884   25.1559 H         1 VAL         0.0234
     99 H44        32.5533  -27.9660   28.3769 H         1 TYR         0.1885
    100 H45        34.3462  -26.9321   30.4190 H         1 TYR         0.0821
    101 H46        31.3501  -27.4871   30.3532 H         1 TYR         0.0453
    102 H47        32.1785  -25.9112   30.1143 H         1 TYR         0.0453
    103 H48        33.8785  -25.4413   32.2802 H         1 TYR         0.0530
    104 H49        30.1866  -27.5798   32.3349 H         1 TYR         0.0530
    105 H50        33.6305  -24.9514   34.6784 H         1 TYR         0.0525
    106 H51        29.9369  -27.0927   34.7341 H         1 TYR         0.0525
    107 H52        30.8216  -25.2232   36.3245 H         1 TYR         0.2458
    108 H53        34.9659  -29.7022   32.4189 H         1 NH2         0.1815
    109 H54        35.4333  -28.1438   31.8249 H         1 NH2         0.1815
@<TRIPOS>BOND
     1    1    2 2  
     2    1    3 1  
     3    1    4 am 
     4    4    5 1  
     5    5    6 1  
     6    5    8 1  
     7    6    7 2  
     8    6    9 am 
     9    9   10 1  
    10   10   11 1  
    11   10   13 1  
    12   11   12 2  
    13   11   20 am 
    14   13   14 1  
    15   14   15 1  
    16   15   16 1  
    17   16   17 ar 
    18   17   18 ar 
    19   17   19 ar 
    20   20   21 1  
    21   21   22 1  
    22   21   24 1  
    23   22   23 2  
    24   22   27 am 
    25   24   25 1  
    26   24   26 1  
    27   27   28 1  
    28   28   29 1  
    29   28   31 1  
    30   29   30 2  
    31   29   36 am 
    32   31   32 1  
    33   32   33 1  
    34   33   34 ar 
    35   33   35 ar 
    36   36   37 1  
    37   37   38 1  
    38   37   40 1  
    39   38   39 2  
    40   38   43 am 
    41   40   41 1  
    42   40   42 1  
    43   43   44 1  
    44   44   45 1  
    45   44   47 1  
    46   45   46 2  
    47   45   55 am 
    48   47   48 1  
    49   48   49 ar 
    50   48   50 ar 
    51   49   51 ar 
    52   50   52 ar 
    53   51   53 ar 
    54   52   53 ar 
    55   53   54 1  
    56    3   56 1  
    57    3   57 1  
    58    3   58 1  
    59    4   59 1  
    60    5   60 1  
    61    8   61 1  
    62    8   62 1  
    63    8   63 1  
    64    9   64 1  
    65   10   65 1  
    66   13   66 1  
    67   13   67 1  
    68   14   68 1  
    69   14   69 1  
    70   15   70 1  
    71   15   71 1  
    72   16   72 1  
    73   18   73 1  
    74   18   74 1  
    75   19   75 1  
    76   19   76 1  
    77   20   77 1  
    78   21   78 1  
    79   24   79 1  
    80   25   80 1  
    81   26   81 1  
    82   26   82 1  
    83   26   83 1  
    84   27   84 1  
    85   28   85 1  
    86   31   86 1  
    87   31   87 1  
    88   32   88 1  
    89   32   89 1  
    90   36   90 1  
    91   37   91 1  
    92   40   92 1  
    93   41   93 1  
    94   41   94 1  
    95   41   95 1  
    96   42   96 1  
    97   42   97 1  
    98   42   98 1  
    99   43   99 1  
   100   44  100 1  
   101   47  101 1  
   102   47  102 1  
   103   49  103 1  
   104   50  104 1  
   105   51  105 1  
   106   52  106 1  
   107   54  107 1  
   108   55  108 1  
   109   55  109 1  
@<TRIPOS>SUBSTRUCTURE
     1 ACE         1

