### 
### Created by X-TOOL on Mon Sep 10 21:13:28 2018
### 

@<TRIPOS>MOLECULE
5sxn_ligand
   38    41     1     0     0
SMALL
GAST_HUCK


@<TRIPOS>ATOM
      1 C5         48.4990   71.3540   11.4500 C.ar      1 74U         0.0977
      2 C7         48.5740   69.5140   10.0440 C.ar      1 74U         0.0422
      3 C8         49.2140   68.7300    9.0650 C.ar      1 74U        -0.0408
      4 C10        47.3410   67.1890    9.0910 C.ar      1 74U        -0.0548
      5 C13        49.0650   72.5870   12.0420 C.ar      1 74U         0.0153
      6 C15        48.7310   74.8610   12.8260 C.ar      1 74U        -0.0569
      7 C17        50.8920   73.7940   13.0180 C.ar      1 74U        -0.0569
      8 C20        43.7180   68.5800   14.4690 C.2       1 74U        -0.0684
      9 C21        42.3860   68.2250   14.7650 C.2       1 74U        -0.0808
     10 C22        41.5860   69.1410   14.1880 C.2       1 74U         0.0670
     11 C1         44.8330   70.4280   13.1560 C.3       1 74U         0.0961
     12 N2         45.4290   69.6110   12.0870 N.pl3     1 74U        -0.2786
     13 C3         46.6630   69.9130   11.5330 C.ar      1 74U         0.1437
     14 N4         47.3120   70.9920   11.9360 N.ar      1 74U        -0.2516
     15 N6         49.1440   70.6440   10.5270 N.ar      1 74U        -0.2915
     16 C9         48.5970   67.5940    8.6210 C.ar      1 74U        -0.0559
     17 C11        46.6840   67.9220   10.0420 C.ar      1 74U        -0.0404
     18 C12        47.2850   69.0980   10.5390 C.ar      1 74U         0.0539
     19 C14        48.2310   73.7010   12.2530 C.ar      1 74U        -0.0464
     20 C16        50.0650   74.9000   13.2030 C.ar      1 74U        -0.0580
     21 C18        50.4060   72.6310   12.4370 C.ar      1 74U        -0.0464
     22 C19        43.6550   69.6860   13.7170 C.2       1 74U         0.1183
     23 O23        42.3630   70.0190   13.5440 O.3       1 74U        -0.2666
     24 H1         50.1801   69.0225    8.6699 H         1 74U         0.0624
     25 H2         46.8855   66.2872    8.6981 H         1 74U         0.0624
     26 H3         48.0901   75.7222   12.9765 H         1 74U         0.0628
     27 H4         51.9284   73.8425   13.3319 H         1 74U         0.0628
     28 H5         44.6190   68.0583   14.7885 H         1 74U         0.0219
     29 H6         42.0634   67.3669   15.3528 H         1 74U         0.0296
     30 H7         40.4983   69.1633   14.2369 H         1 74U         0.0854
     31 H8         44.5028   71.3937   12.7456 H         1 74U         0.0727
     32 H9         45.5752   70.6012   13.9492 H         1 74U         0.0727
     33 H10        44.9134   68.7897   11.7399 H         1 74U         0.1940
     34 H11        49.0980   66.9841    7.8779 H         1 74U         0.0673
     35 H12        45.7149   67.6034   10.4085 H         1 74U         0.0686
     36 H13        47.1872   73.6519   11.9647 H         1 74U         0.0661
     37 H14        50.4694   75.8023   13.6472 H         1 74U         0.0649
     38 H15        51.0531   71.7735   12.2922 H         1 74U         0.0661
@<TRIPOS>BOND
     1    1    5 1  
     2   14    1 ar 
     3    1   15 ar 
     4    2    3 ar 
     5   15    2 ar 
     6    2   18 ar 
     7    3   16 ar 
     8   16    4 ar 
     9    4   17 ar 
    10    5   19 ar 
    11    5   21 ar 
    12   19    6 ar 
    13    6   20 ar 
    14    7   20 ar 
    15   21    7 ar 
    16    8    9 1  
    17   22    8 2  
    18    9   10 2  
    19   10   23 1  
    20   12   11 1  
    21   11   22 1  
    22   13   12 1  
    23   13   14 ar 
    24   13   18 ar 
    25   17   18 ar 
    26   22   23 1  
    27    3   24 1  
    28    4   25 1  
    29    6   26 1  
    30    7   27 1  
    31    8   28 1  
    32    9   29 1  
    33   10   30 1  
    34   11   31 1  
    35   11   32 1  
    36   12   33 1  
    37   16   34 1  
    38   17   35 1  
    39   19   36 1  
    40   20   37 1  
    41   21   38 1  
@<TRIPOS>SUBSTRUCTURE
     1 74U         1

