### 
### Created by X-TOOL on Mon Sep 10 21:13:28 2018
### 

@<TRIPOS>MOLECULE
5sy2_ligand
   51    53     1     0     0
SMALL
GAST_HUCK


@<TRIPOS>ATOM
      1 N3         33.2040   57.7040   41.8880 N.am      1 74V        -0.2659
      2 C4         32.8050   58.6610   40.8150 C.3       1 74V         0.0840
      3 C5         32.5040   57.9780   39.4640 C.3       1 74V        -0.0200
      4 C6         32.1590   58.9810   38.3450 C.3       1 74V        -0.0103
      5 C7         30.9920   59.8790   38.7930 C.3       1 74V        -0.0335
      6 C10        34.4170   57.9490   42.4720 C.2       1 74V         0.2084
      7 C13        35.7600   55.9650   43.1550 C.ar      1 74V         0.0264
      8 C15        36.3400   55.5690   45.3590 C.ar      1 74V         0.0880
      9 C20        34.6490   59.1130   46.7320 C.3       1 74V         0.0937
     10 C21        33.7830   60.3020   47.0300 C.2       1 74V         0.1177
     11 C22        32.5470   60.2690   47.5410 C.2       1 74V        -0.0685
     12 C24        33.1270   62.3780   47.2000 C.2       1 74V         0.0670
     13 C1         31.5090   56.8490   43.5180 C.3       1 74V        -0.0447
     14 C2         32.3560   56.5490   42.2740 C.3       1 74V         0.0308
     15 N8         31.3050   60.5250   40.0920 N.4       1 74V         0.2286
     16 C9         31.6440   59.5940   41.1960 C.3       1 74V        -0.0100
     17 O11        35.0610   58.9160   42.0950 O.2       1 74V        -0.3899
     18 C12        35.0610   57.1300   43.5290 C.ar      1 74V         0.1113
     19 N14        36.3650   55.2230   44.0850 N.ar      1 74V        -0.2780
     20 C16        37.0390   54.6910   46.3610 C.3       1 74V         0.0023
     21 N17        35.7140   56.6620   45.7670 N.ar      1 74V        -0.2473
     22 C18        35.0640   57.4760   44.9130 C.ar      1 74V         0.1433
     23 N19        34.4090   58.6090   45.3730 N.pl3     1 74V        -0.2839
     24 C23        32.1240   61.6060   47.6440 C.2       1 74V        -0.0808
     25 O25        34.1280   61.5760   46.8280 O.3       1 74V        -0.2667
     26 H1         33.6807   59.3064   40.6519 H         1 74V         0.0611
     27 H2         31.6515   57.2960   39.5983 H         1 74V         0.0291
     28 H3         33.3896   57.4020   39.1575 H         1 74V         0.0291
     29 H4         31.8691   58.4308   37.4377 H         1 74V         0.0318
     30 H5         33.0387   59.6054   38.1299 H         1 74V         0.0318
     31 H6         30.0847   59.2667   38.9021 H         1 74V         0.0814
     32 H7         30.8207   60.6563   38.0338 H         1 74V         0.0814
     33 H8         35.8063   55.6716   42.1125 H         1 74V         0.0921
     34 H9         34.4248   58.3153   47.4554 H         1 74V         0.0720
     35 H10        35.7052   59.4059   46.8248 H         1 74V         0.0720
     36 H11        31.9806   59.3822   47.8216 H         1 74V         0.0219
     37 H12        33.1254   63.4659   47.1515 H         1 74V         0.0854
     38 H13        30.8985   55.9685   43.7670 H         1 74V         0.0249
     39 H14        30.8503   57.7063   43.3151 H         1 74V         0.0249
     40 H15        32.1710   57.0871   44.3636 H         1 74V         0.0249
     41 H16        33.0052   55.6866   42.4858 H         1 74V         0.0519
     42 H17        31.6846   56.3058   41.4373 H         1 74V         0.0519
     43 H18        30.5009   61.0633   40.3742 H         1 74V         0.2014
     44 H19        32.0900   61.1417   39.9523 H         1 74V         0.2014
     45 H20        31.9330   60.1802   42.0808 H         1 74V         0.0837
     46 H21        30.7595   58.9845   41.4328 H         1 74V         0.0837
     47 H22        37.4987   53.8368   45.8423 H         1 74V         0.0471
     48 H23        36.3099   54.3232   47.0979 H         1 74V         0.0471
     49 H24        37.8195   55.2709   46.8753 H         1 74V         0.0471
     50 H25        33.7479   59.1018   44.7557 H         1 74V         0.1896
     51 H26        31.1602   61.9509   48.0156 H         1 74V         0.0296
@<TRIPOS>BOND
     1    1    2 1  
     2    6    1 am 
     3    1   14 1  
     4    2    3 1  
     5    2   16 1  
     6    3    4 1  
     7    4    5 1  
     8   15    5 1  
     9    6   17 2  
    10   18    6 1  
    11   18    7 ar 
    12    7   19 ar 
    13    8   19 ar 
    14    8   20 1  
    15   21    8 ar 
    16    9   10 1  
    17   23    9 1  
    18   10   11 2  
    19   10   25 1  
    20   11   24 1  
    21   12   24 2  
    22   25   12 1  
    23   14   13 1  
    24   16   15 1  
    25   22   18 ar 
    26   22   21 ar 
    27   22   23 1  
    28    2   26 1  
    29    3   27 1  
    30    3   28 1  
    31    4   29 1  
    32    4   30 1  
    33    5   31 1  
    34    5   32 1  
    35    7   33 1  
    36    9   34 1  
    37    9   35 1  
    38   11   36 1  
    39   12   37 1  
    40   13   38 1  
    41   13   39 1  
    42   13   40 1  
    43   14   41 1  
    44   14   42 1  
    45   15   43 1  
    46   15   44 1  
    47   16   45 1  
    48   16   46 1  
    49   20   47 1  
    50   20   48 1  
    51   20   49 1  
    52   23   50 1  
    53   24   51 1  
@<TRIPOS>SUBSTRUCTURE
     1 74V         1

