### 
### Created by X-TOOL on Mon Sep 10 21:13:28 2018
### 

@<TRIPOS>MOLECULE
5sy3_ligand
   31    34     1     0     0
SMALL
GAST_HUCK


@<TRIPOS>ATOM
      1 C5        -13.2740   16.5530   -5.5320 C.ar      1 74Z         0.0630
      2 C7        -13.9770   18.7580   -5.7410 C.ar      1 74Z         0.1118
      3 C10       -16.1580   22.1500   -5.3890 C.ar      1 74Z        -0.0475
      4 C13       -17.2560   19.7270   -3.9690 C.ar      1 74Z        -0.0619
      5 C15       -15.1070   18.4990   -4.9450 C.ar      1 74Z         0.0623
      6 C17       -18.9270   15.5390   -3.6680 C.2       1 74Z        -0.0685
      7 C1        -16.4890   15.5960   -2.9290 C.3       1 74Z         0.0931
      8 N2        -16.3430   16.8480   -3.6650 N.pl3     1 74Z        -0.2860
      9 C3        -15.2490   17.1620   -4.4560 C.ar      1 74Z         0.1326
     10 N4        -14.3220   16.2490   -4.7760 N.ar      1 74Z        -0.2602
     11 N6        -13.0950   17.7720   -6.0070 N.ar      1 74Z        -0.2721
     12 S8        -13.9890   20.4370   -6.2380 S.3       1 74Z        -0.0138
     13 C9        -15.4830   20.7800   -5.3920 C.ar      1 74Z         0.0426
     14 C11       -17.3900   22.1810   -4.4640 C.ar      1 74Z        -0.0684
     15 C12       -18.1620   20.8510   -4.4920 C.ar      1 74Z        -0.0693
     16 C14       -15.9530   19.6880   -4.7700 C.ar      1 74Z         0.0000
     17 C16       -17.9530   15.2680   -2.7810 C.2       1 74Z         0.1176
     18 C18       -20.1250   15.0510   -3.1060 C.2       1 74Z        -0.0808
     19 C19       -19.8190   14.5040   -1.9170 C.2       1 74Z         0.0670
     20 O20       -18.5000   14.6450   -1.7200 O.3       1 74Z        -0.2667
     21 H1        -12.5481   15.7824   -5.7649 H         1 74Z         0.1047
     22 H2        -15.8120   22.9986   -5.9680 H         1 74Z         0.0572
     23 H3        -17.5033   19.0590   -3.1519 H         1 74Z         0.0590
     24 H4        -18.8132   16.0368   -4.6299 H         1 74Z         0.0219
     25 H5        -16.0343   15.7010   -1.9329 H         1 74Z         0.0719
     26 H6        -15.9857   14.7868   -3.4784 H         1 74Z         0.0719
     27 H7        -17.1007   17.5419   -3.5920 H         1 74Z         0.1888
     28 H8        -17.6781   23.0375   -3.8653 H         1 74Z         0.0586
     29 H9        -19.1850   20.7267   -4.8282 H         1 74Z         0.0561
     30 H10       -21.1163   15.1071   -3.5534 H         1 74Z         0.0296
     31 H11       -20.5203   14.0289   -1.2326 H         1 74Z         0.0854
@<TRIPOS>BOND
     1    1   10 ar 
     2   11    1 ar 
     3    2    5 ar 
     4    2   11 ar 
     5   12    2 1  
     6   13    3 ar 
     7    3   14 ar 
     8    4   15 ar 
     9   16    4 ar 
    10    5    9 ar 
    11    5   16 1  
    12   17    6 2  
    13    6   18 1  
    14    8    7 1  
    15    7   17 1  
    16    9    8 1  
    17    9   10 ar 
    18   12   13 1  
    19   13   16 ar 
    20   14   15 ar 
    21   17   20 1  
    22   18   19 2  
    23   19   20 1  
    24    1   21 1  
    25    3   22 1  
    26    4   23 1  
    27    6   24 1  
    28    7   25 1  
    29    7   26 1  
    30    8   27 1  
    31   14   28 1  
    32   15   29 1  
    33   18   30 1  
    34   19   31 1  
@<TRIPOS>SUBSTRUCTURE
     1 74Z         1

