### 
### Created by X-TOOL on Mon Sep 10 21:13:27 2018
### 

@<TRIPOS>MOLECULE
5sym_ligand
   46    48     1     0     0
SMALL
GAST_HUCK


@<TRIPOS>ATOM
      1 N1         -8.5090  -10.6180   -2.6570 N.4       1 71Q         0.2552
      2 C3        -13.5370  -14.4100   -1.6620 C.ar      1 71Q         0.0323
      3 N2         -8.2050   -8.2490   -4.1910 N.am      1 71Q        -0.2624
      4 C4        -13.8960  -15.8220   -1.3180 C.3       1 71Q         0.3713
      5 C9         -7.6350   -9.5410   -2.2050 C.3       1 71Q        -0.0092
      6 C8         -8.1320  -11.9010   -2.0750 C.3       1 71Q         0.0640
      7 C7         -9.3020  -12.8650   -2.0140 C.2       1 71Q         0.2496
      8 C6        -11.8460  -12.7210   -2.1080 C.ar      1 71Q         0.1096
      9 C5        -12.2000  -14.0400   -1.8150 C.ar      1 71Q        -0.0124
     10 C10        -8.1410   -8.2210   -2.7260 C.3       1 71Q         0.0731
     11 C12        -7.7540   -7.2540   -6.4040 C.2       1 71Q         0.1844
     12 C13        -8.0070   -6.3030   -7.3390 C.2       1 71Q        -0.0436
     13 C14        -7.6990   -6.8840   -8.6030 C.2       1 71Q        -0.0557
     14 C15        -7.2860   -8.1230   -8.3680 C.2       1 71Q         0.0866
     15 C16        -8.9900   -9.3760   -4.7030 C.3       1 71Q         0.0731
     16 C17        -8.4890  -10.6750   -4.1180 C.3       1 71Q        -0.0092
     17 N         -10.5080  -12.2770   -2.2030 N.am      1 71Q        -0.2230
     18 C         -12.8700  -11.7810   -2.2660 C.ar      1 71Q         0.0929
     19 O          -7.3090   -8.3970   -7.0190 O.3       1 71Q        -0.2506
     20 CL        -12.4800  -10.1380   -2.6860 Cl        1 71Q        -0.0520
     21 C1        -14.1970  -12.1390   -2.1200 C.ar      1 71Q        -0.0289
     22 O1         -7.4770   -6.1390   -4.3890 O.2       1 71Q        -0.3897
     23 C2        -14.5260  -13.4480   -1.8220 C.ar      1 71Q        -0.0449
     24 O2         -9.1240  -14.0590   -1.7950 O.2       1 71Q        -0.3789
     25 C11        -7.7780   -7.1990   -4.9210 C.2       1 71Q         0.2312
     26 F         -13.1880  -16.7240   -1.9980 F         1 71Q        -0.2223
     27 F1        -13.7250  -16.1040   -0.0270 F         1 71Q        -0.2223
     28 F2        -15.1710  -16.1150   -1.5630 F         1 71Q        -0.2223
     29 H1         -9.4490  -10.4076   -2.3600 H         1 71Q         0.2054
     30 H2         -6.6160   -9.7155   -2.5807 H         1 71Q         0.0835
     31 H3         -7.6216   -9.5186   -1.1053 H         1 71Q         0.0835
     32 H4         -7.7583  -11.7316   -1.0544 H         1 71Q         0.1068
     33 H5         -7.3354  -12.3482   -2.6877 H         1 71Q         0.1068
     34 H6        -11.4237  -14.7885   -1.7046 H         1 71Q         0.0706
     35 H7         -9.1461   -8.0313   -2.3214 H         1 71Q         0.0574
     36 H8         -7.4597   -7.4186   -2.4068 H         1 71Q         0.0574
     37 H9         -8.3736   -5.2936   -7.1584 H         1 71Q         0.0434
     38 H10        -7.7859   -6.4031   -9.5762 H         1 71Q         0.0364
     39 H11        -6.9718   -8.8269   -9.1372 H         1 71Q         0.1039
     40 H12        -8.8992   -9.4130   -5.7986 H         1 71Q         0.0574
     41 H13       -10.0458   -9.2375   -4.4270 H         1 71Q         0.0574
     42 H14        -9.1349  -11.4981   -4.4574 H         1 71Q         0.0835
     43 H15        -7.4586  -10.8526   -4.4596 H         1 71Q         0.0835
     44 H16       -10.4349  -11.3157   -2.4686 H         1 71Q         0.2265
     45 H17       -14.9771  -11.3957   -2.2388 H         1 71Q         0.0669
     46 H18       -15.5677  -13.7270   -1.7119 H         1 71Q         0.0740
@<TRIPOS>BOND
     1    5    1 1  
     2    1    6 1  
     3    1   16 1  
     4    2    4 1  
     5    9    2 ar 
     6    2   23 ar 
     7    3   10 1  
     8    3   15 1  
     9   25    3 am 
    10    4   26 1  
    11    4   27 1  
    12    4   28 1  
    13   10    5 1  
    14    6    7 1  
    15    7   17 am 
    16    7   24 2  
    17    8    9 ar 
    18   17    8 1  
    19    8   18 ar 
    20   11   12 2  
    21   11   19 1  
    22   11   25 1  
    23   12   13 1  
    24   13   14 2  
    25   14   19 1  
    26   15   16 1  
    27   18   20 1  
    28   18   21 ar 
    29   21   23 ar 
    30   25   22 2  
    31    1   29 1  
    32    5   30 1  
    33    5   31 1  
    34    6   32 1  
    35    6   33 1  
    36    9   34 1  
    37   10   35 1  
    38   10   36 1  
    39   12   37 1  
    40   13   38 1  
    41   14   39 1  
    42   15   40 1  
    43   15   41 1  
    44   16   42 1  
    45   16   43 1  
    46   17   44 1  
    47   21   45 1  
    48   23   46 1  
@<TRIPOS>SUBSTRUCTURE
     1 71Q         1

