### 
### Created by X-TOOL on Mon Sep 10 21:13:29 2018
### 

@<TRIPOS>MOLECULE
5syn_ligand
   53    57     1     0     0
SMALL
GAST_HUCK


@<TRIPOS>ATOM
      1 C21        25.2960   -5.1780   39.0480 C.ar      1 71T        -0.0524
      2 C8         29.0460   -6.3090   44.9620 C.2       1 71T         0.0999
      3 C6         28.2740   -6.0410   42.0400 C.3       1 71T         0.0522
      4 C5         26.9390   -5.5750   41.5350 C.3       1 71T         0.0450
      5 C2         22.9100   -6.5700   39.2100 C.ar      1 71T        -0.0443
      6 C10        29.3930   -4.2400   45.9970 C.2       1 71T        -0.0154
      7 C11        30.4340   -4.9760   46.5450 C.2       1 71T         0.0439
      8 C12        31.4020   -4.4080   47.4590 C.ar      1 71T         0.0103
      9 C13        32.6650   -4.9880   47.6140 C.ar      1 71T        -0.0559
     10 C18        29.1730   -2.8160   46.4020 C.3       1 71T         0.0977
     11 C19        27.5200   -8.3300   42.0840 C.3       1 71T         0.0522
     12 C17        31.1120   -3.2470   48.1900 C.ar      1 71T         0.0940
     13 C15        33.2970   -3.2780   49.1800 C.ar      1 71T        -0.0632
     14 N          26.3020   -6.6340   40.7460 N.pl3     1 71T        -0.3108
     15 C          20.7640   -5.6830   37.5560 C.3       1 71T         0.0565
     16 O          22.0150   -4.9870   37.5710 O.3       1 71T        -0.3297
     17 C1         23.0190   -5.4800   38.3640 C.ar      1 71T         0.0773
     18 N1         28.1010   -7.2370   42.8700 N.am      1 71T        -0.2699
     19 O1         29.6490   -1.1300   48.3520 O.2       1 71T        -0.1679
     20 S1         30.4320   -6.6200   45.9480 S.3       1 71T        -0.0294
     21 O2         28.6100   -3.3100   48.8450 O.2       1 71T        -0.1679
     22 C3         23.9920   -6.9500   39.9840 C.ar      1 71T        -0.0524
     23 O3         28.3830   -8.5040   44.7050 O.2       1 71T        -0.3893
     24 C4         25.1990   -6.2590   39.9210 C.ar      1 71T         0.0295
     25 C7         28.4660   -7.4120   44.1580 C.2       1 71T         0.2121
     26 C9         28.6090   -5.0090   45.0910 C.2       1 71T        -0.0424
     27 C14        33.6020   -4.4230   48.4670 C.ar      1 71T        -0.0647
     28 C16        32.0520   -2.6790   49.0430 C.ar      1 71T        -0.0397
     29 C20        26.1910   -7.8990   41.4830 C.3       1 71T         0.0450
     30 C22        24.2140   -4.7900   38.2750 C.ar      1 71T        -0.0443
     31 S          29.5610   -2.5410   48.0910 S.o2      1 71T         0.0035
     32 H1         26.2302   -4.6334   38.9725 H         1 71T         0.0490
     33 H2         28.7360   -5.2435   42.6405 H         1 71T         0.0540
     34 H3         28.9244   -6.2803   41.1858 H         1 71T         0.0540
     35 H4         27.0790   -4.6851   40.9038 H         1 71T         0.0529
     36 H5         26.2951   -5.3207   42.3898 H         1 71T         0.0529
     37 H6         21.9800   -7.1241   39.2660 H         1 71T         0.0511
     38 H7         32.9142   -5.8874   47.0626 H         1 71T         0.0595
     39 H8         28.1166   -2.5591   46.2347 H         1 71T         0.0639
     40 H9         29.8105   -2.1686   45.7820 H         1 71T         0.0639
     41 H10        27.3578   -9.2002   42.7369 H         1 71T         0.0540
     42 H11        28.2128   -8.6030   41.2744 H         1 71T         0.0540
     43 H12        34.0330   -2.8464   49.8486 H         1 71T         0.0591
     44 H13        20.0667   -5.1692   36.8779 H         1 71T         0.0572
     45 H14        20.3419   -5.7005   38.5716 H         1 71T         0.0572
     46 H15        20.9222   -6.7140   37.2068 H         1 71T         0.0572
     47 H16        23.8984   -7.7998   40.6505 H         1 71T         0.0490
     48 H17        27.7500   -4.6096   44.5538 H         1 71T         0.0516
     49 H18        34.5783   -4.8815   48.5752 H         1 71T         0.0609
     50 H19        31.8149   -1.7771   49.5957 H         1 71T         0.0628
     51 H20        25.4589   -7.7736   42.2944 H         1 71T         0.0529
     52 H21        25.8432   -8.6820   40.7931 H         1 71T         0.0529
     53 H22        24.3040   -3.9460   37.6007 H         1 71T         0.0511
@<TRIPOS>BOND
     1   24    1 ar 
     2    1   30 ar 
     3    2   20 1  
     4   25    2 1  
     5    2   26 2  
     6    3    4 1  
     7   18    3 1  
     8    4   14 1  
     9   17    5 ar 
    10    5   22 ar 
    11    6    7 2  
    12    6   10 1  
    13   26    6 1  
    14    7    8 1  
    15   20    7 1  
    16    8    9 ar 
    17    8   12 ar 
    18    9   27 ar 
    19   10   31 1  
    20   18   11 1  
    21   11   29 1  
    22   12   28 ar 
    23   31   12 1  
    24   27   13 ar 
    25   28   13 ar 
    26   14   24 1  
    27   29   14 1  
    28   16   15 1  
    29   17   16 1  
    30   30   17 ar 
    31   18   25 am 
    32   31   19 2  
    33   31   21 2  
    34   22   24 ar 
    35   25   23 2  
    36    1   32 1  
    37    3   33 1  
    38    3   34 1  
    39    4   35 1  
    40    4   36 1  
    41    5   37 1  
    42    9   38 1  
    43   10   39 1  
    44   10   40 1  
    45   11   41 1  
    46   11   42 1  
    47   13   43 1  
    48   15   44 1  
    49   15   45 1  
    50   15   46 1  
    51   22   47 1  
    52   26   48 1  
    53   27   49 1  
    54   28   50 1  
    55   29   51 1  
    56   29   52 1  
    57   30   53 1  
@<TRIPOS>SUBSTRUCTURE
     1 71T         1

