### 
### Created by X-TOOL on Fri Nov  2 10:13:28 2018
### 

@<TRIPOS>MOLECULE
5sys_ligand
   70    73     1     0     0
SMALL
GAST_HUCK


@<TRIPOS>ATOM
      1 C7          6.3180   37.2330    5.6460 C.2       1 MOL         0.0440
      2 C10         3.3220   35.3240    7.5680 C.ar      1 MOL         0.0002
      3 C6          7.5840   36.6660    5.3430 C.ar      1 MOL         0.0357
      4 C4         10.1210   36.3840    4.4720 C.ar      1 MOL         0.0669
      5 C5          8.3740   35.5520    5.6380 C.ar      1 MOL         0.0126
      6 C9          4.4430   35.9620    6.9480 C.1       1 MOL        -0.0978
      7 C1          6.7550   39.6930    2.1170 C.3       1 MOL         0.0745
      8 N1          9.4990   37.4940    4.0640 N.ar      1 MOL        -0.2570
      9 C2          7.6150   39.8100    3.3690 C.3       1 MOL         0.0820
     10 O1          1.7050   31.4910    5.8690 O.2       1 MOL        -0.3732
     11 N2          9.6350   35.3970    5.2240 N.ar      1 MOL        -0.2875
     12 C3          8.2430   37.6040    4.5210 C.ar      1 MOL         0.1548
     13 C11         2.4440   34.5610    6.8020 C.ar      1 MOL        -0.0370
     14 C13         0.6130   31.9530    6.1990 C.2       1 MOL         0.2376
     15 C12         1.3020   34.0230    7.3890 C.ar      1 MOL         0.0574
     16 N3          0.4400   33.2440    6.5820 N.am      1 MOL        -0.2370
     17 C8          5.3240   36.5180    6.3710 C.1       1 MOL        -0.0994
     18 N5          2.2860   37.9470    6.3650 N.1       1 MOL        -0.3003
     19 C30         2.9740   38.4590    5.6160 C.1       1 MOL         0.1178
     20 C27         3.8250   39.1700    4.6610 C.3       1 MOL         0.1862
     21 C28         3.0710   40.4350    4.2440 C.2       1 MOL         0.2078
     22 O2          2.4290   41.0800    5.0720 O.2       1 MOL        -0.3942
     23 N4          3.1400   40.7670    2.9600 N.am      1 MOL        -0.2879
     24 C29         2.7440   42.0760    2.4680 C.3       1 MOL         0.0196
     25 C26         5.1850   39.5280    5.3160 C.3       1 MOL         0.0590
     26 C25         6.2550   38.4660    5.0600 C.2       1 MOL         0.0855
     27 N           7.4000   38.6950    4.3130 N.pl3     1 MOL        -0.2275
     28 O           7.5380   40.0700    0.9800 O.3       1 MOL        -0.3803
     29 C           7.5890   41.4710    0.7100 C.3       1 MOL         0.0366
     30 C23         3.0960   35.5410    8.9340 C.ar      1 MOL        -0.0484
     31 C24         4.1100   36.2590    9.7860 C.3       1 MOL        -0.0374
     32 C22         1.9350   35.0040    9.4890 C.ar      1 MOL        -0.0742
     33 C21         1.0470   34.2570    8.7360 C.ar      1 MOL        -0.0495
     34 C14        -0.6240   31.1090    6.1580 C.ar      1 MOL         0.0849
     35 C20        -1.8150   31.4900    6.7820 C.ar      1 MOL        -0.0142
     36 C19        -2.9540   30.7150    6.6460 C.ar      1 MOL        -0.0272
     37 C18        -2.9120   29.5460    5.9080 C.ar      1 MOL        -0.0278
     38 C16        -1.7280   29.1360    5.3050 C.ar      1 MOL         0.0540
     39 C15        -0.5890   29.9240    5.4280 C.ar      1 MOL        -0.0107
     40 C17        -1.6550   27.8530    4.5460 C.3       1 MOL         0.3783
     41 F          -1.4230   28.0460    3.2540 F         1 MOL        -0.2197
     42 F1         -2.7730   27.1280    4.6230 F         1 MOL        -0.2197
     43 F2         -0.6640   27.0710    4.9720 F         1 MOL        -0.2197
     44 H1         11.1503   36.2723    4.1509 H         1 MOL         0.1002
     45 H2          7.9366   34.7641    6.2404 H         1 MOL         0.0855
     46 H3          5.8845   40.3598    2.2033 H         1 MOL         0.0587
     47 H4          6.4114   38.6546    2.0007 H         1 MOL         0.0587
     48 H5          7.3700   40.7541    3.8776 H         1 MOL         0.0633
     49 H6          8.6734   39.8187    3.0696 H         1 MOL         0.0633
     50 H7          2.6492   34.3866    5.7520 H         1 MOL         0.0465
     51 H8         -0.3910   33.6954    6.2568 H         1 MOL         0.2229
     52 H9          4.0059   38.5379    3.7791 H         1 MOL         0.0868
     53 H10         3.4776   40.0899    2.3061 H         1 MOL         0.1848
     54 H11         2.8885   42.1172    1.3783 H         1 MOL         0.0484
     55 H12         3.3597   42.8502    2.9491 H         1 MOL         0.0484
     56 H13         1.6840   42.2512    2.7041 H         1 MOL         0.0484
     57 H14         5.0387   39.6269    6.4017 H         1 MOL         0.0554
     58 H15         5.5336   40.4866    4.9042 H         1 MOL         0.0554
     59 H16         8.2125   41.6507   -0.1782 H         1 MOL         0.0524
     60 H17         8.0223   41.9955    1.5744 H         1 MOL         0.0524
     61 H18         6.5715   41.8462    0.5258 H         1 MOL         0.0524
     62 H19         3.7404   36.3231   10.8201 H         1 MOL         0.0364
     63 H20         4.2696   37.2728    9.3901 H         1 MOL         0.0364
     64 H21         5.0603   35.7053    9.7700 H         1 MOL         0.0364
     65 H22         1.7227   35.1764   10.5379 H         1 MOL         0.0514
     66 H23         0.1520   33.8539    9.1960 H         1 MOL         0.0471
     67 H24        -1.8471   32.3967    7.3753 H         1 MOL         0.0902
     68 H25        -3.8794   31.0245    7.1182 H         1 MOL         0.0708
     69 H26        -3.8079   28.9455    5.7990 H         1 MOL         0.0883
     70 H27         0.3338   29.6131    4.9516 H         1 MOL         0.0912
@<TRIPOS>BOND
     1    1    3 1  
     2    1   17 1  
     3   26    1 2  
     4    6    2 1  
     5    2   13 ar 
     6    2   30 ar 
     7    3    5 ar 
     8    3   12 ar 
     9    8    4 ar 
    10   11    4 ar 
    11    5   11 ar 
    12   17    6 3  
    13    9    7 1  
    14    7   28 1  
    15   12    8 ar 
    16   27    9 1  
    17   14   10 2  
    18   12   27 1  
    19   13   15 ar 
    20   16   14 am 
    21   14   34 1  
    22   15   16 1  
    23   15   33 ar 
    24   19   18 3  
    25   20   19 1  
    26   20   21 1  
    27   25   20 1  
    28   21   22 2  
    29   21   23 am 
    30   23   24 1  
    31   25   26 1  
    32   26   27 1  
    33   28   29 1  
    34   30   31 1  
    35   30   32 ar 
    36   32   33 ar 
    37   34   35 ar 
    38   34   39 ar 
    39   35   36 ar 
    40   36   37 ar 
    41   37   38 ar 
    42   38   39 ar 
    43   38   40 1  
    44   40   41 1  
    45   40   42 1  
    46   40   43 1  
    47    4   44 1  
    48    5   45 1  
    49    7   46 1  
    50    7   47 1  
    51    9   48 1  
    52    9   49 1  
    53   13   50 1  
    54   16   51 1  
    55   20   52 1  
    56   23   53 1  
    57   24   54 1  
    58   24   55 1  
    59   24   56 1  
    60   25   57 1  
    61   25   58 1  
    62   29   59 1  
    63   29   60 1  
    64   29   61 1  
    65   31   62 1  
    66   31   63 1  
    67   31   64 1  
    68   32   65 1  
    69   33   66 1  
    70   35   67 1  
    71   36   68 1  
    72   37   69 1  
    73   39   70 1  
@<TRIPOS>SUBSTRUCTURE
     1 MOL         1

