### 
### Created by X-TOOL on Mon Sep 10 21:13:26 2018
### 

@<TRIPOS>MOLECULE
5sz0_ligand
   27    28     1     0     0
SMALL
GAST_HUCK


@<TRIPOS>ATOM
      1 CAH         0.2920    2.5890   84.9250 C.ar      1 72D        -0.0522
      2 CAI        -0.4470    1.4590   85.6130 C.ar      1 72D        -0.0345
      3 CAJ        -1.7550    1.4770   85.6650 C.ar      1 72D         0.1079
      4 SAM        -2.5370    0.0740   86.5000 S.o2      1 72D         0.0659
      5 OAN        -2.1620    0.1520   87.9160 O.2       1 72D        -0.1505
      6 OAO        -4.0040    0.1880   86.4900 O.2       1 72D        -0.1505
      7 NAP        -2.0440   -1.4000   85.8000 N.am      1 72D        -0.2609
      8 CAK        -2.5560    2.6360   85.0700 C.ar      1 72D        -0.0345
      9 CAL        -1.9120    3.6330   84.4840 C.ar      1 72D        -0.0522
     10 CAG        -0.3820    3.5840   84.4020 C.ar      1 72D        -0.0178
     11 CAA         0.4570    4.6880   83.7780 C.ar      1 72D        -0.0179
     12 CAB         1.1880    4.4860   82.7050 C.ar      1 72D        -0.0540
     13 CAC         2.0240    5.6290   82.1420 C.ar      1 72D        -0.0612
     14 CAD         2.0240    6.8020   82.7420 C.ar      1 72D        -0.0617
     15 CAE         1.1900    7.0210   83.9990 C.ar      1 72D        -0.0612
     16 CAF         0.4670    6.0350   84.4820 C.ar      1 72D        -0.0540
     17 H1          1.3743    2.5744   84.8656 H         1 72D         0.0624
     18 H2          0.1047    0.6398   86.0599 H         1 72D         0.0637
     19 H3         -2.3951   -2.2654   86.1575 H         1 72D         0.1635
     20 H4         -1.4037   -1.3993   85.0318 H         1 72D         0.1635
     21 H5         -3.6385    2.6410   85.1275 H         1 72D         0.0637
     22 H6         -2.4585    4.4718   84.0682 H         1 72D         0.0624
     23 H7          1.1963    3.5144   82.2243 H         1 72D         0.0624
     24 H8          2.6184    5.4770   81.2483 H         1 72D         0.0618
     25 H9          2.6191    7.6141   82.3404 H         1 72D         0.0618
     26 H10         1.1931    7.9860   84.4927 H         1 72D         0.0618
     27 H11        -0.1209    6.1824   85.3807 H         1 72D         0.0624
@<TRIPOS>BOND
     1    1    2 ar 
     2    1   10 ar 
     3    2    3 ar 
     4    3    4 1  
     5    3    8 ar 
     6    4    5 2  
     7    4    6 2  
     8    4    7 am 
     9    8    9 ar 
    10    9   10 ar 
    11   10   11 1  
    12   11   12 ar 
    13   11   16 ar 
    14   12   13 ar 
    15   13   14 ar 
    16   14   15 ar 
    17   15   16 ar 
    18    1   17 1  
    19    2   18 1  
    20    7   19 1  
    21    7   20 1  
    22    8   21 1  
    23    9   22 1  
    24   12   23 1  
    25   13   24 1  
    26   14   25 1  
    27   15   26 1  
    28   16   27 1  
@<TRIPOS>SUBSTRUCTURE
     1 72D         1

