### 
### Created by X-TOOL on Mon Sep 10 21:13:26 2018
### 

@<TRIPOS>MOLECULE
5sz1_ligand
   30    31     1     0     0
SMALL
GAST_HUCK


@<TRIPOS>ATOM
      1 CAQ         1.8560    5.5330   81.9210 C.3       1 72E        -0.0297
      2 CAF         1.6120    6.8270   82.6940 C.ar      1 72E        -0.0368
      3 CAE         2.3280    7.9540   82.3120 C.ar      1 72E        -0.0593
      4 CAD         2.1530    9.1600   82.9680 C.ar      1 72E        -0.0682
      5 CAC         1.2610    9.2510   84.0200 C.ar      1 72E        -0.0678
      6 CAB         0.5470    8.1250   84.4020 C.ar      1 72E        -0.0601
      7 CAA         0.6820    6.9260   83.7250 C.ar      1 72E        -0.0155
      8 CAG        -0.1350    5.7650   84.3140 C.ar      1 72E        -0.0214
      9 CAH        -1.5210    5.8120   84.4570 C.ar      1 72E        -0.0540
     10 CAI        -2.1910    4.7500   85.0640 C.ar      1 72E        -0.0357
     11 CAJ        -1.4840    3.6500   85.5480 C.ar      1 72E         0.1069
     12 SAM        -2.3050    2.2440   86.3660 S.o2      1 72E         0.0654
     13 OAN        -1.8670    2.3090   87.9300 O.2       1 72E        -0.1506
     14 OAO        -3.9150    2.4360   86.2050 O.2       1 72E        -0.1506
     15 NAP        -1.8060    0.7740   85.6670 N.am      1 72E        -0.2611
     16 CAK        -0.1090    3.6170   85.4240 C.ar      1 72E        -0.0357
     17 CAL         0.5580    4.6770   84.8310 C.ar      1 72E        -0.0540
     18 H1          2.6322    5.7014   81.1600 H         1 72E         0.0397
     19 H2          0.9235    5.2177   81.4301 H         1 72E         0.0397
     20 H3          2.1882    4.7478   82.6160 H         1 72E         0.0397
     21 H4          3.0321    7.8883   81.4905 H         1 72E         0.0557
     22 H5          2.7153   10.0330   82.6569 H         1 72E         0.0602
     23 H6          1.1211   10.1916   84.5404 H         1 72E         0.0561
     24 H7         -0.1295    8.1855   85.2468 H         1 72E         0.0605
     25 H8         -2.0760    6.6710   84.0976 H         1 72E         0.0614
     26 H9         -3.2703    4.7800   85.1603 H         1 72E         0.0634
     27 H10        -2.1708   -0.0918   86.0095 H         1 72E         0.1635
     28 H11        -1.1481    0.7764   84.9139 H         1 72E         0.1635
     29 H12         0.4482    2.7624   85.7903 H         1 72E         0.0634
     30 H13         1.6401    4.6572   84.7693 H         1 72E         0.0614
@<TRIPOS>BOND
     1    1    2 1  
     2    2    3 ar 
     3    2    7 ar 
     4    3    4 ar 
     5    4    5 ar 
     6    5    6 ar 
     7    6    7 ar 
     8    7    8 1  
     9    8    9 ar 
    10    8   17 ar 
    11    9   10 ar 
    12   10   11 ar 
    13   11   12 1  
    14   11   16 ar 
    15   12   13 2  
    16   12   14 2  
    17   12   15 am 
    18   16   17 ar 
    19    1   18 1  
    20    1   19 1  
    21    1   20 1  
    22    3   21 1  
    23    4   22 1  
    24    5   23 1  
    25    6   24 1  
    26    9   25 1  
    27   10   26 1  
    28   15   27 1  
    29   15   28 1  
    30   16   29 1  
    31   17   30 1  
@<TRIPOS>SUBSTRUCTURE
     1 72E         1

