### 
### Created by X-TOOL on Mon Sep 10 21:13:26 2018
### 

@<TRIPOS>MOLECULE
5sz2_ligand
   29    30     1     0     0
SMALL
GAST_HUCK


@<TRIPOS>ATOM
      1 OAR        18.4330   -5.3590   77.8740 O.2       1 72G        -0.3619
      2 CAQ        18.7750   -4.4980   77.1430 C.2       1 72G         0.1270
      3 CAK        18.6930   -3.0410   77.6080 C.ar      1 72G         0.0307
      4 CAL        17.9270   -2.6810   78.7140 C.ar      1 72G        -0.0354
      5 CAJ        19.3950   -2.0750   76.9070 C.ar      1 72G        -0.0433
      6 CAI        19.3420   -0.7530   77.3040 C.ar      1 72G        -0.0553
      7 CAH        18.5820   -0.3890   78.4010 C.ar      1 72G        -0.0495
      8 CAG        17.8820   -1.3520   79.1100 C.ar      1 72G        -0.0119
      9 CAE        17.0430   -0.9170   80.2960 C.ar      1 72G        -0.0166
     10 CAD        16.8160   -1.7220   81.3090 C.ar      1 72G        -0.0521
     11 CAC        15.9500   -1.2450   82.4660 C.ar      1 72G        -0.0345
     12 CAB        15.4360   -0.0300   82.4330 C.ar      1 72G         0.1079
     13 SAM        14.4000    0.5490   83.7920 S.o2      1 72G         0.0659
     14 OAN        13.4840   -0.5370   84.1740 O.2       1 72G        -0.1505
     15 OAO        15.2510    0.7780   84.9760 O.2       1 72G        -0.1505
     16 NAP        13.5950    1.9570   83.3520 N.am      1 72G        -0.2609
     17 CAA        15.6970    0.9030   81.2600 C.ar      1 72G        -0.0345
     18 CAF        16.4440    0.4820   80.2640 C.ar      1 72G        -0.0521
     19 H1         19.1454   -4.7372   76.1472 H         1 72G         0.1340
     20 H2         17.3703   -3.4332   79.2612 H         1 72G         0.0680
     21 H3         19.9878   -2.3570   76.0443 H         1 72G         0.0671
     22 H4         19.8964   -0.0002   76.7554 H         1 72G         0.0630
     23 H5         18.5340    0.6501   78.7061 H         1 72G         0.0661
     24 H6         17.2423   -2.7186   81.3207 H         1 72G         0.0624
     25 H7         15.7571   -1.8976   83.3098 H         1 72G         0.0637
     26 H8         12.9787    2.4040   84.0003 H         1 72G         0.1635
     27 H9         13.7323    2.3478   82.4418 H         1 72G         0.1635
     28 H10        15.2730    1.9005   81.2459 H         1 72G         0.0637
     29 H11        16.6340    1.1324   79.4179 H         1 72G         0.0624
@<TRIPOS>BOND
     1    1    2 2  
     2    2    3 1  
     3    3    4 ar 
     4    3    5 ar 
     5    4    8 ar 
     6    5    6 ar 
     7    6    7 ar 
     8    7    8 ar 
     9    8    9 1  
    10    9   10 ar 
    11    9   18 ar 
    12   10   11 ar 
    13   11   12 ar 
    14   12   13 1  
    15   12   17 ar 
    16   13   14 2  
    17   13   15 2  
    18   13   16 am 
    19   17   18 ar 
    20    2   19 1  
    21    4   20 1  
    22    5   21 1  
    23    6   22 1  
    24    7   23 1  
    25   10   24 1  
    26   11   25 1  
    27   16   26 1  
    28   16   27 1  
    29   17   28 1  
    30   18   29 1  
@<TRIPOS>SUBSTRUCTURE
     1 72G         1

