### 
### Created by X-TOOL on Mon Sep 10 21:13:26 2018
### 

@<TRIPOS>MOLECULE
5sz3_ligand
   32    34     1     0     0
SMALL
GAST_HUCK


@<TRIPOS>ATOM
      1 CAL         0.4700    5.9580   84.4200 C.ar      1 72H        -0.0273
      2 CAK         1.3710    6.8310   83.9130 C.ar      1 72H         0.0072
      3 CAP         1.6180    8.0320   84.5650 C.ar      1 72H        -0.0461
      4 CAO         2.5350    8.9270   84.0540 C.ar      1 72H        -0.0559
      5 CAN         3.2040    8.6150   82.8890 C.ar      1 72H        -0.0559
      6 CAM         2.9610    7.4140   82.2410 C.ar      1 72H        -0.0393
      7 CAJ         2.0390    6.5190   82.7550 C.ar      1 72H         0.0468
      8 NAI         1.8050    5.3600   82.1260 N.ar      1 72H        -0.2942
      9 CAH         0.9110    4.4790   82.6200 C.ar      1 72H         0.0187
     10 CAG         0.2040    4.8030   83.7670 C.ar      1 72H         0.0119
     11 CAE        -0.7510    3.7990   84.3710 C.ar      1 72H        -0.0116
     12 CAD         0.0450    2.6280   84.9000 C.ar      1 72H        -0.0513
     13 CAC        -0.5440    1.6360   85.4900 C.ar      1 72H        -0.0342
     14 CAB        -2.0450    1.6580   85.6430 C.ar      1 72H         0.1083
     15 SAQ        -2.6820    0.1940   86.4910 S.o2      1 72H         0.0660
     16 OAR        -4.1490    0.1790   86.5030 O.2       1 72H        -0.1504
     17 OAS        -2.3020    0.2820   87.9050 O.2       1 72H        -0.1504
     18 NAT        -1.9650   -1.1820   85.7860 N.am      1 72H        -0.2609
     19 CAA        -2.7670    2.6750   85.1980 C.ar      1 72H        -0.0342
     20 CAF        -2.0620    3.8490   84.5080 C.ar      1 72H        -0.0513
     21 H1         -0.0391    6.1840   85.3499 H         1 72H         0.0773
     22 H2          1.0874    8.2675   85.4804 H         1 72H         0.0654
     23 H3          2.7276    9.8649   84.5623 H         1 72H         0.0641
     24 H4          3.9241    9.3131   82.4777 H         1 72H         0.0652
     25 H5          3.4950    7.1750   81.3284 H         1 72H         0.0644
     26 H6          0.7474    3.5284   82.1254 H         1 72H         0.0875
     27 H7          1.1228    2.6179   84.7843 H         1 72H         0.0627
     28 H8          0.0342    0.8010   85.8688 H         1 72H         0.0638
     29 H9         -2.1952   -2.0945   86.1241 H         1 72H         0.1635
     30 H10        -1.3140   -1.0769   85.0342 H         1 72H         0.1635
     31 H11        -3.8441    2.6776   85.3201 H         1 72H         0.0638
     32 H12        -2.6268    4.6987   84.1420 H         1 72H         0.0627
@<TRIPOS>BOND
     1    1    2 ar 
     2    1   10 ar 
     3    2    3 ar 
     4    2    7 ar 
     5    3    4 ar 
     6    4    5 ar 
     7    5    6 ar 
     8    6    7 ar 
     9    7    8 ar 
    10    8    9 ar 
    11    9   10 ar 
    12   10   11 1  
    13   11   12 ar 
    14   11   20 ar 
    15   12   13 ar 
    16   13   14 ar 
    17   14   15 1  
    18   14   19 ar 
    19   15   16 2  
    20   15   17 2  
    21   15   18 am 
    22   19   20 ar 
    23    1   21 1  
    24    3   22 1  
    25    4   23 1  
    26    5   24 1  
    27    6   25 1  
    28    9   26 1  
    29   12   27 1  
    30   13   28 1  
    31   18   29 1  
    32   18   30 1  
    33   19   31 1  
    34   20   32 1  
@<TRIPOS>SUBSTRUCTURE
     1 72H         1

