### 
### Created by X-TOOL on Mon Sep 10 21:13:28 2018
### 

@<TRIPOS>MOLECULE
5sz4_ligand
   27    28     1     0     0
SMALL
GAST_HUCK


@<TRIPOS>ATOM
      1 CAH        17.9890    5.7380   15.5320 C.ar      1 72D        -0.0522
      2 CAI        17.3580    4.4940   16.1160 C.ar      1 72D        -0.0345
      3 CAJ        16.0480    4.4340   16.2530 C.ar      1 72D         0.1079
      4 SAM        15.3670    2.9370   16.9760 S.o2      1 72D         0.0659
      5 OAN        15.7530    2.9280   18.3780 O.2       1 72D        -0.1505
      6 OAO        13.8870    2.9640   16.8970 O.2       1 72D        -0.1505
      7 NAP        16.0190    1.5840   16.2080 N.am      1 72D        -0.2609
      8 CAK        15.1360    5.5830   15.8470 C.ar      1 72D        -0.0345
      9 CAL        15.7020    6.6560   15.3390 C.ar      1 72D        -0.0522
     10 CAG        17.2070    6.7220   15.1640 C.ar      1 72D        -0.0178
     11 CAA        17.8340    7.9800   14.6110 C.ar      1 72D        -0.0179
     12 CAB        18.9440    7.9420   13.9100 C.ar      1 72D        -0.0540
     13 CAC        19.5310    9.2530   13.4000 C.ar      1 72D        -0.0612
     14 CAD        18.9350   10.3940   13.6700 C.ar      1 72D        -0.0617
     15 CAE        17.6560   10.4230   14.4920 C.ar      1 72D        -0.0612
     16 CAF        17.1440    9.2950   14.9340 C.ar      1 72D        -0.0540
     17 H1         19.0646    5.8136   15.4204 H         1 72D         0.0624
     18 H2         17.9778    3.6581   16.4196 H         1 72D         0.0637
     19 H3         15.7429    0.6660   16.4927 H         1 72D         0.1635
     20 H4         16.6816    1.6999   15.4681 H         1 72D         0.1635
     21 H5         14.0611    5.5193   15.9718 H         1 72D         0.0637
     22 H6         15.0884    7.4993   15.0433 H         1 72D         0.0624
     23 H7         19.4326    6.9978   13.6985 H         1 72D         0.0624
     24 H8         20.4423    9.2450   12.8131 H         1 72D         0.0618
     25 H9         19.3592   11.3217   13.3034 H         1 72D         0.0618
     26 H10        17.1698   11.3665   14.7121 H         1 72D         0.0618
     27 H11        16.2354    9.3032   15.5251 H         1 72D         0.0624
@<TRIPOS>BOND
     1    1    2 ar 
     2    1   10 ar 
     3    2    3 ar 
     4    3    4 1  
     5    3    8 ar 
     6    4    5 2  
     7    4    6 2  
     8    4    7 am 
     9    8    9 ar 
    10    9   10 ar 
    11   10   11 1  
    12   11   12 ar 
    13   11   16 ar 
    14   12   13 ar 
    15   13   14 ar 
    16   14   15 ar 
    17   15   16 ar 
    18    1   17 1  
    19    2   18 1  
    20    7   19 1  
    21    7   20 1  
    22    8   21 1  
    23    9   22 1  
    24   12   23 1  
    25   13   24 1  
    26   14   25 1  
    27   15   26 1  
    28   16   27 1  
@<TRIPOS>SUBSTRUCTURE
     1 72D         1

