### 
### Created by X-TOOL on Mon Sep 10 21:13:26 2018
### 

@<TRIPOS>MOLECULE
5sz5_ligand
   30    31     1     0     0
SMALL
GAST_HUCK


@<TRIPOS>ATOM
      1 CAQ        16.3020    7.7770   15.3830 C.3       1 72E        -0.0297
      2 CAF        17.5200    7.4000   14.5340 C.ar      1 72E        -0.0368
      3 CAE        18.2180    8.4860   14.0170 C.ar      1 72E        -0.0593
      4 CAD        19.3430    8.2960   13.2350 C.ar      1 72E        -0.0682
      5 CAC        19.7850    7.0130   12.9740 C.ar      1 72E        -0.0678
      6 CAB        19.0930    5.9220   13.4830 C.ar      1 72E        -0.0601
      7 CAA        17.9530    6.1000   14.2490 C.ar      1 72E        -0.0155
      8 CAG        17.2630    4.8680   14.8420 C.ar      1 72E        -0.0214
      9 CAH        15.8870    4.7480   14.9410 C.ar      1 72E        -0.0540
     10 CAI        15.3150    3.6390   15.5380 C.ar      1 72E        -0.0357
     11 CAJ        16.1460    2.6340   16.0290 C.ar      1 72E         0.1069
     12 SAM        15.4690    1.1950   16.8450 S.o2      1 72E         0.0654
     13 OAN        16.0030    1.3020   18.2740 O.2       1 72E        -0.1506
     14 OAO        13.9180    1.2890   16.6460 O.2       1 72E        -0.1506
     15 NAP        16.0960   -0.1370   16.1120 N.am      1 72E        -0.2611
     16 CAK        17.5290    2.7450   15.9140 C.ar      1 72E        -0.0357
     17 CAL        18.0820    3.8690   15.3300 C.ar      1 72E        -0.0540
     18 H1         16.2126    8.8724   15.4299 H         1 72E         0.0397
     19 H2         16.4251    7.3753   16.3996 H         1 72E         0.0397
     20 H3         15.3936    7.3541   14.9292 H         1 72E         0.0397
     21 H4         17.8766    9.4927   14.2292 H         1 72E         0.0557
     22 H5         19.8750    9.1488   12.8291 H         1 72E         0.0602
     23 H6         20.6727    6.8581   12.3714 H         1 72E         0.0561
     24 H7         19.4494    4.9189   13.2783 H         1 72E         0.0605
     25 H8         15.2509    5.5320   14.5462 H         1 72E         0.0614
     26 H9         14.2377    3.5532   15.6225 H         1 72E         0.0634
     27 H10        15.8369   -1.0499   16.4274 H         1 72E         0.1635
     28 H11        16.7364   -0.0340   15.3509 H         1 72E         0.1635
     29 H12        18.1703    1.9521   16.2815 H         1 72E         0.0634
     30 H13        19.1590    3.9664   15.2550 H         1 72E         0.0614
@<TRIPOS>BOND
     1    1    2 1  
     2    2    3 ar 
     3    2    7 ar 
     4    3    4 ar 
     5    4    5 ar 
     6    5    6 ar 
     7    6    7 ar 
     8    7    8 1  
     9    8    9 ar 
    10    8   17 ar 
    11    9   10 ar 
    12   10   11 ar 
    13   11   12 1  
    14   11   16 ar 
    15   12   13 2  
    16   12   14 2  
    17   12   15 am 
    18   16   17 ar 
    19    1   18 1  
    20    1   19 1  
    21    1   20 1  
    22    3   21 1  
    23    4   22 1  
    24    5   23 1  
    25    6   24 1  
    26    9   25 1  
    27   10   26 1  
    28   15   27 1  
    29   15   28 1  
    30   16   29 1  
    31   17   30 1  
@<TRIPOS>SUBSTRUCTURE
     1 72E         1

