### 
### Created by X-TOOL on Mon Sep 10 21:13:26 2018
### 

@<TRIPOS>MOLECULE
5sz6_ligand
   29    30     1     0     0
SMALL
GAST_HUCK


@<TRIPOS>ATOM
      1 OAR        21.6020    8.2900   12.5010 O.2       1 72G        -0.3619
      2 CAQ        20.7970    7.4150   12.5550 C.2       1 72G         0.1270
      3 CAK        19.4540    7.4770   13.3010 C.ar      1 72G         0.0307
      4 CAL        18.8800    6.3090   13.7900 C.ar      1 72G        -0.0354
      5 CAJ        18.7990    8.6440   13.5440 C.ar      1 72G        -0.0433
      6 CAI        17.6170    8.6950   14.1710 C.ar      1 72G        -0.0553
      7 CAH        17.0580    7.5250   14.6400 C.ar      1 72G        -0.0495
      8 CAG        17.6570    6.3370   14.4230 C.ar      1 72G        -0.0119
      9 CAE        17.0210    5.0570   14.9760 C.ar      1 72G        -0.0166
     10 CAD        17.8300    4.0900   15.2670 C.ar      1 72G        -0.0521
     11 CAC        17.3320    2.8390   15.8710 C.ar      1 72G        -0.0345
     12 CAB        16.0160    2.6570   16.1150 C.ar      1 72G         0.1079
     13 SAM        15.3680    1.1810   16.8860 S.o2      1 72G         0.0659
     14 OAN        15.8850    1.2760   18.2700 O.2       1 72G        -0.1505
     15 OAO        13.9030    1.2040   16.7890 O.2       1 72G        -0.1505
     16 NAP        15.9730   -0.0820   16.0700 N.am      1 72G        -0.2609
     17 CAA        15.1050    3.7940   15.7820 C.ar      1 72G        -0.0345
     18 CAF        15.5800    4.9140   15.2810 C.ar      1 72G        -0.0521
     19 H1         21.0321    6.4901   12.0304 H         1 72G         0.1340
     20 H2         19.4008    5.3657   13.6718 H         1 72G         0.0680
     21 H3         19.2531    9.5721   13.2162 H         1 72G         0.0671
     22 H4         17.1072    9.6418   14.3078 H         1 72G         0.0630
     23 H5         16.1248    7.5610   15.1903 H         1 72G         0.0661
     24 H6         18.8891    4.2004   15.0641 H         1 72G         0.0624
     25 H7         18.0343    2.0527   16.1232 H         1 72G         0.0637
     26 H8         15.7330   -1.0140   16.3415 H         1 72G         0.1635
     27 H9         16.5863    0.0708   15.2950 H         1 72G         0.1635
     28 H10        14.0396    3.6947   15.9554 H         1 72G         0.0637
     29 H11        14.9075    5.7423   15.0893 H         1 72G         0.0624
@<TRIPOS>BOND
     1    1    2 2  
     2    2    3 1  
     3    3    4 ar 
     4    3    5 ar 
     5    4    8 ar 
     6    5    6 ar 
     7    6    7 ar 
     8    7    8 ar 
     9    8    9 1  
    10    9   10 ar 
    11    9   18 ar 
    12   10   11 ar 
    13   11   12 ar 
    14   12   13 1  
    15   12   17 ar 
    16   13   14 2  
    17   13   15 2  
    18   13   16 am 
    19   17   18 ar 
    20    2   19 1  
    21    4   20 1  
    22    5   21 1  
    23    6   22 1  
    24    7   23 1  
    25   10   24 1  
    26   11   25 1  
    27   16   26 1  
    28   16   27 1  
    29   17   28 1  
    30   18   29 1  
@<TRIPOS>SUBSTRUCTURE
     1 72G         1

