### 
### Created by X-TOOL on Mon Sep 10 21:13:26 2018
### 

@<TRIPOS>MOLECULE
5sz7_ligand
   32    34     1     0     0
SMALL
GAST_HUCK


@<TRIPOS>ATOM
      1 CAL         0.2020    9.5160   84.9000 C.ar      1 72H        -0.0273
      2 CAK         0.7810   10.6710   84.4600 C.ar      1 72H         0.0072
      3 CAP         0.2360   11.9110   84.7810 C.ar      1 72H        -0.0461
      4 CAO         0.8320   13.0850   84.3380 C.ar      1 72H        -0.0559
      5 CAN         1.9680   13.0270   83.5560 C.ar      1 72H        -0.0559
      6 CAM         2.5100   11.7940   83.2260 C.ar      1 72H        -0.0393
      7 CAJ         1.9200   10.6160   83.6800 C.ar      1 72H         0.0468
      8 NAI         2.4620    9.4320   83.3520 N.ar      1 72H        -0.2942
      9 CAH         1.9060    8.2750   83.7790 C.ar      1 72H         0.0187
     10 CAG         0.7450    8.3120   84.5440 C.ar      1 72H         0.0119
     11 CAE         0.1210    7.0380   85.0850 C.ar      1 72H        -0.0116
     12 CAD         1.0490    5.9100   85.5370 C.ar      1 72H        -0.0513
     13 CAC         0.5410    4.8210   86.0580 C.ar      1 72H        -0.0342
     14 CAB        -0.9620    4.7120   86.2100 C.ar      1 72H         0.1083
     15 SAQ        -1.5950    3.1880   86.9510 S.o2      1 72H         0.0660
     16 OAR        -3.0670    3.2280   86.9670 O.2       1 72H        -0.1504
     17 OAS        -1.2180    3.2320   88.3760 O.2       1 72H        -0.1504
     18 NAT        -0.9410    1.8170   86.1660 N.am      1 72H        -0.2609
     19 CAA        -1.7710    5.6840   85.8390 C.ar      1 72H        -0.0342
     20 CAF        -1.1790    6.9530   85.2400 C.ar      1 72H        -0.0513
     21 H1         -0.6816    9.5525   85.5269 H         1 72H         0.0773
     22 H2         -0.6637   11.9611   85.3835 H         1 72H         0.0654
     23 H3          0.4057   14.0450   84.6060 H         1 72H         0.0641
     24 H4          2.4336   13.9397   83.2020 H         1 72H         0.0652
     25 H5          3.4004   11.7461   82.6095 H         1 72H         0.0644
     26 H6          2.3626    7.3248   83.5265 H         1 72H         0.0875
     27 H7          2.1226    6.0112   85.4267 H         1 72H         0.0627
     28 H8          1.1864    4.0101   86.3756 H         1 72H         0.0638
     29 H9         -1.1990    0.8986   86.4660 H         1 72H         0.1635
     30 H10        -0.3006    1.9336   85.4069 H         1 72H         0.1635
     31 H11        -2.8435    5.5816   85.9586 H         1 72H         0.0638
     32 H12        -1.8226    7.7742   84.9459 H         1 72H         0.0627
@<TRIPOS>BOND
     1    1    2 ar 
     2    1   10 ar 
     3    2    3 ar 
     4    2    7 ar 
     5    3    4 ar 
     6    4    5 ar 
     7    5    6 ar 
     8    6    7 ar 
     9    7    8 ar 
    10    8    9 ar 
    11    9   10 ar 
    12   10   11 1  
    13   11   12 ar 
    14   11   20 ar 
    15   12   13 ar 
    16   13   14 ar 
    17   14   15 1  
    18   14   19 ar 
    19   15   16 2  
    20   15   17 2  
    21   15   18 am 
    22   19   20 ar 
    23    1   21 1  
    24    3   22 1  
    25    4   23 1  
    26    5   24 1  
    27    6   25 1  
    28    9   26 1  
    29   12   27 1  
    30   13   28 1  
    31   18   29 1  
    32   18   30 1  
    33   19   31 1  
    34   20   32 1  
@<TRIPOS>SUBSTRUCTURE
     1 72H         1

