### 
### Created by X-TOOL on Mon Sep 10 21:13:28 2018
### 

@<TRIPOS>MOLECULE
5sz9_ligand
   46    48     1     0     0
SMALL
GAST_HUCK


@<TRIPOS>ATOM
      1 C4        -24.2210  -33.4870  -13.4740 C.ar      1 74Y        -0.0412
      2 C5        -23.7790  -33.9300  -12.2000 C.ar      1 74Y         0.0872
      3 C6        -24.6100  -34.8410  -11.3720 C.2       1 74Y         0.2019
      4 C10       -24.6410  -36.9040  -13.9730 C.3       1 74Y        -0.0326
      5 C13       -26.6590  -37.7120  -11.4460 C.3       1 74Y        -0.0326
      6 C15       -22.5290  -33.4700  -11.7100 C.ar      1 74Y         0.1257
      7 C17       -20.8220  -34.6620  -10.3390 C.3       1 74Y         0.0913
      8 C20       -19.8770  -36.6720   -7.3930 C.2       1 74Y        -0.0808
      9 C21       -20.6540  -35.7290   -6.8390 C.2       1 74Y         0.0670
     10 C1        -21.3070  -31.2940  -14.4550 C.3       1 74Y        -0.0170
     11 C2        -22.1950  -32.2240  -13.6720 C.ar      1 74Y         0.0146
     12 C3        -23.4110  -32.6320  -14.2160 C.ar      1 74Y        -0.0415
     13 O7        -25.2650  -34.3110  -10.4880 O.2       1 74Y        -0.3920
     14 N8        -24.6520  -36.2060  -11.5450 N.am      1 74Y        -0.2746
     15 C9        -23.8710  -36.8750  -12.6240 C.3       1 74Y         0.0330
     16 C11       -25.9570  -37.6520  -13.8990 C.3       1 74Y        -0.0512
     17 C12       -26.8530  -37.1130  -12.7820 C.3       1 74Y        -0.0512
     18 C14       -25.5070  -37.0150  -10.6780 C.3       1 74Y         0.0330
     19 N16       -22.0630  -33.8770  -10.4540 N.pl3     1 74Y        -0.2912
     20 C18       -20.5960  -35.3060   -8.9900 C.2       1 74Y         0.1172
     21 C19       -19.8380  -36.3940   -8.7730 C.2       1 74Y        -0.0685
     22 O22       -21.0840  -34.9040   -7.8080 O.3       1 74Y        -0.2667
     23 N23       -21.7990  -32.6400  -12.4720 N.ar      1 74Y        -0.2798
     24 H1        -25.1788  -33.8109  -13.8648 H         1 74Y         0.0730
     25 H2        -24.0052  -37.3909  -14.7270 H         1 74Y         0.0285
     26 H3        -24.8458  -35.8677  -14.2799 H         1 74Y         0.0285
     27 H4        -26.4175  -38.7787  -11.5632 H         1 74Y         0.0285
     28 H5        -27.5892  -37.6080  -10.8682 H         1 74Y         0.0285
     29 H6        -19.9741  -33.9918  -10.5434 H         1 74Y         0.0715
     30 H7        -20.8507  -35.4587  -11.0969 H         1 74Y         0.0715
     31 H8        -19.3759  -37.4901   -6.8778 H         1 74Y         0.0296
     32 H9        -20.8958  -35.6462   -5.7804 H         1 74Y         0.0854
     33 H10       -21.7850  -31.0532  -15.4160 H         1 74Y         0.0427
     34 H11       -20.3380  -31.7808  -14.6393 H         1 74Y         0.0427
     35 H12       -21.1493  -30.3684  -13.8819 H         1 74Y         0.0427
     36 H13       -23.7201  -32.2905  -15.1973 H         1 74Y         0.0548
     37 H14       -22.9259  -36.3306  -12.7670 H         1 74Y         0.0521
     38 H15       -23.6557  -37.9090  -12.3165 H         1 74Y         0.0521
     39 H16       -25.7520  -38.7159  -13.7092 H         1 74Y         0.0266
     40 H17       -26.4821  -37.5454  -14.8597 H         1 74Y         0.0266
     41 H18       -26.6684  -36.0321  -12.6955 H         1 74Y         0.0266
     42 H19       -27.8985  -37.2839  -13.0782 H         1 74Y         0.0266
     43 H20       -24.8885  -37.7870  -10.1969 H         1 74Y         0.0521
     44 H21       -25.9434  -36.3622   -9.9077 H         1 74Y         0.0521
     45 H22       -22.5909  -33.6261   -9.6059 H         1 74Y         0.1855
     46 H23       -19.2923  -36.9586   -9.5276 H         1 74Y         0.0219
@<TRIPOS>BOND
     1    2    1 ar 
     2    1   12 ar 
     3    2    3 1  
     4    6    2 ar 
     5    3   13 2  
     6    3   14 am 
     7   15    4 1  
     8    4   16 1  
     9    5   17 1  
    10   18    5 1  
    11   19    6 1  
    12    6   23 ar 
    13    7   19 1  
    14   20    7 1  
    15    8    9 2  
    16   21    8 1  
    17    9   22 1  
    18   11   10 1  
    19   11   12 ar 
    20   23   11 ar 
    21   14   15 1  
    22   14   18 1  
    23   17   16 1  
    24   20   21 2  
    25   20   22 1  
    26    1   24 1  
    27    4   25 1  
    28    4   26 1  
    29    5   27 1  
    30    5   28 1  
    31    7   29 1  
    32    7   30 1  
    33    8   31 1  
    34    9   32 1  
    35   10   33 1  
    36   10   34 1  
    37   10   35 1  
    38   12   36 1  
    39   15   37 1  
    40   15   38 1  
    41   16   39 1  
    42   16   40 1  
    43   17   41 1  
    44   17   42 1  
    45   18   43 1  
    46   18   44 1  
    47   19   45 1  
    48   21   46 1  
@<TRIPOS>SUBSTRUCTURE
     1 74Y         1

