### 
### Created by X-TOOL on Mon Sep 10 21:13:33 2018
### 

@<TRIPOS>MOLECULE
5t18_ligand
   72    77     1     0     0
SMALL
GAST_HUCK


@<TRIPOS>ATOM
      1 C13         6.4470  -14.3660   -4.4500 C.3       1 73T        -0.0415
      2 C18         6.9920  -12.1990   -1.9470 C.ar      1 73T        -0.0324
      3 C15         1.2090  -12.7520   -1.4180 C.2       1 73T         0.1939
      4 C19         7.7530  -13.1520   -1.2620 C.ar      1 73T        -0.0761
      5 C20         9.1720  -13.0850   -1.3430 C.ar      1 73T        -0.0808
      6 C21         9.7890  -12.0890   -2.0370 C.ar      1 73T        -0.0428
      7 C22         8.9940  -11.1330   -2.7040 C.ar      1 73T         0.0983
      8 C23         7.5860  -11.1830   -2.6640 C.ar      1 73T        -0.0121
      9 C11         5.2580  -16.2720   -5.6080 C.3       1 73T        -0.0006
     10 C12         6.1660  -15.0550   -5.7660 C.3       1 73T        -0.0433
     11 C34        10.7720   -9.3460   -6.8470 C.ar      1 73T        -0.0584
     12 C33        11.3920   -8.3050   -7.5340 C.ar      1 73T        -0.0732
     13 C1          3.3740  -13.3320   -2.5050 C.ar      1 73T         0.0725
     14 C2          4.8080  -13.2240   -2.7320 C.ar      1 73T        -0.0213
     15 C3          5.5210  -12.3640   -1.9080 C.ar      1 73T        -0.0038
     16 C4          4.7840  -11.6280   -0.9500 C.ar      1 73T         0.1240
     17 C5          3.4200  -11.7060   -0.7550 C.ar      1 73T        -0.0250
     18 C6          2.6720  -12.6030   -1.5480 C.ar      1 73T         0.0614
     19 N7          2.8760  -14.2670   -3.4020 N.pl3     1 73T        -0.2799
     20 C8          3.9790  -14.7410   -4.1490 C.2       1 73T         0.0392
     21 C9          5.1500  -14.0970   -3.7630 C.2       1 73T        -0.0476
     22 C10         3.8690  -15.7880   -5.1820 C.3       1 73T         0.0052
     23 C14         5.2360  -17.1840   -6.8510 C.3       1 73T         0.0653
     24 O16         0.6550  -13.7620   -1.9160 O.2       1 73T        -0.3906
     25 N17         0.4730  -11.9430   -0.6660 N.am      1 73T        -0.3020
     26 O24         6.5650  -17.7660   -6.9640 O.3       1 73T        -0.3887
     27 N25         9.6760  -10.0950   -3.4300 N.am      1 73T        -0.1180
     28 C26        10.0940   -8.9900   -2.6710 C.2       1 73T         0.3477
     29 N27        10.8080   -7.9790   -3.3800 N.am      1 73T        -0.1931
     30 C28        10.9640   -8.0330   -4.7580 C.ar      1 73T         0.1277
     31 C29        10.5520   -9.2000   -5.4760 C.ar      1 73T         0.0793
     32 C30         9.8850  -10.3020   -4.7750 C.2       1 73T         0.2470
     33 C31        11.5880   -6.9990   -5.5270 C.ar      1 73T         0.1583
     34 C32        11.7990   -7.1680   -6.8860 C.ar      1 73T        -0.0370
     35 F35        11.9230   -5.8520   -4.9850 F         1 73T        -0.1922
     36 O36         9.9030   -8.8900   -1.4870 O.2       1 73T        -0.3756
     37 O37         9.5320  -11.3530   -5.2960 O.2       1 73T        -0.3772
     38 F38         5.4330  -10.7340   -0.1540 F         1 73T        -0.1927
     39 C39         4.2620  -18.3410   -6.6820 C.3       1 73T        -0.0359
     40 C40         4.9350  -16.4190   -8.1310 C.3       1 73T        -0.0359
     41 C41         6.7530  -10.1320   -3.3530 C.3       1 73T        -0.0335
     42 C42        11.4520   -6.9370   -2.5720 C.3       1 73T         0.0478
     43 H1          6.9719  -13.4170   -4.6339 H         1 73T         0.0322
     44 H2          7.0723  -15.0146   -3.8189 H         1 73T         0.0322
     45 H3          7.2700  -13.9282   -0.6795 H         1 73T         0.0479
     46 H4          9.7711  -13.8384   -0.8446 H         1 73T         0.0525
     47 H5         10.8708  -12.0317   -2.0763 H         1 73T         0.0492
     48 H6          5.6615  -16.8789   -4.7841 H         1 73T         0.0352
     49 H7          7.1207  -15.3820   -6.2037 H         1 73T         0.0281
     50 H8          5.6791  -14.3374   -6.4427 H         1 73T         0.0281
     51 H9         10.4674  -10.2484   -7.3647 H         1 73T         0.0594
     52 H10        11.5558   -8.3959   -8.6017 H         1 73T         0.0492
     53 H11         2.9325  -11.0906   -0.0076 H         1 73T         0.0556
     54 H12         1.8935  -14.5589   -3.5037 H         1 73T         0.2226
     55 H13         3.2987  -16.6370   -4.7771 H         1 73T         0.0448
     56 H14         3.3445  -15.3782   -6.0577 H         1 73T         0.0448
     57 H15        -0.5159  -12.0787   -0.6053 H         1 73T         0.1804
     58 H16         0.9074  -11.1978   -0.1601 H         1 73T         0.1804
     59 H17         6.5955  -18.3383   -7.7216 H         1 73T         0.2102
     60 H18        12.2959   -6.3853   -7.4478 H         1 73T         0.0596
     61 H19         4.2752  -18.9665   -7.5867 H         1 73T         0.0257
     62 H20         3.2475  -17.9462   -6.5240 H         1 73T         0.0257
     63 H21         4.5592  -18.9466   -5.8132 H         1 73T         0.0257
     64 H22         4.9317  -17.1156   -8.9823 H         1 73T         0.0257
     65 H23         5.7062  -15.6507   -8.2890 H         1 73T         0.0257
     66 H24         3.9495  -15.9376   -8.0474 H         1 73T         0.0257
     67 H25         5.6860  -10.3528   -3.2021 H         1 73T         0.0369
     68 H26         6.9788  -10.1327   -4.4296 H         1 73T         0.0369
     69 H27         6.9863   -9.1438   -2.9300 H         1 73T         0.0369
     70 H28        11.1952   -7.0835   -1.5125 H         1 73T         0.0554
     71 H29        11.1004   -5.9481   -2.9011 H         1 73T         0.0554
     72 H30        12.5432   -6.9984   -2.6966 H         1 73T         0.0554
@<TRIPOS>BOND
     1    1   10 1  
     2   21    1 1  
     3    2    4 ar 
     4    8    2 ar 
     5    2   15 1  
     6   18    3 1  
     7    3   24 2  
     8    3   25 am 
     9    5    4 ar 
    10    6    5 ar 
    11    7    6 ar 
    12    7    8 ar 
    13   27    7 1  
    14    8   41 1  
    15   10    9 1  
    16   22    9 1  
    17    9   23 1  
    18   11   12 ar 
    19   31   11 ar 
    20   12   34 ar 
    21   14   13 ar 
    22   13   18 ar 
    23   13   19 1  
    24   15   14 ar 
    25   14   21 1  
    26   15   16 ar 
    27   16   17 ar 
    28   16   38 1  
    29   17   18 ar 
    30   20   19 1  
    31   21   20 2  
    32   20   22 1  
    33   23   26 1  
    34   23   39 1  
    35   23   40 1  
    36   28   27 am 
    37   27   32 am 
    38   29   28 am 
    39   28   36 2  
    40   30   29 1  
    41   29   42 1  
    42   30   31 ar 
    43   30   33 ar 
    44   31   32 1  
    45   32   37 2  
    46   33   34 ar 
    47   33   35 1  
    48    1   43 1  
    49    1   44 1  
    50    4   45 1  
    51    5   46 1  
    52    6   47 1  
    53    9   48 1  
    54   10   49 1  
    55   10   50 1  
    56   11   51 1  
    57   12   52 1  
    58   17   53 1  
    59   19   54 1  
    60   22   55 1  
    61   22   56 1  
    62   25   57 1  
    63   25   58 1  
    64   26   59 1  
    65   34   60 1  
    66   39   61 1  
    67   39   62 1  
    68   39   63 1  
    69   40   64 1  
    70   40   65 1  
    71   40   66 1  
    72   41   67 1  
    73   41   68 1  
    74   41   69 1  
    75   42   70 1  
    76   42   71 1  
    77   42   72 1  
@<TRIPOS>SUBSTRUCTURE
     1 73T         1

