### 
### Created by X-TOOL on Mon Sep 10 21:13:30 2018
### 

@<TRIPOS>MOLECULE
5t19_ligand
   40    42     1     0     0
SMALL
GAST_HUCK


@<TRIPOS>ATOM
      1 C10        -1.3990   67.2070    0.4080 C.ar      1 73U        -0.0433
      2 C13        -1.3370   61.4490    2.5880 C.ar      1 73U         0.0710
      3 C15        -0.0040   59.4320    1.8120 C.3       1 73U        -0.0364
      4 C17        -0.3100   62.9470    0.4380 C.ar      1 73U        -0.0803
      5 C20        -3.6300   59.2750    4.6870 C.2       1 73U         0.2228
      6 C02        -3.7310   69.5760    1.8840 C.3       1 73U         0.0127
      7 N04        -3.1890   68.8470    0.7850 N.pl3     1 73U        -0.3252
      8 C05        -2.6560   67.5310    0.9170 C.ar      1 73U         0.0387
      9 C06        -3.4120   66.5470    1.5340 C.ar      1 73U        -0.0433
     10 C07        -2.9050   65.2660    1.6610 C.ar      1 73U        -0.0663
     11 C08        -1.6460   64.9490    1.1770 C.ar      1 73U        -0.0382
     12 C09        -0.8870   65.9160    0.5350 C.ar      1 73U        -0.0663
     13 C11        -1.1890   63.5230    1.3410 C.ar      1 73U        -0.0487
     14 C12        -1.7060   62.7750    2.3960 C.ar      1 73U        -0.0469
     15 C14        -0.4480   60.8720    1.6760 C.ar      1 73U        -0.0284
     16 C16         0.0620   61.6200    0.6160 C.ar      1 73U        -0.0761
     17 N18        -1.9170   60.7370    3.6920 N.am      1 73U        -0.1420
     18 C19        -3.4160   60.0390    3.5910 C.3       1 73U         0.1461
     19 O21        -4.5850   58.5710    4.8810 O.2       1 73U        -0.3929
     20 N22        -2.4700   59.4560    5.6560 N.am      1 73U        -0.1348
     21 S23        -1.3990   60.5410    4.9620 S.o2      1 73U         0.1640
     22 O24        -0.0450   60.0220    4.9430 O.2       1 73U        -0.1248
     23 O25        -1.4620   61.7350    5.7580 O.2       1 73U        -0.1248
     24 H1         -0.8121   67.9684   -0.0929 H         1 73U         0.0520
     25 H2          0.6903   59.1838    0.9957 H         1 73U         0.0358
     26 H3         -0.8818   58.7712    1.7603 H         1 73U         0.0358
     27 H4          0.5024   59.2941    2.7787 H         1 73U         0.0358
     28 H5          0.0810   63.5220   -0.3936 H         1 73U         0.0450
     29 H6         -4.0772   70.5604    1.5360 H         1 73U         0.0476
     30 H7         -2.9558   69.7107    2.6527 H         1 73U         0.0476
     31 H8         -4.5782   69.0194    2.3112 H         1 73U         0.0476
     32 H9         -3.1822   69.2903   -0.1447 H         1 73U         0.1759
     33 H10        -4.3990   66.7806    1.9165 H         1 73U         0.0520
     34 H11        -3.5004   64.5005    2.1454 H         1 73U         0.0587
     35 H12         0.0913   65.6716    0.1372 H         1 73U         0.0587
     36 H13        -2.4094   63.2358    3.0801 H         1 73U         0.0443
     37 H14         0.7571   61.1610   -0.0777 H         1 73U         0.0508
     38 H15        -4.1838   60.8247    3.5355 H         1 73U         0.0795
     39 H16        -3.4684   59.4108    2.6896 H         1 73U         0.0795
     40 H17        -2.3663   59.0089    6.5445 H         1 73U         0.2164
@<TRIPOS>BOND
     1    1    8 ar 
     2   12    1 ar 
     3    2   14 ar 
     4    2   15 ar 
     5   17    2 1  
     6   15    3 1  
     7   13    4 ar 
     8   16    4 ar 
     9   18    5 1  
    10    5   19 2  
    11    5   20 am 
    12    7    6 1  
    13    8    7 1  
    14    9    8 ar 
    15   10    9 ar 
    16   11   10 ar 
    17   11   12 ar 
    18   13   11 1  
    19   14   13 ar 
    20   15   16 ar 
    21   17   18 1  
    22   17   21 am 
    23   20   21 am 
    24   21   22 2  
    25   21   23 2  
    26    1   24 1  
    27    3   25 1  
    28    3   26 1  
    29    3   27 1  
    30    4   28 1  
    31    6   29 1  
    32    6   30 1  
    33    6   31 1  
    34    7   32 1  
    35    9   33 1  
    36   10   34 1  
    37   12   35 1  
    38   14   36 1  
    39   16   37 1  
    40   18   38 1  
    41   18   39 1  
    42   20   40 1  
@<TRIPOS>SUBSTRUCTURE
     1 73U         1

