### 
### Created by X-TOOL on Mon Sep 10 21:13:30 2018
### 

@<TRIPOS>MOLECULE
5t1a_ligand
   43    45     1     0     0
SMALL
GAST_HUCK


@<TRIPOS>ATOM
      1 C           3.5280   25.4410  191.3320 C.3       1 VT5         0.0070
      2 C1          4.6720   26.1300  190.6440 C.2       1 VT5         0.1188
      3 O           5.8260   25.8810  190.9560 O.2       1 VT5        -0.3914
      4 C2          4.4030   27.1550  189.5760 C.2       1 VT5         0.0767
      5 C3          3.3370   27.6970  189.3190 C.2       1 VT5         0.1832
      6 C4          3.6370   28.6540  188.2110 C.2       1 VT5         0.2668
      7 O1          2.7540   29.4030  187.6590 O.2       1 VT5        -0.3700
      8 N           4.9450   28.5900  187.9220 N.am      1 VT5        -0.2038
      9 C5          5.6050   27.5930  188.7940 C.3       1 VT5         0.1035
     10 C6          6.1640   26.5780  187.7880 C.3       1 VT5        -0.0053
     11 C11         7.5500   26.0710  188.1760 C.3       1 VT5        -0.0461
     12 C10         8.1430   25.2770  187.0210 C.3       1 VT5        -0.0526
     13 C9          7.2510   24.0850  186.7020 C.3       1 VT5        -0.0530
     14 C8          5.8360   24.5390  186.3680 C.3       1 VT5        -0.0526
     15 C7          5.2450   25.3970  187.4830 C.3       1 VT5        -0.0461
     16 C12         5.5660   29.3150  186.9900 C.ar      1 VT5         0.1053
     17 C13         6.6480   30.1230  187.3330 C.ar      1 VT5        -0.0415
     18 C14         7.3300   30.9070  186.4180 C.ar      1 VT5        -0.0655
     19 C15         6.9350   30.9090  185.0940 C.ar      1 VT5         0.0222
     20 C16         5.8600   30.1220  184.7110 C.ar      1 VT5        -0.0277
     21 C17         5.1920   29.3420  185.6520 C.ar      1 VT5         0.1526
     22 F           4.1520   28.5880  185.2520 F         1 VT5        -0.1936
     23 CL          7.8210   31.9240  183.9120 Cl        1 VT5        -0.0858
     24 O2          1.9910   27.4930  189.9050 O.3       1 VT5        -0.3230
     25 H1          2.5772   25.7999  190.9111 H         1 VT5         0.0442
     26 H2          3.5597   25.6640  192.4087 H         1 VT5         0.0442
     27 H3          3.6093   24.3546  191.1800 H         1 VT5         0.0442
     28 H4          6.3987   27.9930  189.4421 H         1 VT5         0.0754
     29 H5          6.2813   27.1285  186.8429 H         1 VT5         0.0347
     30 H6          7.4688   25.4239  189.0618 H         1 VT5         0.0270
     31 H7          8.2022   26.9266  188.4054 H         1 VT5         0.0270
     32 H8          9.1448   24.9188  187.3005 H         1 VT5         0.0265
     33 H9          8.2190   25.9237  186.1344 H         1 VT5         0.0265
     34 H10         7.2180   23.4161  187.5746 H         1 VT5         0.0265
     35 H11         7.6682   23.5433  185.8403 H         1 VT5         0.0265
     36 H12         5.2008   23.6524  186.2247 H         1 VT5         0.0265
     37 H13         5.8595   25.1273  185.4389 H         1 VT5         0.0265
     38 H14         4.2614   25.7749  187.1672 H         1 VT5         0.0270
     39 H15         5.1288   24.7844  188.3892 H         1 VT5         0.0270
     40 H16         6.9719   30.1386  188.3674 H         1 VT5         0.0491
     41 H17         8.1682   31.5152  186.7382 H         1 VT5         0.0551
     42 H18         5.5382   30.1136  183.6759 H         1 VT5         0.0568
     43 H19         2.0418   26.8391  190.5923 H         1 VT5         0.2507
@<TRIPOS>BOND
     1    1    2 1  
     2    2    3 2  
     3    2    4 1  
     4    4    5 2  
     5    4    9 1  
     6    5    6 1  
     7    5   24 1  
     8    6    7 2  
     9    6    8 am 
    10    8    9 1  
    11    8   16 1  
    12    9   10 1  
    13   10   11 1  
    14   10   15 1  
    15   11   12 1  
    16   12   13 1  
    17   13   14 1  
    18   14   15 1  
    19   16   17 ar 
    20   16   21 ar 
    21   17   18 ar 
    22   18   19 ar 
    23   19   20 ar 
    24   19   23 1  
    25   20   21 ar 
    26   21   22 1  
    27    1   25 1  
    28    1   26 1  
    29    1   27 1  
    30    9   28 1  
    31   10   29 1  
    32   11   30 1  
    33   11   31 1  
    34   12   32 1  
    35   12   33 1  
    36   13   34 1  
    37   13   35 1  
    38   14   36 1  
    39   14   37 1  
    40   15   38 1  
    41   15   39 1  
    42   17   40 1  
    43   18   41 1  
    44   20   42 1  
    45   24   43 1  
@<TRIPOS>SUBSTRUCTURE
     1 VT5         1

