### 
### Created by X-TOOL on Mon Sep 10 21:13:33 2018
### 

@<TRIPOS>MOLECULE
5t1s_ligand
   61    64     1     0     0
SMALL
GAST_HUCK


@<TRIPOS>ATOM
      1 N01        31.1990    4.5750   -7.8900 N.ar      1 76Q        -0.3064
      2 C02        30.4410    4.8010   -6.8430 C.ar      1 76Q         0.0081
      3 C03        29.9610    6.0090   -6.3640 C.ar      1 76Q         0.0102
      4 C04        30.3760    7.2350   -7.1820 C.ar      1 76Q        -0.0033
      5 C05        31.2190    6.9830   -8.3390 C.ar      1 76Q         0.0154
      6 C06        31.6340    5.6530   -8.6080 C.ar      1 76Q         0.0396
      7 C07        31.6620    8.0230   -9.2300 C.ar      1 76Q        -0.0371
      8 C08        32.5120    7.7510  -10.3140 C.ar      1 76Q        -0.0089
      9 C09        32.8900    6.4240  -10.5330 C.ar      1 76Q        -0.0486
     10 C10        32.4900    5.4120   -9.7090 C.ar      1 76Q        -0.0412
     11 C11        29.0630    6.0080   -5.1680 C.ar      1 76Q        -0.0308
     12 C12        29.9670    8.6860   -6.8980 C.3       1 76Q        -0.0066
     13 C13        33.0110    8.8530  -11.2010 C.ar      1 76Q         0.0010
     14 C14        27.7830    6.5480   -5.2520 C.ar      1 76Q        -0.0618
     15 C15        26.9320    6.5900   -4.1530 C.ar      1 76Q        -0.0536
     16 C16        27.3360    5.9850   -2.9860 C.ar      1 76Q        -0.0607
     17 C17        28.5600    5.3720   -2.8680 C.ar      1 76Q        -0.0536
     18 C18        29.3960    5.3390   -3.9850 C.ar      1 76Q        -0.0618
     19 C19        25.5940    7.2650   -4.2300 C.3       1 76Q        -0.0330
     20 C20        28.9810    4.7840   -1.5500 C.3       1 76Q        -0.0330
     21 C21        29.6930    8.9550   -5.4280 C.3       1 76Q        -0.0349
     22 C22        30.1610   10.2280   -4.8090 C.3       1 76Q        -0.0102
     23 C23        29.0410   11.2110   -4.5620 C.3       1 76Q        -0.0337
     24 N24        27.9210   10.5290   -3.8440 N.4       1 76Q         0.2248
     25 C25        26.8980   11.4420   -3.3250 C.3       1 76Q        -0.0449
     26 C26        32.2350    9.9640  -11.5100 C.ar      1 76Q         0.0071
     27 N27        32.6370   10.9660  -12.2990 N.ar      1 76Q        -0.3067
     28 C28        33.8600   10.8840  -12.8340 C.ar      1 76Q         0.0387
     29 C29        34.7220    9.8110  -12.6120 C.ar      1 76Q         0.1151
     30 C30        34.2850    8.7880  -11.7780 C.ar      1 76Q        -0.0071
     31 O31        35.9760    9.7750  -13.1720 O.3       1 76Q        -0.3256
     32 H1         30.1512    3.9237   -6.2761 H         1 76Q         0.0844
     33 H2         31.3313    9.0412   -9.0600 H         1 76Q         0.0678
     34 H3         33.5204    6.1909  -11.3835 H         1 76Q         0.0661
     35 H4         32.8352    4.4027   -9.9019 H         1 76Q         0.0631
     36 H5         29.0547    8.9102   -7.4701 H         1 76Q         0.0481
     37 H6         30.7797    9.3493   -7.2290 H         1 76Q         0.0481
     38 H7         27.4401    6.9467   -6.1999 H         1 76Q         0.0492
     39 H8         26.6678    5.9919   -2.1324 H         1 76Q         0.0487
     40 H9         30.3248    4.7822   -3.9350 H         1 76Q         0.0492
     41 H10        25.4532    7.6862   -5.2364 H         1 76Q         0.0389
     42 H11        25.5473    8.0727   -3.4847 H         1 76Q         0.0389
     43 H12        24.8007    6.5310   -4.0255 H         1 76Q         0.0389
     44 H13        28.1749    4.9194   -0.8139 H         1 76Q         0.0389
     45 H14        29.8902    5.2917   -1.1956 H         1 76Q         0.0389
     46 H15        29.1859    3.7106   -1.6760 H         1 76Q         0.0389
     47 H16        30.1589    8.1351   -4.8617 H         1 76Q         0.0296
     48 H17        28.6017    8.9185   -5.2953 H         1 76Q         0.0296
     49 H18        30.8956   10.6954   -5.4813 H         1 76Q         0.0319
     50 H19        30.6408    9.9944   -3.8471 H         1 76Q         0.0319
     51 H20        28.6759   11.5987   -5.5245 H         1 76Q         0.0814
     52 H21        29.4145   12.0444   -3.9489 H         1 76Q         0.0814
     53 H22        28.3088   10.0147   -3.0687 H         1 76Q         0.2011
     54 H23        27.4781    9.8886   -4.4842 H         1 76Q         0.2011
     55 H24        26.1149   10.8628   -2.8139 H         1 76Q         0.0777
     56 H25        26.4525   12.0053   -4.1582 H         1 76Q         0.0777
     57 H26        27.3590   12.1429   -2.6135 H         1 76Q         0.0777
     58 H27        31.2399   10.0219  -11.0840 H         1 76Q         0.0736
     59 H28        34.1980   11.6924  -13.4723 H         1 76Q         0.0745
     60 H29        34.9301    7.9409  -11.5747 H         1 76Q         0.0659
     61 H30        36.1043   10.5483  -13.7086 H         1 76Q         0.2505
@<TRIPOS>BOND
     1    1    2 ar 
     2    1    6 ar 
     3    2    3 ar 
     4    3    4 ar 
     5    3   11 1  
     6    4    5 ar 
     7    4   12 1  
     8    5    6 ar 
     9    5    7 ar 
    10    6   10 ar 
    11    7    8 ar 
    12    8    9 ar 
    13    8   13 1  
    14    9   10 ar 
    15   11   14 ar 
    16   11   18 ar 
    17   12   21 1  
    18   13   26 ar 
    19   13   30 ar 
    20   14   15 ar 
    21   15   16 ar 
    22   15   19 1  
    23   16   17 ar 
    24   17   18 ar 
    25   17   20 1  
    26   21   22 1  
    27   22   23 1  
    28   23   24 1  
    29   24   25 1  
    30   26   27 ar 
    31   27   28 ar 
    32   28   29 ar 
    33   29   30 ar 
    34   29   31 1  
    35    2   32 1  
    36    7   33 1  
    37    9   34 1  
    38   10   35 1  
    39   12   36 1  
    40   12   37 1  
    41   14   38 1  
    42   16   39 1  
    43   18   40 1  
    44   19   41 1  
    45   19   42 1  
    46   19   43 1  
    47   20   44 1  
    48   20   45 1  
    49   20   46 1  
    50   21   47 1  
    51   21   48 1  
    52   22   49 1  
    53   22   50 1  
    54   23   51 1  
    55   23   52 1  
    56   24   53 1  
    57   24   54 1  
    58   25   55 1  
    59   25   56 1  
    60   25   57 1  
    61   26   58 1  
    62   28   59 1  
    63   30   60 1  
    64   31   61 1  
@<TRIPOS>SUBSTRUCTURE
     1 76Q         1

