### 
### Created by X-TOOL on Mon Sep 10 21:13:33 2018
### 

@<TRIPOS>MOLECULE
5t1t_ligand
   44    46     1     0     0
SMALL
GAST_HUCK


@<TRIPOS>ATOM
      1 N01        31.0640    5.1950   -8.3860 N.ar      1 76P        -0.1019
      2 C02        30.2100    5.5090   -7.4250 C.ar      1 76P         0.2272
      3 N03        29.6790    6.7010   -7.1420 N.ar      1 76P        -0.0869
      4 C04        30.0050    7.7180   -7.9690 C.ar      1 76P         0.3312
      5 C05        30.9410    7.5500   -9.0470 C.ar      1 76P         0.2197
      6 C06        31.4600    6.2350   -9.1840 C.ar      1 76P         0.2339
      7 C07        31.4020    8.5560   -9.9110 C.ar      1 76P         0.1160
      8 C08        32.3260    8.2390  -10.8620 C.ar      1 76P         0.2171
      9 C09        32.8480    6.9670  -11.0180 C.ar      1 76P         0.1032
     10 C10        32.4220    5.9790  -10.1830 C.ar      1 76P         0.0967
     11 O11        29.4940    8.9630   -7.8270 O.3       1 76P        -0.2064
     12 N12        32.8190    9.3050  -11.7300 N.2       1 76P        -0.1485
     13 C13        28.6820    9.2910   -6.6570 C.3       1 76P         0.1199
     14 C14        29.6200    9.6310   -5.5190 C.3       1 76P        -0.0099
     15 C15        28.8400   10.1120   -4.2970 C.3       1 76P        -0.0064
     16 C16        27.9670   11.3030   -4.6760 C.3       1 76P        -0.0212
     17 C17        27.0470   10.9960   -5.8650 C.3       1 76P        -0.0064
     18 C18        27.8450   10.4820   -7.0620 C.3       1 76P        -0.0099
     19 N19        27.1400   11.7350   -3.4480 N.4       1 76P         0.2331
     20 C20        26.7300   13.1450   -3.4760 C.3       1 76P        -0.0431
     21 C21        26.0420   10.8630   -3.0100 C.3       1 76P        -0.0431
     22 O22        33.9300    9.1750  -12.2290 O.2       1 76P        -0.4610
     23 O23        32.1270   10.3080  -11.8700 O.2       1 76P        -0.4610
     24 H1         29.9011    4.6915   -6.7836 H         1 76P         0.1711
     25 H2         31.0287    9.5699   -9.8232 H         1 76P         0.1689
     26 H3         33.5813    6.7611  -11.7893 H         1 76P         0.1182
     27 H4         32.8289    4.9798  -10.2879 H         1 76P         0.1720
     28 H5         28.0363    8.4472   -6.3724 H         1 76P         0.0738
     29 H6         30.3073   10.4261   -5.8437 H         1 76P         0.0302
     30 H7         30.1976    8.7350   -5.2480 H         1 76P         0.0302
     31 H8         29.5458   10.4130   -3.5088 H         1 76P         0.0321
     32 H9         28.2027    9.2957   -3.9263 H         1 76P         0.0321
     33 H10        28.6265   12.1349   -4.9641 H         1 76P         0.0851
     34 H11        26.5167   11.9150   -6.1552 H         1 76P         0.0321
     35 H12        26.3165   10.2302   -5.5652 H         1 76P         0.0321
     36 H13        27.1503   10.1834   -7.8609 H         1 76P         0.0302
     37 H14        28.5046   11.2818   -7.4296 H         1 76P         0.0302
     38 H15        27.8040   11.6798   -2.6916 H         1 76P         0.2030
     39 H16        26.1475   13.3755   -2.5718 H         1 76P         0.0777
     40 H17        26.1121   13.3296   -4.3671 H         1 76P         0.0777
     41 H18        27.6233   13.7860   -3.5100 H         1 76P         0.0777
     42 H19        26.3849    9.8179   -3.0014 H         1 76P         0.0777
     43 H20        25.1940   10.9649   -3.7032 H         1 76P         0.0777
     44 H21        25.7249   11.1531   -1.9975 H         1 76P         0.0777
@<TRIPOS>BOND
     1    1    2 ar 
     2    1    6 ar 
     3    2    3 ar 
     4    3    4 ar 
     5    4    5 ar 
     6    4   11 1  
     7    5    6 ar 
     8    5    7 ar 
     9    6   10 ar 
    10    7    8 ar 
    11    8    9 ar 
    12    8   12 1  
    13    9   10 ar 
    14   11   13 1  
    15   12   22 2  
    16   12   23 2  
    17   13   14 1  
    18   13   18 1  
    19   14   15 1  
    20   15   16 1  
    21   16   17 1  
    22   16   19 1  
    23   17   18 1  
    24   19   20 1  
    25   19   21 1  
    26    2   24 1  
    27    7   25 1  
    28    9   26 1  
    29   10   27 1  
    30   13   28 1  
    31   14   29 1  
    32   14   30 1  
    33   15   31 1  
    34   15   32 1  
    35   16   33 1  
    36   17   34 1  
    37   17   35 1  
    38   18   36 1  
    39   18   37 1  
    40   19   38 1  
    41   20   39 1  
    42   20   40 1  
    43   20   41 1  
    44   21   42 1  
    45   21   43 1  
    46   21   44 1  
@<TRIPOS>SUBSTRUCTURE
     1 76P         1

