### 
### Created by X-TOOL on Mon Sep 10 21:13:32 2018
### 

@<TRIPOS>MOLECULE
5t1u_ligand
   45    47     1     0     0
SMALL
GAST_HUCK


@<TRIPOS>ATOM
      1 C1         16.6920  -37.5460    9.5350 C.3       1 P6U        -0.0464
      2 C2         16.9210  -38.9770    9.0640 C.3       1 P6U         0.0919
      3 C3         16.5690  -39.9770   10.1880 C.3       1 P6U        -0.0259
      4 C4         16.7200  -41.4290    9.7690 C.3       1 P6U        -0.0086
      5 S1         15.5770  -41.8470    8.3680 S.3       1 P6U        -0.0884
      6 C5         15.5120  -40.2890    7.5600 C.cat     1 P6U         0.2576
      7 N1         16.0430  -39.2140    7.8970 N.pl3     1 P6U        -0.2876
      8 N2         14.7280  -40.3410    6.4520 N.pl3     1 P6U        -0.2674
      9 C6         18.3810  -39.1850    8.6830 C.ar      1 P6U         0.0184
     10 C7         18.7260  -39.6870    7.4220 C.ar      1 P6U        -0.0326
     11 C8         20.0620  -39.8280    7.0450 C.ar      1 P6U         0.0621
     12 C9         21.0370  -39.4550    7.9470 C.ar      1 P6U         0.1727
     13 C10        20.7580  -38.9830    9.1950 C.ar      1 P6U         0.0340
     14 C11        19.4320  -38.8670    9.5360 C.ar      1 P6U         0.1586
     15 F1         19.1430  -38.4590   10.8020 F         1 P6U        -0.1603
     16 F2         22.3350  -39.5470    7.5480 F         1 P6U        -0.1607
     17 C12        20.4460  -40.3620    5.6870 C.3       1 P6U         0.0073
     18 N3         20.7220  -41.8010    5.8210 N.4       1 P6U         0.2494
     19 C13        21.5130  -42.3950    4.7270 C.3       1 P6U         0.0868
     20 C14        22.9610  -41.9920    4.7480 C.3       1 P6U         0.0073
     21 C15        22.5510  -43.4110    5.0740 C.3       1 P6U         0.0073
     22 C16        20.8470  -42.4930    3.3910 C.3       1 P6U         0.4357
     23 F3         21.6540  -42.9520    2.4700 F         1 P6U        -0.1650
     24 F4         19.7940  -43.3120    3.4220 F         1 P6U        -0.1650
     25 F5         20.4220  -41.3050    2.9540 F         1 P6U        -0.1650
     26 H1         17.3331  -37.3392   10.4046 H         1 P6U         0.0165
     27 H2         15.6370  -37.4177    9.8185 H         1 P6U         0.0165
     28 H3         16.9407  -36.8481    8.7219 H         1 P6U         0.0165
     29 H4         15.5253  -39.8080   10.4916 H         1 P6U         0.0209
     30 H5         17.2347  -39.7894   11.0434 H         1 P6U         0.0209
     31 H6         16.4866  -42.0761   10.6274 H         1 P6U         0.0366
     32 H7         17.7579  -41.6039    9.4494 H         1 P6U         0.0366
     33 H8         15.8494  -38.3997    7.2967 H         1 P6U         0.3094
     34 H9         14.5957  -39.4983    5.8747 H         1 P6U         0.3186
     35 H10        14.2658  -41.2231    6.1891 H         1 P6U         0.3186
     36 H11        17.9430  -39.9704    6.7280 H         1 P6U         0.0741
     37 H12        21.5467  -38.7114    9.8873 H         1 P6U         0.0662
     38 H13        21.3448  -39.8427    5.3230 H         1 P6U         0.0973
     39 H14        19.6197  -40.2057    4.9779 H         1 P6U         0.0973
     40 H15        19.8388  -42.2848    5.8651 H         1 P6U         0.2036
     41 H16        21.2261  -41.9427    6.6823 H         1 P6U         0.2036
     42 H17        23.3382  -41.3305    5.5418 H         1 P6U         0.0328
     43 H18        23.4862  -41.7718    3.8069 H         1 P6U         0.0328
     44 H19        22.7805  -44.2251    4.3708 H         1 P6U         0.0328
     45 H20        22.6325  -43.7837    6.1057 H         1 P6U         0.0328
@<TRIPOS>BOND
     1    1    2 1  
     2    2    3 1  
     3    2    7 1  
     4    2    9 1  
     5    3    4 1  
     6    4    5 1  
     7    5    6 1  
     8    6    7 ar 
     9    6    8 ar 
    10    9   10 ar 
    11    9   14 ar 
    12   10   11 ar 
    13   11   12 ar 
    14   11   17 1  
    15   12   13 ar 
    16   12   16 1  
    17   13   14 ar 
    18   14   15 1  
    19   17   18 1  
    20   18   19 1  
    21   19   20 1  
    22   19   21 1  
    23   19   22 1  
    24   20   21 1  
    25   22   23 1  
    26   22   24 1  
    27   22   25 1  
    28    1   26 1  
    29    1   27 1  
    30    1   28 1  
    31    3   29 1  
    32    3   30 1  
    33    4   31 1  
    34    4   32 1  
    35    7   33 1  
    36    8   34 1  
    37    8   35 1  
    38   10   36 1  
    39   13   37 1  
    40   17   38 1  
    41   17   39 1  
    42   18   40 1  
    43   18   41 1  
    44   20   42 1  
    45   20   43 1  
    46   21   44 1  
    47   21   45 1  
@<TRIPOS>SUBSTRUCTURE
     1 P6U         1

