### 
### Created by X-TOOL on Mon Sep 10 21:13:32 2018
### 

@<TRIPOS>MOLECULE
5t1w_ligand
   49    51     1     0     0
SMALL
GAST_HUCK


@<TRIPOS>ATOM
      1 O1         16.3290  -36.4100    9.6190 O.3       1 74B        -0.3793
      2 C2         21.2280  -38.9010    6.8060 C.ar      1 74B         0.0620
      3 C3         22.1220  -38.6270    7.8210 C.ar      1 74B         0.1727
      4 C4         21.7350  -38.0870    9.0190 C.ar      1 74B         0.0340
      5 C5         20.3980  -37.8460    9.1960 C.ar      1 74B         0.1587
      6 C6         19.4280  -38.1340    8.2450 C.ar      1 74B         0.0211
      7 C7         17.9180  -37.9920    8.5550 C.3       1 74B         0.1206
      8 C10        16.2820  -38.6540   10.4920 C.3       1 74B        -0.0247
      9 C12        17.5700  -40.4590    9.2420 C.3       1 74B        -0.0056
     10 C13        16.3780  -39.1400    7.0530 C.cat     1 74B         0.2577
     11 C16        21.1980  -41.9460    5.0800 C.3       1 74B         0.0652
     12 C17        22.1200  -42.1460    3.8350 C.3       1 74B         0.4298
     13 C14        14.8160  -36.8010   11.2760 C.3       1 74B         0.1162
     14 C8         17.6100  -36.5120    8.9850 C.3       1 74B         0.0678
     15 C1         19.8760  -38.6420    7.0260 C.ar      1 74B        -0.0325
     16 C9         16.2150  -37.1750   10.8150 C.3       1 74B         0.0854
     17 C11        17.5630  -39.0100    9.7230 C.3       1 74B        -0.0091
     18 S1         16.4730  -40.7500    7.8360 S.3       1 74B        -0.0881
     19 N1         17.0260  -38.0580    7.3860 N.pl3     1 74B        -0.2853
     20 N2         15.5620  -39.1720    5.9990 N.pl3     1 74B        -0.2674
     21 F1         14.8690  -35.4800   11.6210 F         1 74B        -0.2464
     22 F2         20.0150  -37.2350   10.3410 F         1 74B        -0.1603
     23 F3         23.4210  -38.9790    7.6510 F         1 74B        -0.1607
     24 C15        21.7000  -39.5410    5.5280 C.3       1 74B         0.0067
     25 N3         20.7790  -40.5500    5.0090 N.4       1 74B         0.2451
     26 F4         23.2750  -41.5060    3.9740 F         1 74B        -0.1655
     27 F5         22.4230  -43.4190    3.6350 F         1 74B        -0.1655
     28 F6         21.5370  -41.7210    2.7060 F         1 74B        -0.1655
     29 H1         22.4569  -37.8597    9.7950 H         1 74B         0.0662
     30 H2         15.4106  -38.9246    9.8776 H         1 74B         0.0287
     31 H3         16.2599  -39.2255   11.4316 H         1 74B         0.0287
     32 H4         17.2507  -41.1046   10.0735 H         1 74B         0.0369
     33 H5         18.5956  -40.7236    8.9453 H         1 74B         0.0369
     34 H6         21.7541  -42.1374    6.0095 H         1 74B         0.0903
     35 H7         20.3268  -42.6157    5.0294 H         1 74B         0.0903
     36 H8         14.5249  -37.4105   12.1442 H         1 74B         0.0641
     37 H9         14.0925  -36.9537   10.4616 H         1 74B         0.0641
     38 H10        18.3857  -36.1743    9.6880 H         1 74B         0.0494
     39 H11        17.6200  -35.8700    8.0919 H         1 74B         0.0494
     40 H12        19.1605  -38.8389    6.2358 H         1 74B         0.0741
     41 H13        16.9826  -36.9073   11.5560 H         1 74B         0.0621
     42 H14        18.3820  -38.9266   10.4526 H         1 74B         0.0246
     43 H15        16.9086  -37.2145    6.8067 H         1 74B         0.3095
     44 H16        15.4043  -38.3190    5.4437 H         1 74B         0.3186
     45 H17        15.0894  -40.0498    5.7401 H         1 74B         0.3186
     46 H18        22.6720  -40.0203    5.7164 H         1 74B         0.0973
     47 H19        21.8200  -38.7548    4.7680 H         1 74B         0.0973
     48 H20        19.9177  -40.4668    5.5260 H         1 74B         0.2030
     49 H21        20.6107  -40.3344    4.0388 H         1 74B         0.2030
@<TRIPOS>BOND
     1   14    1 1  
     2    1   16 1  
     3    2    3 ar 
     4    2   15 ar 
     5   24    2 1  
     6    3    4 ar 
     7    3   23 1  
     8    4    5 ar 
     9    6    5 ar 
    10    5   22 1  
    11    6    7 1  
    12   15    6 ar 
    13    7   14 1  
    14    7   17 1  
    15    7   19 1  
    16    8   16 1  
    17   17    8 1  
    18   17    9 1  
    19    9   18 1  
    20   10   18 1  
    21   19   10 ar 
    22   10   20 ar 
    23   11   12 1  
    24   25   11 1  
    25   12   26 1  
    26   12   27 1  
    27   12   28 1  
    28   16   13 1  
    29   13   21 1  
    30   24   25 1  
    31    4   29 1  
    32    8   30 1  
    33    8   31 1  
    34    9   32 1  
    35    9   33 1  
    36   11   34 1  
    37   11   35 1  
    38   13   36 1  
    39   13   37 1  
    40   14   38 1  
    41   14   39 1  
    42   15   40 1  
    43   16   41 1  
    44   17   42 1  
    45   19   43 1  
    46   20   44 1  
    47   20   45 1  
    48   24   46 1  
    49   24   47 1  
    50   25   48 1  
    51   25   49 1  
@<TRIPOS>SUBSTRUCTURE
     1 74B         1

