### 
### Created by X-TOOL on Mon Sep 10 21:13:34 2018
### 

@<TRIPOS>MOLECULE
5t23_ligand
   53    57     1     0     0
SMALL
GAST_HUCK


@<TRIPOS>ATOM
      1 C1        -42.6080   16.0330  -33.5070 C.ar      1 74F        -0.0700
      2 C2        -43.8780   16.5640  -33.4680 C.ar      1 74F        -0.0685
      3 C3        -42.1890   15.0690  -32.6180 C.ar      1 74F        -0.0495
      4 C7        -44.3910   15.2060  -31.6590 C.ar      1 74F         0.1339
      5 C8        -48.4710   15.3240  -30.5250 C.ar      1 74F         0.0749
      6 C9        -46.3930   14.4940  -30.3660 C.ar      1 74F         0.2378
      7 C10       -46.8730   13.3880  -29.6880 C.ar      1 74F         0.1794
      8 C11       -49.3940   16.3320  -30.9770 C.2       1 74F         0.1042
      9 C12       -50.1350   18.0180  -32.0000 C.2       1 74F         0.1942
     10 C13       -50.3810   21.1240  -31.4490 C.3       1 74F        -0.0055
     11 C14       -48.8950   21.1180  -33.2920 C.3       1 74F        -0.0055
     12 C15       -49.5380   22.1870  -30.7830 C.3       1 74F         0.0878
     13 C16       -48.0740   22.1810  -32.5960 C.3       1 74F         0.0878
     14 C19       -50.3380   19.2270  -32.8140 C.3       1 74F         0.0607
     15 N23       -49.0160   17.3570  -31.8070 N.2       1 74F        -0.2842
     16 N25       -44.1670   13.6970  -30.0490 N.2       1 74F        -0.0588
     17 N26       -45.0120   14.5690  -30.6190 N.pl3     1 74F        -0.0952
     18 N29       -45.9890   12.3920  -29.2670 N.pl3     1 74F        -0.3149
     19 C4        -44.8200   16.1720  -32.5420 C.ar      1 74F        -0.0277
     20 C5        -48.9540   14.2280  -29.8480 C.ar      1 74F         0.0242
     21 C6        -43.1240   14.6650  -31.6830 C.ar      1 74F         0.0805
     22 C17       -50.0550   18.9220  -34.2700 C.3       1 74F        -0.0032
     23 C18       -52.5280   17.7870  -31.2210 C.3       1 74F         0.0646
     24 N20       -48.1730   13.2380  -29.4150 N.ar      1 74F        -0.2669
     25 N21       -43.0070   13.7400  -30.6860 N.2       1 74F        -0.1963
     26 N22       -47.1740   15.4890  -30.8050 N.ar      1 74F        -0.2528
     27 N24       -50.6900   16.3280  -30.6450 N.2       1 74F        -0.1898
     28 N27       -51.1330   17.4070  -31.3000 N.pl3     1 74F        -0.1725
     29 N28       -49.5050   20.2890  -32.2610 N.4       1 74F         0.2592
     30 O30       -48.9420   22.9880  -31.8000 O.3       1 74F        -0.3693
     31 H1        -41.9154   16.3857  -34.2626 H         1 74F         0.0545
     32 H2        -44.1476   17.3212  -34.1954 H         1 74F         0.0582
     33 H3        -41.1886   14.6527  -32.6491 H         1 74F         0.0600
     34 H4        -51.1408   21.5977  -32.0880 H         1 74F         0.0838
     35 H5        -50.8771   20.5089  -30.6838 H         1 74F         0.0838
     36 H6        -48.2466   20.5029  -33.9332 H         1 74F         0.0838
     37 H7        -49.6767   21.5894  -33.9057 H         1 74F         0.0838
     38 H8        -48.7532   21.7128  -30.1755 H         1 74F         0.0613
     39 H9        -50.1714   22.8145  -30.1388 H         1 74F         0.0613
     40 H10       -47.5707   22.8089  -33.3460 H         1 74F         0.0613
     41 H11       -47.3206   21.7033  -31.9524 H         1 74F         0.0613
     42 H12       -51.3897   19.5393  -32.7341 H         1 74F         0.1119
     43 H13       -46.3446   11.5677  -28.7620 H         1 74F         0.1784
     44 H14       -44.9815   12.4818  -29.4615 H         1 74F         0.1784
     45 H15       -45.8194   16.5907  -32.5109 H         1 74F         0.0577
     46 H16       -50.0194   14.1665  -29.6577 H         1 74F         0.0810
     47 H17       -50.7198   18.1149  -34.6115 H         1 74F         0.0315
     48 H18       -49.0073   18.6059  -34.3815 H         1 74F         0.0315
     49 H19       -50.2324   19.8236  -34.8747 H         1 74F         0.0315
     50 H20       -53.0640   17.0810  -30.5696 H         1 74F         0.0601
     51 H21       -52.9713   17.7662  -32.2275 H         1 74F         0.0601
     52 H22       -52.6085   18.8024  -30.8058 H         1 74F         0.0601
     53 H23       -48.7790   19.8847  -31.6905 H         1 74F         0.2060
@<TRIPOS>BOND
     1    2    1 ar 
     2    3    1 ar 
     3   19    2 ar 
     4   21    3 ar 
     5   17    4 1  
     6    4   19 ar 
     7    4   21 ar 
     8    8    5 1  
     9    5   20 ar 
    10    5   26 ar 
    11    6    7 ar 
    12    6   17 1  
    13   26    6 ar 
    14    7   18 1  
    15    7   24 ar 
    16   15    8 1  
    17    8   27 2  
    18   14    9 1  
    19    9   15 2  
    20    9   28 1  
    21   10   12 1  
    22   29   10 1  
    23   11   13 1  
    24   29   11 1  
    25   12   30 1  
    26   13   30 1  
    27   14   22 1  
    28   14   29 1  
    29   17   16 1  
    30   16   25 2  
    31   20   24 ar 
    32   21   25 1  
    33   28   23 1  
    34   27   28 1  
    35    1   31 1  
    36    2   32 1  
    37    3   33 1  
    38   10   34 1  
    39   10   35 1  
    40   11   36 1  
    41   11   37 1  
    42   12   38 1  
    43   12   39 1  
    44   13   40 1  
    45   13   41 1  
    46   14   42 1  
    47   18   43 1  
    48   18   44 1  
    49   19   45 1  
    50   20   46 1  
    51   22   47 1  
    52   22   48 1  
    53   22   49 1  
    54   23   50 1  
    55   23   51 1  
    56   23   52 1  
    57   29   53 1  
@<TRIPOS>SUBSTRUCTURE
     1 74F         1

