### 
### Created by X-TOOL on Mon Sep 10 21:13:34 2018
### 

@<TRIPOS>MOLECULE
5t27_ligand
   53    57     1     0     0
SMALL
GAST_HUCK


@<TRIPOS>ATOM
      1 C1        -10.7910    9.9670   21.4570 C.ar      1 74F        -0.0700
      2 C2        -11.1480    8.6440   21.5830 C.ar      1 74F        -0.0685
      3 C3        -10.0990   10.6180   22.4550 C.ar      1 74F        -0.0495
      4 C7        -10.1660    8.5460   23.6910 C.ar      1 74F         0.1339
      5 C8        -10.5640    4.7710   25.5070 C.ar      1 74F         0.0749
      6 C9         -9.6240    6.8410   25.4250 C.ar      1 74F         0.2378
      7 C10        -8.5110    6.3870   26.1160 C.ar      1 74F         0.1794
      8 C11       -11.6450    3.8850   25.1240 C.2       1 74F         0.1042
      9 C12       -13.3500    3.2080   24.0450 C.2       1 74F         0.1942
     10 C13       -15.0130    0.9920   21.9300 C.3       1 74F        -0.0055
     11 C14       -12.9350    2.2010   21.4650 C.3       1 74F        -0.0055
     12 C15       -14.8020    0.2770   20.6060 C.3       1 74F         0.0878
     13 C16       -12.8760    1.4870   20.1330 C.3       1 74F         0.0878
     14 C19       -14.5090    3.1890   23.0970 C.3       1 74F         0.0607
     15 N23       -12.5940    4.2690   24.2130 N.2       1 74F        -0.2842
     16 N25        -9.0850    9.1930   25.5180 N.2       1 74F        -0.0588
     17 N26        -9.7050    8.1600   24.9250 N.pl3     1 74F        -0.0952
     18 N29        -7.4200    7.2110   26.4300 N.pl3     1 74F        -0.3149
     19 C4        -10.8460    7.8820   22.6940 C.ar      1 74F        -0.0277
     20 C5         -9.4690    4.3170   26.2030 C.ar      1 74F         0.0242
     21 C6         -9.7950    9.8710   23.5810 C.ar      1 74F         0.0805
     22 C17       -15.7990    3.0280   23.8800 C.3       1 74F        -0.0032
     23 C18       -13.2970    0.8470   25.0540 C.3       1 74F         0.0646
     24 N20        -8.4440    5.1150   26.5200 N.ar      1 74F        -0.2669
     25 N21        -9.1300   10.2440   24.7130 N.2       1 74F        -0.1963
     26 N22       -10.6520    6.0450   25.1140 N.ar      1 74F        -0.2528
     27 N24       -11.7770    2.6220   25.5390 N.2       1 74F        -0.1898
     28 N27       -12.8620    2.2180   24.8640 N.pl3     1 74F        -0.1725
     29 N28       -14.3270    2.2970   21.9230 N.4       1 74F         0.2592
     30 O30       -13.4000    0.1840   20.3470 O.3       1 74F        -0.3693
     31 H1        -11.0591   10.5069   20.5561 H         1 74F         0.0545
     32 H2        -11.6929    8.1774   20.7703 H         1 74F         0.0582
     33 H3         -9.8083   11.6583   22.3638 H         1 74F         0.0600
     34 H4        -14.6079    0.3738   22.7447 H         1 74F         0.0838
     35 H5        -16.0899    1.1493   22.0897 H         1 74F         0.0838
     36 H6        -12.5174    3.2126   21.3547 H         1 74F         0.0838
     37 H7        -12.3460    1.6399   22.2054 H         1 74F         0.0838
     38 H8        -15.2895    0.8435   19.7989 H         1 74F         0.0613
     39 H9        -15.2352   -0.7327   20.6587 H         1 74F         0.0613
     40 H10       -11.8355    1.4245   19.7817 H         1 74F         0.0613
     41 H11       -13.4830    2.0225   19.3882 H         1 74F         0.0613
     42 H12       -14.5569    4.1996   22.6653 H         1 74F         0.1119
     43 H13        -6.6156    6.8263   26.9456 H         1 74F         0.1784
     44 H14        -7.4233    8.2008   26.1449 H         1 74F         0.1784
     45 H15       -11.1238    6.8374   22.7757 H         1 74F         0.0577
     46 H16        -9.4353    3.2765   26.5052 H         1 74F         0.0810
     47 H17       -15.8108    3.7408   24.7177 H         1 74F         0.0315
     48 H18       -15.8651    2.0019   24.2708 H         1 74F         0.0315
     49 H19       -16.6561    3.2247   23.2191 H         1 74F         0.0315
     50 H20       -12.6536    0.3583   25.8004 H         1 74F         0.0601
     51 H21       -13.2281    0.3048   24.0994 H         1 74F         0.0601
     52 H22       -14.3390    0.8384   25.4063 H         1 74F         0.0601
     53 H23       -14.7938    2.7982   21.1834 H         1 74F         0.2060
@<TRIPOS>BOND
     1    2    1 ar 
     2    3    1 ar 
     3   19    2 ar 
     4   21    3 ar 
     5   17    4 1  
     6    4   19 ar 
     7    4   21 ar 
     8    8    5 1  
     9    5   20 ar 
    10    5   26 ar 
    11    6    7 ar 
    12    6   17 1  
    13   26    6 ar 
    14    7   18 1  
    15    7   24 ar 
    16   15    8 1  
    17    8   27 2  
    18   14    9 1  
    19    9   15 2  
    20    9   28 1  
    21   10   12 1  
    22   29   10 1  
    23   11   13 1  
    24   29   11 1  
    25   12   30 1  
    26   13   30 1  
    27   14   22 1  
    28   14   29 1  
    29   17   16 1  
    30   16   25 2  
    31   20   24 ar 
    32   21   25 1  
    33   28   23 1  
    34   27   28 1  
    35    1   31 1  
    36    2   32 1  
    37    3   33 1  
    38   10   34 1  
    39   10   35 1  
    40   11   36 1  
    41   11   37 1  
    42   12   38 1  
    43   12   39 1  
    44   13   40 1  
    45   13   41 1  
    46   14   42 1  
    47   18   43 1  
    48   18   44 1  
    49   19   45 1  
    50   20   46 1  
    51   22   47 1  
    52   22   48 1  
    53   22   49 1  
    54   23   50 1  
    55   23   51 1  
    56   23   52 1  
    57   29   53 1  
@<TRIPOS>SUBSTRUCTURE
     1 74F         1

