### 
### Created by X-TOOL on Mon Sep 10 21:13:34 2018
### 

@<TRIPOS>MOLECULE
5t28_ligand
   50    55     1     0     0
SMALL
GAST_HUCK


@<TRIPOS>ATOM
      1 C1         14.0970   -2.0150   18.9580 C.ar      1 74Q        -0.0389
      2 C2         13.1480   -1.8800   19.9440 C.ar      1 74Q        -0.0381
      3 C3         15.3110   -2.5930   19.2620 C.ar      1 74Q        -0.0381
      4 C7         15.5750   -3.0320   20.5420 C.ar      1 74Q        -0.0483
      5 C8         10.3790  -11.0440   22.7630 C.ar      1 74Q        -0.0495
      6 C9         11.0670   -8.2780   22.6950 C.ar      1 74Q        -0.0277
      7 C10         9.7560   -4.4130   26.0110 C.ar      1 74Q         0.0265
      8 C11        14.6420   -2.9160   21.5570 C.ar      1 74Q        -0.0619
      9 C12         9.9570  -10.1630   23.7440 C.ar      1 74Q         0.0805
     10 C13        10.2970   -8.8230   23.7000 C.ar      1 74Q         0.1340
     11 C14        10.7940   -4.9270   25.2690 C.ar      1 74Q         0.0902
     12 C15         9.7430   -6.9430   25.2570 C.ar      1 74Q         0.2388
     13 C16         8.6920   -6.4130   25.9950 C.ar      1 74Q         0.1804
     14 C19        15.9070   -4.4840   23.1840 C.3       1 74Q        -0.0881
     15 C20        16.2210   -3.0880   23.6120 C.3       1 74Q        -0.0881
     16 C21        14.9000   -3.3870   22.9480 C.3       1 74Q         0.0100
     17 C22        13.5450   -1.0280   24.7090 C.3       1 74Q         0.0707
     18 N23         8.7000   -5.1370   26.3890 N.ar      1 74Q        -0.2658
     19 N25        10.8050   -6.2080   24.8820 N.ar      1 74Q        -0.2503
     20 N26        12.8780   -4.4900   24.0050 N.2       1 74Q        -0.2478
     21 N29         9.7110   -8.2880   24.8190 N.pl3     1 74Q        -0.0949
     22 C4         11.1550  -10.5070   21.7580 C.ar      1 74Q        -0.0700
     23 C5         11.4870   -9.1720   21.7310 C.ar      1 74Q        -0.0685
     24 C6         13.4320   -2.3320   21.2160 C.ar      1 74Q        -0.0483
     25 C17        11.8830   -4.0700   24.8550 C.2       1 74Q         0.1638
     26 C18        13.6350   -3.4240   23.8480 C.2       1 74Q         0.1194
     27 N24         9.2000  -10.4090   24.8550 N.2       1 74Q        -0.1963
     28 N27        11.9880   -2.7870   25.2270 N.2       1 74Q        -0.1333
     29 N28         9.0690   -9.2560   25.4950 N.2       1 74Q        -0.0588
     30 N30        13.0990   -2.4030   24.5840 N.pl3     1 74Q        -0.1681
     31 N31         7.5790   -7.1590   26.3700 N.pl3     1 74Q        -0.3144
     32 H1         13.8923   -1.6701   17.9509 H         1 74Q         0.0813
     33 H2         12.1892   -1.4243   19.7246 H         1 74Q         0.0684
     34 H3         16.0633   -2.7031   18.4893 H         1 74Q         0.0684
     35 H4         16.5382   -3.4795   20.7587 H         1 74Q         0.0802
     36 H5         10.1146  -12.0951   22.7839 H         1 74Q         0.0600
     37 H6         11.3237   -7.2253   22.6641 H         1 74Q         0.0577
     38 H7          9.7975   -3.3698   26.3028 H         1 74Q         0.0818
     39 H8         15.7083   -5.2584   23.9396 H         1 74Q         0.0115
     40 H9         16.4418   -4.9307   22.3329 H         1 74Q         0.0115
     41 H10        16.9865   -2.5081   23.0755 H         1 74Q         0.0115
     42 H11        16.2530   -2.8358   24.6822 H         1 74Q         0.0115
     43 H12        12.8719   -0.4846   25.3884 H         1 74Q         0.0622
     44 H13        13.5335   -0.5474   23.7196 H         1 74Q         0.0622
     45 H14        14.5676   -1.0096   25.1138 H         1 74Q         0.0622
     46 H15        11.5138  -11.1550   20.9665 H         1 74Q         0.0545
     47 H16        12.1045   -8.8070   20.9183 H         1 74Q         0.0582
     48 H17        12.6743   -2.2256   21.9839 H         1 74Q         0.0802
     49 H18         6.8253   -6.7198   26.9176 H         1 74Q         0.1787
     50 H19         7.5088   -8.1505   26.1000 H         1 74Q         0.1787
@<TRIPOS>BOND
     1    2    1 ar 
     2    3    1 ar 
     3   24    2 ar 
     4    4    3 ar 
     5    8    4 ar 
     6    9    5 ar 
     7    5   22 ar 
     8   10    6 ar 
     9    6   23 ar 
    10   11    7 ar 
    11    7   18 ar 
    12   16    8 1  
    13    8   24 ar 
    14   10    9 ar 
    15    9   27 1  
    16   21   10 1  
    17   11   19 ar 
    18   25   11 1  
    19   12   13 ar 
    20   19   12 ar 
    21   12   21 1  
    22   18   13 ar 
    23   13   31 1  
    24   15   14 1  
    25   16   14 1  
    26   16   15 1  
    27   26   16 1  
    28   30   17 1  
    29   20   25 1  
    30   26   20 2  
    31   21   29 1  
    32   23   22 ar 
    33   25   28 2  
    34   26   30 1  
    35   27   29 2  
    36   28   30 1  
    37    1   32 1  
    38    2   33 1  
    39    3   34 1  
    40    4   35 1  
    41    5   36 1  
    42    6   37 1  
    43    7   38 1  
    44   14   39 1  
    45   14   40 1  
    46   15   41 1  
    47   15   42 1  
    48   17   43 1  
    49   17   44 1  
    50   17   45 1  
    51   22   46 1  
    52   23   47 1  
    53   24   48 1  
    54   31   49 1  
    55   31   50 1  
@<TRIPOS>SUBSTRUCTURE
     1 74Q         1

