### 
### Created by X-TOOL on Mon Sep 10 21:13:34 2018
### 

@<TRIPOS>MOLECULE
5t2b_ligand
   45    49     1     0     0
SMALL
GAST_HUCK


@<TRIPOS>ATOM
      1 C1         -2.1900  -51.4170   18.6880 C.ar      1 74O        -0.0389
      2 C2         -2.3130  -50.3900   19.5980 C.ar      1 74O        -0.0381
      3 C3         -2.5570  -52.6920   19.0670 C.ar      1 74O        -0.0381
      4 C7         -4.3380  -47.0400   25.8200 C.ar      1 74O         0.0289
      5 C8         -8.8120  -48.0150   23.8980 C.2       1 74O         0.0087
      6 C9         -8.2870  -47.0350   24.7130 C.2       1 74O         0.0223
      7 C10        -3.1970  -51.9080   21.2690 C.ar      1 74O        -0.0619
      8 C11        -4.9030  -48.0810   25.1240 C.ar      1 74O         0.0892
      9 C12        -6.9080  -47.0190   25.1560 C.ar      1 74O         0.0830
     10 C13        -6.3410  -45.9590   25.8390 C.ar      1 74O         0.1417
     11 C14        -4.1080  -49.1960   24.6820 C.2       1 74O         0.1645
     12 C15        -3.6280  -50.9260   23.5790 C.2       1 74O         0.1195
     13 C16        -4.9100  -53.0560   22.7990 C.3       1 74O        -0.0881
     14 C19        -1.1700  -50.9950   24.2420 C.3       1 74O         0.0707
     15 N23        -4.6470  -50.1410   23.8530 N.2       1 74O        -0.2476
     16 N25       -10.1190  -47.6730   23.6910 N.2       1 74O        -0.2144
     17 N26        -2.5290  -50.4780   24.2530 N.pl3     1 74O        -0.1680
     18 C4         -2.8080  -50.6400   20.8610 C.ar      1 74O        -0.0483
     19 C5         -3.0500  -52.9260   20.3370 C.ar      1 74O        -0.0483
     20 C6         -9.3650  -46.1400   24.9140 C.2       1 74O         0.0651
     21 C17        -3.5780  -53.4590   23.3570 C.3       1 74O        -0.0881
     22 C18        -3.7240  -52.1410   22.6460 C.3       1 74O         0.0100
     23 N20        -5.0440  -45.9720   26.1930 N.ar      1 74O        -0.2656
     24 N21       -10.4810  -46.5290   24.2870 N.pl3     1 74O        -0.2147
     25 N22        -6.1980  -48.0870   24.7810 N.ar      1 74O        -0.2851
     26 N24        -2.8070  -49.3710   24.9560 N.2       1 74O        -0.1330
     27 N27        -7.1030  -44.8490   26.2090 N.pl3     1 74O        -0.3154
     28 H1         -1.8110  -51.2265   17.6904 H         1 74O         0.0813
     29 H2         -2.0203  -49.3837   19.3210 H         1 74O         0.0684
     30 H3         -2.4583  -53.5131   18.3662 H         1 74O         0.0684
     31 H4         -3.2853  -47.0883   26.0739 H         1 74O         0.0838
     32 H5         -8.2913  -48.8847   23.5001 H         1 74O         0.0681
     33 H6         -5.7308  -52.7830   23.4785 H         1 74O         0.0115
     34 H7         -5.3188  -53.5775   21.9210 H         1 74O         0.0115
     35 H8         -0.5404  -50.3852   24.9066 H         1 74O         0.0622
     36 H9         -0.7701  -50.9534   23.2181 H         1 74O         0.0622
     37 H10        -1.1714  -52.0375   24.5930 H         1 74O         0.0622
     38 H11        -2.8963  -49.8162   21.5600 H         1 74O         0.0802
     39 H12        -3.3305  -53.9359   20.6137 H         1 74O         0.0802
     40 H13        -9.2938  -45.2337   25.5136 H         1 74O         0.1060
     41 H14        -3.0103  -54.2763   22.8882 H         1 74O         0.0115
     42 H15        -3.4224  -53.4818   24.4457 H         1 74O         0.0115
     43 H16       -11.3984  -46.0612   24.2672 H         1 74O         0.2608
     44 H17        -6.6631  -44.0687   26.7175 H         1 74O         0.1801
     45 H18        -8.1050  -44.8105   25.9734 H         1 74O         0.1801
@<TRIPOS>BOND
     1    2    1 ar 
     2    3    1 ar 
     3   18    2 ar 
     4   19    3 ar 
     5    8    4 ar 
     6    4   23 ar 
     7    6    5 1  
     8    5   16 2  
     9    9    6 1  
    10    6   20 2  
    11    7   18 ar 
    12    7   19 ar 
    13   22    7 1  
    14   11    8 1  
    15    8   25 ar 
    16    9   10 ar 
    17   25    9 ar 
    18   23   10 ar 
    19   10   27 1  
    20   15   11 1  
    21   11   26 2  
    22   12   15 2  
    23   12   17 1  
    24   22   12 1  
    25   13   21 1  
    26   13   22 1  
    27   17   14 1  
    28   16   24 1  
    29   17   26 1  
    30   20   24 1  
    31   21   22 1  
    32    1   28 1  
    33    2   29 1  
    34    3   30 1  
    35    4   31 1  
    36    5   32 1  
    37   13   33 1  
    38   13   34 1  
    39   14   35 1  
    40   14   36 1  
    41   14   37 1  
    42   18   38 1  
    43   19   39 1  
    44   20   40 1  
    45   21   41 1  
    46   21   42 1  
    47   24   43 1  
    48   27   44 1  
    49   27   45 1  
@<TRIPOS>SUBSTRUCTURE
     1 74O         1

