### 
### Created by X-TOOL on Mon Sep 10 21:13:34 2018
### 

@<TRIPOS>MOLECULE
5t2d_ligand
   56    60     1     0     0
SMALL
GAST_HUCK


@<TRIPOS>ATOM
      1 C1         13.6190   -1.0650   24.7360 C.3       1 74L         0.0708
      2 C3         13.5620   -3.4990   23.9380 C.2       1 74L         0.1195
      3 N6         11.9140   -2.8680   25.2790 N.2       1 74L        -0.1331
      4 C7         10.5970   -5.0120   25.3550 C.ar      1 74L         0.0879
      5 C8          9.5200   -4.5380   26.1120 C.ar      1 74L         0.0278
      6 C10         8.4650   -6.5940   25.9510 C.ar      1 74L         0.1401
      7 C11         9.5420   -7.0900   25.1640 C.ar      1 74L         0.0776
      8 C13         9.6060   -8.4630   24.5740 C.2       1 74L         0.0145
      9 C14         9.0490   -9.6570   25.0800 C.2       1 74L         0.0014
     10 C22        13.1580  -11.5980   22.8600 C.3       1 74L         0.0206
     11 C27        15.6950   -4.7980   23.2380 C.3       1 74L        -0.0881
     12 C30        15.1420   -2.8450   19.2770 C.ar      1 74L        -0.0381
     13 C31        13.8970   -2.3020   18.9690 C.ar      1 74L        -0.0389
     14 C32        12.9460   -2.1630   19.9660 C.ar      1 74L        -0.0381
     15 C33        13.2380   -2.6060   21.2580 C.ar      1 74L        -0.0483
     16 N2         13.0870   -2.4310   24.6370 N.pl3     1 74L        -0.1680
     17 N4         12.7300   -4.4900   24.1290 N.2       1 74L        -0.2477
     18 C5         11.7360   -4.1320   24.9590 C.2       1 74L         0.1642
     19 N9          8.5050   -5.3460   26.4030 N.ar      1 74L        -0.2668
     20 N12        10.5530   -6.2650   24.8880 N.ar      1 74L        -0.2873
     21 N15         9.3240  -10.6350   24.2600 N.2       1 74L        -0.1813
     22 N16        10.0950  -10.1270   23.2070 N.am      1 74L        -0.0370
     23 C17        10.2430   -8.7990   23.4060 C.2       1 74L         0.1041
     24 S18        10.6670  -11.0280   21.9310 S.o2      1 74L         0.1904
     25 O19        10.1430  -10.4530   20.7370 O.2       1 74L        -0.1164
     26 O20        10.3640  -12.3810   22.2940 O.2       1 74L        -0.1164
     27 N21        12.3260  -10.9160   21.8620 N.am      1 74L        -0.2125
     28 C23        12.9850  -10.1800   20.7770 C.3       1 74L         0.0206
     29 N24         7.3530   -7.3500   26.2770 N.pl3     1 74L        -0.3158
     30 C25        14.7670   -3.5920   23.0130 C.3       1 74L         0.0100
     31 C26        16.1810   -3.3980   23.5890 C.3       1 74L        -0.0881
     32 C28        14.4870   -3.1460   21.5880 C.ar      1 74L        -0.0619
     33 C29        15.4380   -3.2610   20.5750 C.ar      1 74L        -0.0483
     34 H1         12.9717   -0.4662   25.3937 H         1 74L         0.0622
     35 H2         13.6472   -0.6090   23.7354 H         1 74L         0.0622
     36 H3         14.6363   -1.0970   25.1531 H         1 74L         0.0622
     37 H4          9.5131   -3.5118   26.4613 H         1 74L         0.0830
     38 H5          8.4815   -9.7478   26.0050 H         1 74L         0.0599
     39 H6         14.2196  -11.4049   22.6460 H         1 74L         0.0443
     40 H7         12.9667  -12.6804   22.8190 H         1 74L         0.0443
     41 H8         12.9115  -11.2198   23.8631 H         1 74L         0.0443
     42 H9         16.1251   -5.3282   22.3755 H         1 74L         0.0115
     43 H10        15.4738   -5.5191   24.0387 H         1 74L         0.0115
     44 H11        15.8898   -2.9455   18.4987 H         1 74L         0.0684
     45 H12        13.6738   -1.9901   17.9551 H         1 74L         0.0813
     46 H13        11.9840   -1.7146   19.7458 H         1 74L         0.0684
     47 H14        12.4770   -2.5297   22.0262 H         1 74L         0.0802
     48 H15        10.7769   -8.1121   22.7510 H         1 74L         0.1033
     49 H16        14.0756  -10.2250   20.9131 H         1 74L         0.0443
     50 H17        12.6565   -9.1304   20.7935 H         1 74L         0.0443
     51 H18        12.7170  -10.6329   19.8111 H         1 74L         0.0443
     52 H19         6.6018   -6.9403   26.8504 H         1 74L         0.1799
     53 H20         7.2764   -8.3225   25.9463 H         1 74L         0.1799
     54 H21        16.9612   -2.9187   22.9795 H         1 74L         0.0115
     55 H22        16.3099   -3.1095   24.6426 H         1 74L         0.0115
     56 H23        16.4141   -3.6766   20.7977 H         1 74L         0.0802
@<TRIPOS>BOND
     1   16    1 1  
     2    2   16 1  
     3    2   17 2  
     4   30    2 1  
     5   16    3 1  
     6   18    3 2  
     7    4    5 ar 
     8   18    4 1  
     9    4   20 ar 
    10    5   19 ar 
    11    7    6 ar 
    12   19    6 ar 
    13    6   29 1  
    14    7    8 1  
    15   20    7 ar 
    16    8    9 1  
    17    8   23 2  
    18    9   21 2  
    19   27   10 1  
    20   30   11 1  
    21   31   11 1  
    22   13   12 ar 
    23   12   33 ar 
    24   14   13 ar 
    25   15   14 ar 
    26   32   15 ar 
    27   17   18 1  
    28   22   21 1  
    29   23   22 1  
    30   22   24 am 
    31   24   25 2  
    32   24   26 2  
    33   24   27 am 
    34   27   28 1  
    35   30   31 1  
    36   30   32 1  
    37   32   33 ar 
    38    1   34 1  
    39    1   35 1  
    40    1   36 1  
    41    5   37 1  
    42    9   38 1  
    43   10   39 1  
    44   10   40 1  
    45   10   41 1  
    46   11   42 1  
    47   11   43 1  
    48   12   44 1  
    49   13   45 1  
    50   14   46 1  
    51   15   47 1  
    52   23   48 1  
    53   28   49 1  
    54   28   50 1  
    55   28   51 1  
    56   29   52 1  
    57   29   53 1  
    58   31   54 1  
    59   31   55 1  
    60   33   56 1  
@<TRIPOS>SUBSTRUCTURE
     1 74L         1

