### 
### Created by X-TOOL on Mon Sep 10 21:13:34 2018
### 

@<TRIPOS>MOLECULE
5t2g_ligand
   49    53     1     0     0
SMALL
GAST_HUCK


@<TRIPOS>ATOM
      1 C1         15.9420   -3.3910   23.4560 C.3       1 74K        -0.0881
      2 C2         14.5620   -3.5890   22.8060 C.3       1 74K         0.0100
      3 C3         15.4820   -4.7950   23.0600 C.3       1 74K        -0.0881
      4 N6          8.3890   -5.2930   26.2870 N.ar      1 74K        -0.2664
      5 C7          8.3920   -6.5710   25.9310 C.ar      1 74K         0.1406
      6 C8          9.4780   -7.1050   25.1810 C.ar      1 74K         0.0793
      7 C11         9.5380   -8.4930   24.6210 C.2       1 74K         0.0185
      8 C12        11.5480   -4.0810   24.7410 C.2       1 74K         0.1643
      9 C14        13.3550   -3.4760   23.7110 C.2       1 74K         0.1195
     10 C19        13.0520   -2.6690   21.0160 C.ar      1 74K        -0.0483
     11 C20        12.7960   -2.2440   19.7160 C.ar      1 74K        -0.0381
     12 C21        13.7920   -2.3240   18.7450 C.ar      1 74K        -0.0389
     13 C22        15.0610   -2.7940   19.0870 C.ar      1 74K        -0.0381
     14 C24        10.2350   -8.8680   23.4980 C.2       1 74K         0.0978
     15 N25        10.0310  -10.2020   23.2680 N.am      1 74K        -0.0915
     16 N26         9.1540  -10.6450   24.2700 N.2       1 74K        -0.1856
     17 C27         8.8600   -9.6480   25.0640 C.2       1 74K         0.0053
     18 N29        10.2350  -12.2920   22.2060 N.am      1 74K        -0.2675
     19 C4         10.4240   -4.9640   25.1730 C.ar      1 74K         0.0883
     20 C5          9.3670   -4.4700   25.9380 C.ar      1 74K         0.0282
     21 N9         10.4380   -6.2560   24.8140 N.ar      1 74K        -0.2867
     22 N10         7.3170   -7.3170   26.3420 N.pl3     1 74K        -0.3156
     23 N13        12.5230   -4.4560   23.9040 N.2       1 74K        -0.2477
     24 N15        12.9330   -2.4130   24.4410 N.pl3     1 74K        -0.1680
     25 N16        11.7600   -2.8300   25.0880 N.2       1 74K        -0.1331
     26 C17        13.5180   -1.0710   24.5570 C.3       1 74K         0.0708
     27 C18        14.3160   -3.1500   21.3720 C.ar      1 74K        -0.0619
     28 C23        15.3220   -3.2080   20.3920 C.ar      1 74K        -0.0483
     29 C28        10.5590  -10.9850   22.2690 C.2       1 74K         0.3600
     30 O30        11.3470  -10.5790   21.4300 O.2       1 74K        -0.3605
     31 H1         16.0146   -3.1158   24.5185 H         1 74K         0.0115
     32 H2         16.7487   -2.8981   22.8936 H         1 74K         0.0115
     33 H3         15.2241   -5.5286   23.8380 H         1 74K         0.0115
     34 H4         15.9582   -5.3108   22.2131 H         1 74K         0.0115
     35 H5         12.2644   -2.6269   21.7597 H         1 74K         0.0802
     36 H6         11.8197   -1.8499   19.4582 H         1 74K         0.0684
     37 H7         13.5817   -2.0217   17.7255 H         1 74K         0.0813
     38 H8         15.8433   -2.8370   18.3379 H         1 74K         0.0684
     39 H9         10.8514   -8.2092   22.8881 H         1 74K         0.1050
     40 H10         8.1986   -9.7010   25.9276 H         1 74K         0.0628
     41 H11        10.6156  -12.8671   21.4819 H         1 74K         0.1840
     42 H12         9.6141  -12.6864   22.8834 H         1 74K         0.1840
     43 H13         9.3462   -3.4297   26.2419 H         1 74K         0.0832
     44 H14         7.2599   -8.3160   26.0979 H         1 74K         0.1800
     45 H15         6.5668   -6.8782   26.8948 H         1 74K         0.1800
     46 H16        12.9075   -0.4628   25.2407 H         1 74K         0.0622
     47 H17        13.5429   -0.5949   23.5657 H         1 74K         0.0622
     48 H18        14.5417   -1.1501   24.9516 H         1 74K         0.0622
     49 H19        16.3073   -3.5771   20.6529 H         1 74K         0.0802
@<TRIPOS>BOND
     1    2    1 1  
     2    3    1 1  
     3    2    3 1  
     4    9    2 1  
     5    2   27 1  
     6    4    5 ar 
     7   20    4 ar 
     8    5    6 ar 
     9    5   22 1  
    10    6    7 1  
    11    6   21 ar 
    12    7   14 2  
    13    7   17 1  
    14   19    8 1  
    15    8   23 1  
    16    8   25 2  
    17   23    9 2  
    18    9   24 1  
    19   10   11 ar 
    20   27   10 ar 
    21   11   12 ar 
    22   12   13 ar 
    23   13   28 ar 
    24   14   15 1  
    25   16   15 1  
    26   15   29 am 
    27   17   16 2  
    28   29   18 am 
    29   19   20 ar 
    30   19   21 ar 
    31   24   25 1  
    32   24   26 1  
    33   27   28 ar 
    34   29   30 2  
    35    1   31 1  
    36    1   32 1  
    37    3   33 1  
    38    3   34 1  
    39   10   35 1  
    40   11   36 1  
    41   12   37 1  
    42   13   38 1  
    43   14   39 1  
    44   17   40 1  
    45   18   41 1  
    46   18   42 1  
    47   20   43 1  
    48   22   44 1  
    49   22   45 1  
    50   26   46 1  
    51   26   47 1  
    52   26   48 1  
    53   28   49 1  
@<TRIPOS>SUBSTRUCTURE
     1 74K         1

