### 
### Created by X-TOOL on Mon Sep 10 21:13:34 2018
### 

@<TRIPOS>MOLECULE
5t2i_ligand
   49    53     1     0     0
SMALL
GAST_HUCK


@<TRIPOS>ATOM
      1 C1         13.8640   -2.2530   18.9800 C.ar      1 74J        -0.0389
      2 C2         12.9220   -2.1330   19.9730 C.ar      1 74J        -0.0381
      3 C3         15.0970   -2.7920   19.2840 C.ar      1 74J        -0.0381
      4 C7          9.6020   -4.2850   26.1050 C.ar      1 74J         0.0282
      5 C8         10.5380   -8.6640   24.1040 C.2       1 74J         0.0926
      6 C9         10.1750   -9.9610   23.8400 C.2       1 74J         0.0678
      7 C10        14.4560   -3.0960   21.5980 C.ar      1 74J        -0.0619
      8 C11        10.6520   -4.8340   25.4070 C.ar      1 74J         0.0924
      9 C12         9.6140   -6.8400   25.4370 C.ar      1 74J         0.2398
     10 C13         8.5510   -6.2950   26.1420 C.ar      1 74J         0.1827
     11 C14        11.7670   -4.0200   24.9830 C.2       1 74J         0.1643
     12 C15        13.5050   -3.4730   23.9250 C.2       1 74J         0.1195
     13 C16        10.8330  -10.8510   22.9230 C.2       1 74J         0.1826
     14 C19        14.7460   -3.5150   22.9930 C.3       1 74J         0.0100
     15 C20        13.4710   -1.0320   24.6720 C.3       1 74J         0.0707
     16 N23        10.6670   -6.1180   25.0490 N.ar      1 74J        -0.2471
     17 N25        11.9020   -2.7320   25.3150 N.2       1 74J        -0.1332
     18 N26         9.6640   -8.1840   25.0390 N.pl3     1 74J        -0.1360
     19 N29        10.4710  -12.1590   23.1400 N.am      1 74J        -0.3046
     20 C4         13.2240   -2.5570   21.2520 C.ar      1 74J        -0.0483
     21 C5         15.3840   -3.2020   20.5720 C.ar      1 74J        -0.0483
     22 C6          9.0550  -10.1930   24.6670 C.2       1 74J         0.0167
     23 C17        15.7800   -4.5930   23.2520 C.3       1 74J        -0.0880
     24 C18        16.0760   -3.1680   23.6120 C.3       1 74J        -0.0880
     25 N21         8.5470   -4.9990   26.4790 N.ar      1 74J        -0.2640
     26 N22         8.7600   -9.1160   25.3980 N.2       1 74J        -0.1969
     27 N24        12.7310   -4.5110   24.1410 N.2       1 74J        -0.2477
     28 N27        13.0120   -2.4110   24.6390 N.pl3     1 74J        -0.1681
     29 N28         7.4430   -7.0530   26.5270 N.pl3     1 74J        -0.3137
     30 O30        11.6170  -10.4530   22.0690 O.2       1 74J        -0.3992
     31 H1         13.6411   -1.9281   17.9701 H         1 74J         0.0814
     32 H2         11.9489   -1.7086   19.7540 H         1 74J         0.0684
     33 H3         15.8459   -2.8946   18.5070 H         1 74J         0.0684
     34 H4          9.6369   -3.2317   26.3589 H         1 74J         0.0831
     35 H5         11.3665   -8.1196   23.6533 H         1 74J         0.1105
     36 H6         12.8375   -0.4511   25.3585 H         1 74J         0.0622
     37 H7         13.4088   -0.6006   23.6621 H         1 74J         0.0622
     38 H8         14.5139   -1.0009   25.0205 H         1 74J         0.0622
     39 H9         10.8560  -12.8854   22.5706 H         1 74J         0.1800
     40 H10         9.8227  -12.3843   23.8673 H         1 74J         0.1800
     41 H11        12.4651   -2.4649   22.0205 H         1 74J         0.0802
     42 H12        16.3616   -3.6181   20.7869 H         1 74J         0.0802
     43 H13         8.5024  -11.1306   24.7039 H         1 74J         0.0703
     44 H14        16.3032   -5.0673   22.4086 H         1 74J         0.0115
     45 H15        15.6122   -5.3370   24.0446 H         1 74J         0.0115
     46 H16        16.1275   -2.8688   24.6693 H         1 74J         0.0115
     47 H17        16.8185   -2.5990   23.0333 H         1 74J         0.0115
     48 H18         6.6734   -6.6113   27.0499 H         1 74J         0.1790
     49 H19         7.3955   -8.0538   26.2881 H         1 74J         0.1790
@<TRIPOS>BOND
     1    2    1 ar 
     2    3    1 ar 
     3   20    2 ar 
     4   21    3 ar 
     5    8    4 ar 
     6    4   25 ar 
     7    5    6 2  
     8   18    5 1  
     9    6   13 1  
    10    6   22 1  
    11   14    7 1  
    12    7   20 ar 
    13    7   21 ar 
    14   11    8 1  
    15    8   16 ar 
    16    9   10 ar 
    17   16    9 ar 
    18    9   18 1  
    19   25   10 ar 
    20   10   29 1  
    21   11   17 2  
    22   27   11 1  
    23   12   14 1  
    24   12   27 2  
    25   12   28 1  
    26   13   19 am 
    27   13   30 2  
    28   14   23 1  
    29   14   24 1  
    30   28   15 1  
    31   17   28 1  
    32   18   26 1  
    33   22   26 2  
    34   23   24 1  
    35    1   31 1  
    36    2   32 1  
    37    3   33 1  
    38    4   34 1  
    39    5   35 1  
    40   15   36 1  
    41   15   37 1  
    42   15   38 1  
    43   19   39 1  
    44   19   40 1  
    45   20   41 1  
    46   21   42 1  
    47   22   43 1  
    48   23   44 1  
    49   23   45 1  
    50   24   46 1  
    51   24   47 1  
    52   29   48 1  
    53   29   49 1  
@<TRIPOS>SUBSTRUCTURE
     1 74J         1

