### 
### Created by X-TOOL on Mon Sep 10 21:13:34 2018
### 

@<TRIPOS>MOLECULE
5t2l_ligand
   49    53     1     0     0
SMALL
GAST_HUCK


@<TRIPOS>ATOM
      1 C1         45.7860   -2.0630   18.7930 C.ar      1 74H        -0.0389
      2 C2         44.7700   -2.0680   19.7220 C.ar      1 74H        -0.0381
      3 C3         47.0690   -2.3920   19.1870 C.ar      1 74H        -0.0381
      4 C7         41.4040   -4.4100   25.8620 C.ar      1 74H         0.0284
      5 C8         42.5270   -8.4020   23.3370 C.2       1 74H         0.0718
      6 C9         46.3400   -2.7670   21.4570 C.ar      1 74H        -0.0619
      7 C10        42.4860   -4.8070   25.1040 C.ar      1 74H         0.0925
      8 C11        41.4550  -10.2330   23.9590 C.2       1 74H         0.1089
      9 C12        41.5780   -6.8940   24.9840 C.ar      1 74H         0.2398
     10 C13        40.4940   -6.5040   25.7560 C.ar      1 74H         0.1829
     11 C14        43.5700   -3.9080   24.7410 C.2       1 74H         0.1643
     12 C15        45.3270   -3.2160   23.7630 C.2       1 74H         0.1195
     13 C16        40.9680  -11.5930   24.0330 C.2       1 74H         0.2077
     14 C19        46.5950   -3.1600   22.8740 C.3       1 74H         0.0100
     15 C20        45.1770   -0.8250   24.6450 C.3       1 74H         0.0707
     16 N23        41.0520   -9.2640   24.7960 N.2       1 74H        -0.1768
     17 N25        43.6410   -2.6230   25.1160 N.2       1 74H        -0.1332
     18 N26        41.7080   -8.1600   24.4070 N.pl3     1 74H        -0.1379
     19 N29        40.0570  -11.8330   25.0270 N.am      1 74H        -0.3000
     20 C4         45.0680   -2.4130   21.0270 C.ar      1 74H        -0.0483
     21 C5         47.3360   -2.7390   20.4950 C.ar      1 74H        -0.0483
     22 C6         42.3910   -9.7300   23.0270 C.2       1 74H        -0.0268
     23 C17        47.6200   -4.2370   23.1180 C.3       1 74H        -0.0880
     24 C18        47.9000   -2.8360   23.5570 C.3       1 74H        -0.0880
     25 N21        40.4120   -5.2440   26.2070 N.ar      1 74H        -0.2638
     26 N22        42.5760   -6.0650   24.6520 N.ar      1 74H        -0.2469
     27 N24        44.6010   -4.3020   23.9190 N.2       1 74H        -0.2477
     28 N27        44.7580   -2.2080   24.4960 N.pl3     1 74H        -0.1681
     29 N28        39.4530   -7.3750   26.0790 N.pl3     1 74H        -0.3137
     30 O30        41.3290  -12.4520   23.2490 O.2       1 74H        -0.3854
     31 H1         45.5812   -1.8031   17.7607 H         1 74H         0.0814
     32 H2         43.7575   -1.8069   19.4361 H         1 74H         0.0684
     33 H3         47.8737   -2.3772   18.4608 H         1 74H         0.0684
     34 H4         41.3533   -3.3791   26.1932 H         1 74H         0.0831
     35 H5         43.1638   -7.6786   22.8299 H         1 74H         0.1010
     36 H6         44.4787   -0.3004   25.3137 H         1 74H         0.0622
     37 H7         45.1800   -0.3347   23.6604 H         1 74H         0.0622
     38 H8         46.1894   -0.7927   25.0739 H         1 74H         0.0622
     39 H9         39.6733  -12.7491   25.1430 H         1 74H         0.1809
     40 H10        39.7755  -11.0921   25.6368 H         1 74H         0.1809
     41 H11        44.2646   -2.4069   21.7547 H         1 74H         0.0802
     42 H12        48.3506   -2.9962   20.7770 H         1 74H         0.0802
     43 H13        42.8954  -10.2794   22.2335 H         1 74H         0.0384
     44 H14        48.1750   -4.6686   22.2720 H         1 74H         0.0115
     45 H15        47.4271   -5.0190   23.8672 H         1 74H         0.0115
     46 H16        47.9125   -2.5883   24.6287 H         1 74H         0.0115
     47 H17        48.6604   -2.2379   23.0335 H         1 74H         0.0115
     48 H18        38.6656   -7.0452   26.6554 H         1 74H         0.1791
     49 H19        39.4719   -8.3478   25.7411 H         1 74H         0.1791
@<TRIPOS>BOND
     1    2    1 ar 
     2    3    1 ar 
     3   20    2 ar 
     4   21    3 ar 
     5    7    4 ar 
     6    4   25 ar 
     7   18    5 1  
     8    5   22 2  
     9   14    6 1  
    10    6   20 ar 
    11    6   21 ar 
    12   11    7 1  
    13    7   26 ar 
    14    8   13 1  
    15    8   16 2  
    16   22    8 1  
    17    9   10 ar 
    18    9   18 1  
    19   26    9 ar 
    20   25   10 ar 
    21   10   29 1  
    22   11   17 2  
    23   27   11 1  
    24   12   14 1  
    25   12   27 2  
    26   12   28 1  
    27   13   19 am 
    28   13   30 2  
    29   14   23 1  
    30   14   24 1  
    31   28   15 1  
    32   16   18 1  
    33   17   28 1  
    34   23   24 1  
    35    1   31 1  
    36    2   32 1  
    37    3   33 1  
    38    4   34 1  
    39    5   35 1  
    40   15   36 1  
    41   15   37 1  
    42   15   38 1  
    43   19   39 1  
    44   19   40 1  
    45   20   41 1  
    46   21   42 1  
    47   22   43 1  
    48   23   44 1  
    49   23   45 1  
    50   24   46 1  
    51   24   47 1  
    52   29   48 1  
    53   29   49 1  
@<TRIPOS>SUBSTRUCTURE
     1 74H         1

