### 
### Created by X-TOOL on Mon Sep 10 21:13:34 2018
### 

@<TRIPOS>MOLECULE
5t2m_ligand
   52    56     1     0     0
SMALL
GAST_HUCK


@<TRIPOS>ATOM
      1 C1         13.6430    0.7280  -24.5260 C.3       1 74N         0.0708
      2 C3         13.5770    3.1360  -23.6910 C.2       1 74N         0.1196
      3 N6         11.9720    2.5570  -25.0960 N.2       1 74N        -0.1328
      4 C7         10.6880    4.7140  -25.1730 C.ar      1 74N         0.0985
      5 C8          9.6230    4.2160  -25.9370 C.ar      1 74N         0.0362
      6 C10         8.5730    6.2830  -25.8150 C.ar      1 74N         0.1509
      7 C11         9.6310    6.8070  -25.0170 C.ar      1 74N         0.1032
      8 C13         9.6570    8.2140  -24.4830 C.ar      1 74N         0.0058
      9 C14         9.0350    9.2670  -25.1860 C.ar      1 74N        -0.0470
     10 C15         9.0430   10.5680  -24.7090 C.ar      1 74N        -0.0411
     11 C16         9.6970   10.8760  -23.5010 C.ar      1 74N         0.0497
     12 C19         9.7030   12.2900  -23.0250 C.2       1 74N         0.2024
     13 C24        16.1570    2.8860  -23.3370 C.3       1 74N        -0.0880
     14 C27        15.4490    2.8050  -20.3050 C.ar      1 74N        -0.0483
     15 C30        12.8460    2.1240  -19.6140 C.ar      1 74N        -0.0381
     16 C31        13.1570    2.4720  -20.9230 C.ar      1 74N        -0.0483
     17 N2         13.1100    2.0920  -24.4160 N.pl3     1 74N        -0.1680
     18 N4         12.7680    4.1440  -23.8900 N.2       1 74N        -0.2473
     19 C5         11.8060    3.8200  -24.7630 C.2       1 74N         0.1668
     20 N9          8.6110    5.0180  -26.2370 N.ar      1 74N        -0.2577
     21 N12        10.6400    5.9770  -24.7220 N.ar      1 74N        -0.2719
     22 C17        10.3340    9.8340  -22.7830 C.ar      1 74N        -0.0411
     23 C18        10.3080    8.5250  -23.2630 C.ar      1 74N        -0.0470
     24 O20        10.7250   12.8190  -22.6350 O.2       1 74N        -0.3850
     25 N21         8.5790   13.0300  -23.0360 N.am      1 74N        -0.3001
     26 N22         7.4700    7.0350  -26.1800 N.pl3     1 74N        -0.3124
     27 C23        14.7680    3.1860  -22.7470 C.3       1 74N         0.0101
     28 C25        15.7780    4.3230  -22.9870 C.3       1 74N        -0.0880
     29 C26        14.4610    2.8130  -21.2960 C.ar      1 74N        -0.0618
     30 C28        15.1440    2.4610  -18.9920 C.ar      1 74N        -0.0381
     31 C29        13.8410    2.1280  -18.6510 C.ar      1 74N        -0.0389
     32 H1         13.0088    0.1403  -25.2060 H         1 74N         0.0622
     33 H2         13.6508    0.2561  -23.5324 H         1 74N         0.0622
     34 H3         14.6685    0.7659  -24.9220 H         1 74N         0.0622
     35 H4          9.6271    3.1872  -26.2784 H         1 74N         0.0892
     36 H5          8.5373    9.0526  -26.1248 H         1 74N         0.0639
     37 H6          8.5439   11.3513  -25.2680 H         1 74N         0.0669
     38 H7         16.2527    2.5844  -24.3905 H         1 74N         0.0115
     39 H8         16.9066    2.3533  -22.7335 H         1 74N         0.0115
     40 H9         16.4674    3.0709  -20.5644 H         1 74N         0.0802
     41 H10        11.8310    1.8512  -19.3485 H         1 74N         0.0684
     42 H11        12.3722    2.4793  -21.6708 H         1 74N         0.0802
     43 H12        10.8455   10.0560  -21.8534 H         1 74N         0.0669
     44 H13        10.7909    7.7367  -22.6969 H         1 74N         0.0639
     45 H14         8.6002   13.9763  -22.7135 H         1 74N         0.1808
     46 H15         7.7226   12.6335  -23.3667 H         1 74N         0.1808
     47 H16         6.7286    6.6146  -26.7583 H         1 74N         0.1817
     48 H17         7.3905    8.0151  -25.8733 H         1 74N         0.1817
     49 H18        15.6007    5.0551  -23.7886 H         1 74N         0.0115
     50 H19        16.2546    4.8240  -22.1316 H         1 74N         0.0115
     51 H20        15.9222    2.4531  -18.2374 H         1 74N         0.0684
     52 H21        13.6008    1.8698  -17.6260 H         1 74N         0.0814
@<TRIPOS>BOND
     1   17    1 1  
     2    2   17 1  
     3    2   18 2  
     4   27    2 1  
     5   17    3 1  
     6   19    3 2  
     7    4    5 ar 
     8   19    4 1  
     9    4   21 ar 
    10    5   20 ar 
    11    7    6 ar 
    12   20    6 ar 
    13    6   26 1  
    14    7    8 1  
    15   21    7 ar 
    16    8    9 ar 
    17    8   23 ar 
    18    9   10 ar 
    19   10   11 ar 
    20   11   12 1  
    21   22   11 ar 
    22   12   24 2  
    23   12   25 am 
    24   27   13 1  
    25   28   13 1  
    26   29   14 ar 
    27   14   30 ar 
    28   16   15 ar 
    29   15   31 ar 
    30   29   16 ar 
    31   18   19 1  
    32   23   22 ar 
    33   27   28 1  
    34   27   29 1  
    35   30   31 ar 
    36    1   32 1  
    37    1   33 1  
    38    1   34 1  
    39    5   35 1  
    40    9   36 1  
    41   10   37 1  
    42   13   38 1  
    43   13   39 1  
    44   14   40 1  
    45   15   41 1  
    46   16   42 1  
    47   22   43 1  
    48   23   44 1  
    49   25   45 1  
    50   25   46 1  
    51   26   47 1  
    52   26   48 1  
    53   28   49 1  
    54   28   50 1  
    55   30   51 1  
    56   31   52 1  
@<TRIPOS>SUBSTRUCTURE
     1 74N         1

