### 
### Created by X-TOOL on Mon Sep 10 21:13:31 2018
### 

@<TRIPOS>MOLECULE
5t2p_ligand
   45    47     1     0     0
SMALL
GAST_HUCK


@<TRIPOS>ATOM
      1 C10        14.8480   24.2190   -6.0930 C.ar      1 K89         0.0584
      2 C12        17.1510   23.4440   -6.1060 C.ar      1 K89         0.1509
      3 C15        14.7090   23.7620   -7.3970 C.ar      1 K89        -0.0134
      4 O20        10.3100   24.6760   -0.1170 O.2       1 K89        -0.1506
      5 C23         7.9430   23.0270   -1.0580 C.3       1 K89         0.0319
      6 C24         7.0190   21.7730   -0.9930 C.3       1 K89        -0.0097
      7 C25         7.1400   20.8230   -2.1840 C.3       1 K89         0.0582
      8 C27         9.4820   21.7380   -2.5190 C.3       1 K89         0.0319
      9 C01        10.6610   26.6530   -4.9650 C.ar      1 K89        -0.0432
     10 C02         9.6990   26.8620   -3.9770 C.ar      1 K89        -0.0204
     11 C03         9.6950   26.0110   -2.8620 C.ar      1 K89         0.1640
     12 C04        10.5870   24.9840   -2.6650 C.ar      1 K89         0.1472
     13 C05        11.5120   24.8220   -3.6630 C.ar      1 K89        -0.0165
     14 C06        11.5980   25.6490   -4.8360 C.ar      1 K89         0.0535
     15 C07        12.6100   25.3410   -5.7990 C.2       1 K89         0.2283
     16 O08        12.4410   25.5830   -6.9970 O.2       1 K89        -0.3754
     17 N09        13.7830   24.7400   -5.3800 N.am      1 K89        -0.2376
     18 C11        16.0680   24.0560   -5.4610 C.ar      1 K89        -0.0134
     19 C13        17.0450   22.9940   -7.4090 C.ar      1 K89         0.1812
     20 C14        15.7950   23.1590   -8.0490 C.ar      1 K89         0.1509
     21 F16        15.6690   22.7280   -9.3090 F         1 K89        -0.1892
     22 F17        18.1140   22.4290   -7.9900 F         1 K89        -0.1978
     23 F18        18.3020   23.3280   -5.4530 F         1 K89        -0.1892
     24 S19        10.5770   23.9110   -1.2740 S.o2      1 K89         0.0723
     25 O21        11.8190   23.2070   -1.3120 O.2       1 K89        -0.1506
     26 N22         9.3820   22.7870   -1.4720 N.am      1 K89        -0.2343
     27 C26         8.6080   20.4930   -2.3450 C.3       1 K89        -0.0097
     28 O28         6.3940   19.6440   -1.9470 O.3       1 K89        -0.3917
     29 F29         8.7810   26.2470   -1.9250 F         1 K89        -0.1774
     30 H1         13.7610   23.8713   -7.9113 H         1 K89         0.0446
     31 H2          7.9551   23.4853   -0.0581 H         1 K89         0.0479
     32 H3          7.5010   23.7307   -1.7787 H         1 K89         0.0479
     33 H4          5.9764   22.1191   -0.9365 H         1 K89         0.0306
     34 H5          7.2688   21.2112   -0.0809 H         1 K89         0.0306
     35 H6          6.7647   21.3135   -3.0942 H         1 K89         0.0594
     36 H7         10.5297   21.4048   -2.5552 H         1 K89         0.0479
     37 H8          9.2111   22.2013   -3.4792 H         1 K89         0.0479
     38 H9         10.6724   27.2868   -5.8443 H         1 K89         0.0659
     39 H10         8.9729   27.6617   -4.0685 H         1 K89         0.0617
     40 H11        12.2282   24.0147   -3.5611 H         1 K89         0.0679
     41 H12        13.8781   24.6696   -4.3870 H         1 K89         0.2238
     42 H13        16.1888   24.4099   -4.4435 H         1 K89         0.0446
     43 H14         8.7288   19.8525   -3.2311 H         1 K89         0.0306
     44 H15         8.9458   19.9491   -1.4506 H         1 K89         0.0306
     45 H16         5.4756   19.8662   -1.8481 H         1 K89         0.2098
@<TRIPOS>BOND
     1    1    3 ar 
     2   17    1 1  
     3    1   18 ar 
     4   18    2 ar 
     5    2   19 ar 
     6    2   23 1  
     7    3   20 ar 
     8   24    4 2  
     9    5    6 1  
    10   26    5 1  
    11    6    7 1  
    12   27    7 1  
    13    7   28 1  
    14   26    8 1  
    15    8   27 1  
    16   10    9 ar 
    17   14    9 ar 
    18   11   10 ar 
    19   12   11 ar 
    20   11   29 1  
    21   12   13 ar 
    22   24   12 1  
    23   13   14 ar 
    24   14   15 1  
    25   15   16 2  
    26   15   17 am 
    27   20   19 ar 
    28   19   22 1  
    29   20   21 1  
    30   24   25 2  
    31   24   26 am 
    32    3   30 1  
    33    5   31 1  
    34    5   32 1  
    35    6   33 1  
    36    6   34 1  
    37    7   35 1  
    38    8   36 1  
    39    8   37 1  
    40    9   38 1  
    41   10   39 1  
    42   13   40 1  
    43   17   41 1  
    44   18   42 1  
    45   27   43 1  
    46   27   44 1  
    47   28   45 1  
@<TRIPOS>SUBSTRUCTURE
     1 K89         1

