### 
### Created by X-TOOL on Wed Jan  1 15:39:34 2020
### 

@<TRIPOS>MOLECULE
5t2t_ligand
   53    55     1     0     0
SMALL
GAST_HUCK


@<TRIPOS>ATOM
      1 CL2       -92.4310  -41.4480    4.2230 Cl        1 0N8        -0.0771
      2 C19       -91.9870  -40.3260    5.5160 C.ar      1 0N8         0.0330
      3 C18       -92.1020  -38.9920    5.3200 C.ar      1 0N8        -0.0546
      4 C17       -91.7410  -38.1070    6.3320 C.ar      1 0N8        -0.0599
      5 C20       -91.5150  -40.8000    6.7200 C.ar      1 0N8        -0.0546
      6 C21       -91.1660  -39.9370    7.7080 C.ar      1 0N8        -0.0599
      7 C16       -91.2680  -38.5860    7.5170 C.ar      1 0N8        -0.0434
      8 C15       -90.8660  -37.6080    8.7070 C.3       1 0N8        -0.0088
      9 C11       -89.3060  -37.4890    8.9280 C.3       1 0N8         0.0481
     10 C10       -88.6140  -38.6370    9.6080 C.3       1 0N8        -0.0007
     11 C9        -87.1030  -38.3600    9.8040 C.3       1 0N8        -0.0309
     12 C14       -88.7900  -37.2960    7.4210 C.2       1 0N8         0.1279
     13 O27       -88.1260  -38.1020    6.8110 O.2       1 0N8        -0.3515
     14 C22       -89.1560  -35.9380    6.7830 C.2       1 0N8         0.0206
     15 C23       -88.9010  -35.6080    5.4960 C.2       1 0N8         0.1460
     16 O28       -88.2860  -36.5160    4.5620 O.3       1 0N8        -0.3094
     17 C24       -89.2590  -34.2560    4.9150 C.2       1 0N8         0.1137
     18 O26       -89.5340  -33.2020    5.6830 O.co2     1 0N8        -0.5508
     19 O25       -89.2090  -34.3790    3.6300 O.co2     1 0N8        -0.5508
     20 C12       -89.0290  -36.3040    9.7500 C.3       1 0N8        -0.0007
     21 C13       -87.5430  -35.9560    9.7210 C.3       1 0N8        -0.0309
     22 N8        -86.7550  -37.0530   10.3530 N.4       1 0N8         0.2470
     23 C7        -86.9170  -36.9290   11.7680 C.3       1 0N8         0.0019
     24 C2        -85.8410  -37.7730   12.5560 C.ar      1 0N8         0.0014
     25 C3        -84.5790  -37.2490   12.8550 C.ar      1 0N8        -0.0553
     26 C4        -83.6650  -38.0350   13.5620 C.ar      1 0N8        -0.0684
     27 C5        -84.0180  -39.3150   13.9580 C.ar      1 0N8        -0.0687
     28 C6        -85.2730  -39.8250   13.6560 C.ar      1 0N8        -0.0684
     29 C1        -86.1890  -39.0480   12.9570 C.ar      1 0N8        -0.0553
     30 H1        -92.4750  -38.6128    4.3755 H         1 0N8         0.0606
     31 H2        -91.8360  -37.0382    6.1777 H         1 0N8         0.0557
     32 H3        -91.4217  -41.8681    6.8795 H         1 0N8         0.0606
     33 H4        -90.8040  -40.3209    8.6549 H         1 0N8         0.0557
     34 H5        -91.3210  -37.9841    9.6351 H         1 0N8         0.0418
     35 H6        -91.2629  -36.6068    8.4835 H         1 0N8         0.0418
     36 H7        -88.7338  -39.5407    8.9923 H         1 0N8         0.0309
     37 H8        -89.0771  -38.7999   10.5924 H         1 0N8         0.0309
     38 H9        -86.6143  -38.4532    8.8229 H         1 0N8         0.0813
     39 H10       -86.7065  -39.1270   10.4855 H         1 0N8         0.0813
     40 H11       -89.6515  -35.1980    7.4098 H         1 0N8         0.0456
     41 H12       -88.1978  -36.0888    3.7181 H         1 0N8         0.2615
     42 H13       -89.3310  -36.5071   10.7880 H         1 0N8         0.0309
     43 H14       -89.6059  -35.4524    9.3602 H         1 0N8         0.0309
     44 H15       -87.3761  -35.0205   10.2751 H         1 0N8         0.0813
     45 H16       -87.2183  -35.8273    8.6779 H         1 0N8         0.0813
     46 H17       -85.7806  -36.9017   10.1438 H         1 0N8         0.2048
     47 H18       -87.9207  -37.2844   12.0442 H         1 0N8         0.0980
     48 H19       -86.8133  -35.8701   12.0471 H         1 0N8         0.0980
     49 H20       -84.3133  -36.2457   12.5422 H         1 0N8         0.0558
     50 H21       -82.6823  -37.6442   13.8000 H         1 0N8         0.0599
     51 H22       -83.3085  -39.9227   14.5079 H         1 0N8         0.0559
     52 H23       -85.5387  -40.8294   13.9653 H         1 0N8         0.0599
     53 H24       -87.1728  -39.4411   12.7274 H         1 0N8         0.0558
@<TRIPOS>BOND
     1    1    2 1  
     2    2    3 ar 
     3    2    5 ar 
     4    3    4 ar 
     5    4    7 ar 
     6    5    6 ar 
     7    6    7 ar 
     8    7    8 1  
     9    8    9 1  
    10    9   10 1  
    11    9   12 1  
    12    9   20 1  
    13   10   11 1  
    14   11   22 1  
    15   12   13 2  
    16   12   14 1  
    17   14   15 2  
    18   15   16 1  
    19   15   17 1  
    20   17   18 ar 
    21   17   19 ar 
    22   20   21 1  
    23   21   22 1  
    24   22   23 1  
    25   23   24 1  
    26   24   25 ar 
    27   24   29 ar 
    28   25   26 ar 
    29   26   27 ar 
    30   27   28 ar 
    31   28   29 ar 
    32    3   30 1  
    33    4   31 1  
    34    5   32 1  
    35    6   33 1  
    36    8   34 1  
    37    8   35 1  
    38   10   36 1  
    39   10   37 1  
    40   11   38 1  
    41   11   39 1  
    42   14   40 1  
    43   16   41 1  
    44   20   42 1  
    45   20   43 1  
    46   21   44 1  
    47   21   45 1  
    48   22   46 1  
    49   23   47 1  
    50   23   48 1  
    51   25   49 1  
    52   26   50 1  
    53   27   51 1  
    54   28   52 1  
    55   29   53 1  
@<TRIPOS>SUBSTRUCTURE
     1 0N8         1

