### 
### Created by X-TOOL on Mon Sep 10 21:13:31 2018
### 

@<TRIPOS>MOLECULE
5t2y_ligand
   39    41     1     0     0
SMALL
GAST_HUCK


@<TRIPOS>ATOM
      1 C1         51.3890  106.2060   -7.6390 C.2       1 753        -0.0259
      2 C2         51.7470  105.1980   -6.7750 C.2       1 753         0.0574
      3 C3         51.6610  105.0810   -5.2910 C.2       1 753         0.0582
      4 C4         52.3070  104.6160   -9.1360 C.ar      1 753         0.1007
      5 C5         51.7150  105.8790   -9.0310 C.ar      1 753         0.0527
      6 C6         51.5760  106.4820  -10.3840 C.ar      1 753         0.1242
      7 C7         50.8400  108.3260  -11.8280 C.3       1 753         0.0193
      8 C8         52.4950  104.6510  -11.4130 C.ar      1 753         0.0779
      9 O1         51.0970  105.7930   -4.4620 O.co2     1 753        -0.5673
     10 N1         51.9650  105.8750  -11.5250 N.ar      1 753        -0.2615
     11 N2         52.6910  104.0030  -10.2640 N.ar      1 753        -0.2773
     12 N          51.0080  107.6830  -10.5430 N.pl3     1 753        -0.3030
     13 C          50.7440  107.4930   -7.2050 C.3       1 753        -0.0365
     14 O          52.2680  103.9410   -5.0000 O.co2     1 753        -0.5673
     15 S          52.4780  103.8430   -7.5840 S.3       1 753        -0.0255
     16 C9         52.8930  103.8650  -12.6250 C.3       1 753         0.0188
     17 C10        51.6530  103.3400  -13.4910 C.3       1 753        -0.0045
     18 C11        52.0070  102.3450  -14.5740 C.ar      1 753        -0.0405
     19 C16        52.0970  102.7390  -15.9030 C.ar      1 753        -0.0601
     20 C15        52.3900  101.8190  -16.8960 C.ar      1 753        -0.0686
     21 C14        52.5880  100.4950  -16.5760 C.ar      1 753        -0.0687
     22 C13        52.5020  100.0880  -15.2600 C.ar      1 753        -0.0686
     23 C12        52.2150  101.0070  -14.2650 C.ar      1 753        -0.0601
     24 H1         50.3488  109.3004  -11.6890 H         1 753         0.0491
     25 H2         50.2187  107.6915  -12.4771 H         1 753         0.0491
     26 H3         51.8247  108.4752  -12.2949 H         1 753         0.0491
     27 H4         50.6718  108.1771   -9.7041 H         1 753         0.1869
     28 H5         50.6093  107.4857   -6.1133 H         1 753         0.0369
     29 H6         49.7643  107.5955   -7.6946 H         1 753         0.0369
     30 H7         51.3865  108.3393   -7.4894 H         1 753         0.0369
     31 H8         53.4798  102.9945  -12.2965 H         1 753         0.0516
     32 H9         53.5161  104.5067  -13.2653 H         1 753         0.0516
     33 H10        51.1773  104.2094  -13.9683 H         1 753         0.0455
     34 H11        50.9376  102.8601  -12.8070 H         1 753         0.0455
     35 H12        51.9361  103.7783  -16.1659 H         1 753         0.0557
     36 H13        52.4636  102.1425  -17.9280 H         1 753         0.0599
     37 H14        52.8107   99.7746  -17.3548 H         1 753         0.0559
     38 H15        52.6595   99.0463  -15.0048 H         1 753         0.0599
     39 H16        52.1520  100.6787  -13.2338 H         1 753         0.0557
@<TRIPOS>BOND
     1    1    2 2  
     2    1    5 1  
     3    1   13 1  
     4    2    3 1  
     5    2   15 1  
     6    3    9 ar 
     7    3   14 ar 
     8    5    4 ar 
     9    4   11 ar 
    10    4   15 1  
    11    5    6 ar 
    12    6   10 ar 
    13    6   12 1  
    14   12    7 1  
    15   10    8 ar 
    16    8   11 ar 
    17    8   16 1  
    18   16   17 1  
    19   17   18 1  
    20   18   19 ar 
    21   18   23 ar 
    22   19   20 ar 
    23   20   21 ar 
    24   21   22 ar 
    25   22   23 ar 
    26    7   24 1  
    27    7   25 1  
    28    7   26 1  
    29   12   27 1  
    30   13   28 1  
    31   13   29 1  
    32   13   30 1  
    33   16   31 1  
    34   16   32 1  
    35   17   33 1  
    36   17   34 1  
    37   19   35 1  
    38   20   36 1  
    39   21   37 1  
    40   22   38 1  
    41   23   39 1  
@<TRIPOS>SUBSTRUCTURE
     1 753         1

