### 
### Created by X-TOOL on Wed Jan  1 15:39:37 2020
### 

@<TRIPOS>MOLECULE
5t31_ligand
   47    50     1     0     0
SMALL
GAST_HUCK


@<TRIPOS>ATOM
      1 C14       -18.0610   21.7140   -6.0960 C.3       1 75F        -0.0790
      2 C15       -18.7230   26.3930   -4.1980 C.3       1 75F         0.0335
      3 C16       -17.3290   26.9560   -4.1900 C.3       1 75F         0.0030
      4 C17       -16.3370   26.1110   -4.9490 C.3       1 75F         0.0324
      5 C18       -17.4210   28.2900   -4.8690 C.3       1 75F        -0.0541
      6 C19       -16.8640   27.1630   -2.7730 C.3       1 75F        -0.0541
      7 N2        -20.8790   22.5900   -2.2710 N.pl3     1 75F        -0.1801
      8 O         -15.3250   24.0480   -4.4810 O.2       1 75F        -0.3865
      9 C         -16.3560   24.6600   -4.5860 C.2       1 75F         0.1187
     10 C1        -17.6730   23.9970   -4.4380 C.3       1 75F         0.0661
     11 C2        -18.7040   24.9500   -3.8500 C.2       1 75F         0.0616
     12 C6        -17.5910   22.5920   -3.7810 C.3       1 75F        -0.0224
     13 C13       -17.2480   21.5680   -4.8390 C.3       1 75F        -0.0958
     14 C4        -18.8940   22.2520   -3.1440 C.2       1 75F        -0.0347
     15 C5        -19.3300   21.0120   -2.8000 C.2       1 75F         0.0060
     16 N1        -20.5550   21.2270   -2.2620 N.2       1 75F        -0.2002
     17 C3        -19.8280   23.1570   -2.8130 C.2       1 75F         0.1576
     18 N         -19.6130   24.4940   -3.0760 N.2       1 75F        -0.2387
     19 C7        -16.6250   22.5560   -2.6500 C.ar      1 75F        -0.0881
     20 C8        -15.8830   21.4320   -2.3500 C.ar      1 75F        -0.0593
     21 C9        -15.0050   21.4210   -1.2940 C.ar      1 75F        -0.0457
     22 C10       -14.8750   22.5400   -0.5160 C.ar      1 75F        -0.0458
     23 C11       -15.6160   23.6570   -0.8000 C.ar      1 75F        -0.0457
     24 C12       -16.4940   23.6640   -1.8610 C.ar      1 75F        -0.0593
     25 H1        -17.7608   20.9409   -6.8187 H         1 75F         0.0216
     26 H2        -17.8881   22.7094   -6.5310 H         1 75F         0.0216
     27 H3        -19.1286   21.5983   -5.8577 H         1 75F         0.0216
     28 H4        -19.1578   26.5176   -5.2007 H         1 75F         0.0614
     29 H5        -19.3361   26.9344   -3.4625 H         1 75F         0.0614
     30 H6        -15.3284   26.5022   -4.7499 H         1 75F         0.0504
     31 H7        -16.5596   26.2000   -6.0226 H         1 75F         0.0504
     32 H8        -18.1405   28.9258   -4.3322 H         1 75F         0.0239
     33 H9        -17.7579   28.1508   -5.9068 H         1 75F         0.0239
     34 H10       -16.4322   28.7720   -4.8659 H         1 75F         0.0239
     35 H11       -16.7928   26.1901   -2.2647 H         1 75F         0.0239
     36 H12       -17.5832   27.8029   -2.2408 H         1 75F         0.0239
     37 H13       -15.8763   27.6471   -2.7782 H         1 75F         0.0239
     38 H14       -21.7406   23.0410   -1.9315 H         1 75F         0.2642
     39 H15       -18.0194   23.8014   -5.4635 H         1 75F         0.0676
     40 H16       -16.1842   21.6760   -5.0970 H         1 75F         0.0083
     41 H17       -17.4247   20.5648   -4.4238 H         1 75F         0.0083
     42 H18       -18.8130   20.0621   -2.9275 H         1 75F         0.0735
     43 H19       -15.9951   20.5420   -2.9586 H         1 75F         0.0744
     44 H20       -14.4201   20.5342   -1.0784 H         1 75F         0.0663
     45 H21       -14.1878   22.5423    0.3223 H         1 75F         0.0754
     46 H22       -15.5102   24.5428   -0.1842 H         1 75F         0.0663
     47 H23       -17.0822   24.5501   -2.0706 H         1 75F         0.0744
@<TRIPOS>BOND
     1   13    1 1  
     2    2    3 1  
     3   11    2 1  
     4    4    3 1  
     5    3    5 1  
     6    3    6 1  
     7    9    4 1  
     8    7   16 1  
     9   17    7 1  
    10    9    8 2  
    11   10    9 1  
    12   10   11 1  
    13   12   10 1  
    14   11   18 2  
    15   12   13 1  
    16   14   12 1  
    17   12   19 1  
    18   14   15 1  
    19   14   17 2  
    20   15   16 2  
    21   17   18 1  
    22   19   20 ar 
    23   19   24 ar 
    24   20   21 ar 
    25   21   22 ar 
    26   22   23 ar 
    27   23   24 ar 
    28    1   25 1  
    29    1   26 1  
    30    1   27 1  
    31    2   28 1  
    32    2   29 1  
    33    4   30 1  
    34    4   31 1  
    35    5   32 1  
    36    5   33 1  
    37    5   34 1  
    38    6   35 1  
    39    6   36 1  
    40    6   37 1  
    41    7   38 1  
    42   10   39 1  
    43   13   40 1  
    44   13   41 1  
    45   15   42 1  
    46   20   43 1  
    47   21   44 1  
    48   22   45 1  
    49   23   46 1  
    50   24   47 1  
@<TRIPOS>SUBSTRUCTURE
     1 75F         1

