### 
### Created by X-TOOL on Mon Sep 10 21:13:32 2018
### 

@<TRIPOS>MOLECULE
5t36_ligand
   48    49     1     0     0
SMALL
GAST_HUCK


@<TRIPOS>ATOM
      1 O1         15.8100   16.9830   33.7540 O.co2     1 755        -0.5650
      2 C7         10.7000   14.8830   28.2000 C.3       1 755        -0.0535
      3 O2         17.2270   18.5810   33.0460 O.co2     1 755        -0.5650
      4 C6          8.4090   14.0330   28.7020 C.3       1 755        -0.0535
      5 C1         11.1020   13.5320   34.1550 C.3       1 755        -0.0506
      6 N1         13.9080   16.2910   31.9820 N.pl3     1 755        -0.3196
      7 C5          9.3170   15.2720   28.7560 C.3       1 755         0.0429
      8 C4          9.4600   15.7880   30.2110 C.2       1 755         0.2013
      9 C3         10.2500   15.1580   32.5140 C.3       1 755         0.0467
     10 C2          9.8580   13.9480   33.3700 C.3       1 755        -0.0294
     11 CL         15.2890   16.3020   27.0570 Cl        1 755        -0.0717
     12 C13        15.5920   16.6830   28.7080 C.ar      1 755         0.0317
     13 C14        16.7760   17.3290   29.0740 C.ar      1 755        -0.0575
     14 C12        14.6510   16.3460   29.6840 C.ar      1 755        -0.0267
     15 C11        14.8800   16.6480   31.0340 C.ar      1 755         0.0534
     16 C16        16.0700   17.2970   31.4020 C.ar      1 755         0.0274
     17 C17        16.3750   17.6460   32.8080 C.2       1 755         0.0559
     18 C15        17.0100   17.6340   30.4190 C.ar      1 755        -0.0587
     19 C10        12.5460   15.9980   31.6590 C.3       1 755         0.0296
     20 C9         11.7350   15.4390   32.8250 C.3       1 755         0.0017
     21 C          12.2770   14.1200   33.3810 C.3       1 755        -0.0462
     22 N          10.0170   14.8760   31.1060 N.am      1 755        -0.2824
     23 O           9.1070   16.9240   30.5420 O.2       1 755        -0.3443
     24 C8          8.7370   16.3600   27.8360 C.3       1 755        -0.0535
     25 H1         10.5909   14.5181   27.1681 H         1 755         0.0221
     26 H2         11.1367   14.0901   28.8250 H         1 755         0.0221
     27 H3         11.3599   15.7630   28.2098 H         1 755         0.0221
     28 H4          7.4144   14.2899   29.0954 H         1 755         0.0221
     29 H5          8.8482   13.2297   29.3117 H         1 755         0.0221
     30 H6          8.3145   13.6928   27.6602 H         1 755         0.0221
     31 H7         11.1804   12.4358   34.2014 H         1 755         0.0266
     32 H8         11.0689   13.9409   35.1756 H         1 755         0.0266
     33 H9         14.1932   16.2368   32.9703 H         1 755         0.1771
     34 H10         9.6453   16.0308   32.8012 H         1 755         0.0561
     35 H11         9.0486   14.2220   34.0627 H         1 755         0.0288
     36 H12         9.5247   13.1216   32.7251 H         1 755         0.0288
     37 H13        17.5089   17.5922   28.3199 H         1 755         0.0519
     38 H14        13.7340   15.8457   29.3946 H         1 755         0.0527
     39 H15        17.9276   18.1360   30.7036 H         1 755         0.0616
     40 H16        12.5355   15.2582   30.8450 H         1 755         0.0517
     41 H17        12.0647   16.9262   31.3172 H         1 755         0.0517
     42 H18        11.7793   16.1946   33.6231 H         1 755         0.0342
     43 H19        12.5824   13.4485   32.5651 H         1 755         0.0269
     44 H20        13.1331   14.2998   34.0478 H         1 755         0.0269
     45 H21        10.2718   13.9733   30.7592 H         1 755         0.1860
     46 H22         9.3819   17.2505   27.8694 H         1 755         0.0221
     47 H23         7.7255   16.6269   28.1761 H         1 755         0.0221
     48 H24         8.6889   15.9807   26.8046 H         1 755         0.0221
@<TRIPOS>BOND
     1   17    1 ar 
     2    7    2 1  
     3   17    3 ar 
     4    7    4 1  
     5   10    5 1  
     6    5   21 1  
     7    6   15 1  
     8   19    6 1  
     9    8    7 1  
    10    7   24 1  
    11   22    8 am 
    12    8   23 2  
    13    9   10 1  
    14   20    9 1  
    15    9   22 1  
    16   12   11 1  
    17   12   13 ar 
    18   14   12 ar 
    19   18   13 ar 
    20   15   14 ar 
    21   15   16 ar 
    22   16   17 1  
    23   16   18 ar 
    24   19   20 1  
    25   20   21 1  
    26    2   25 1  
    27    2   26 1  
    28    2   27 1  
    29    4   28 1  
    30    4   29 1  
    31    4   30 1  
    32    5   31 1  
    33    5   32 1  
    34    6   33 1  
    35    9   34 1  
    36   10   35 1  
    37   10   36 1  
    38   13   37 1  
    39   14   38 1  
    40   18   39 1  
    41   19   40 1  
    42   19   41 1  
    43   20   42 1  
    44   21   43 1  
    45   21   44 1  
    46   22   45 1  
    47   24   46 1  
    48   24   47 1  
    49   24   48 1  
@<TRIPOS>SUBSTRUCTURE
     1 755         1

