### 
### Created by X-TOOL on Mon Sep 10 21:13:31 2018
### 

@<TRIPOS>MOLECULE
5t37_ligand
   42    43     1     0     0
SMALL
GAST_HUCK


@<TRIPOS>ATOM
      1 C7         10.7730   14.4190   33.0060 C.ar      1 758        -0.0152
      2 C6         13.1420   14.8620   33.2050 C.ar      1 758         0.0639
      3 C1         10.8950   13.3470   33.8920 C.ar      1 758        -0.0535
      4 C5         17.1880   17.9510   30.5540 C.2       1 758        -0.0493
      5 C4         16.6700   17.6160   29.3250 C.2       1 758         0.0171
      6 C3         11.8950   15.1750   32.6640 C.ar      1 758        -0.0377
      7 C2         12.1420   13.0330   34.4350 C.ar      1 758        -0.0489
      8 C8         13.2640   13.7910   34.0940 C.ar      1 758         0.0536
      9 C9         15.4250   16.6410   30.7530 C.2       1 758         0.2315
     10 C10        14.2710   15.7000   32.8100 C.2       1 758         0.2374
     11 C11         8.9740   15.6990   30.1740 C.2       1 758         0.2028
     12 C12        10.4490   15.0120   28.2320 C.3       1 758        -0.0535
     13 C13         8.0450   14.3210   28.2830 C.3       1 758        -0.0535
     14 C14         8.6220   16.7110   27.8890 C.3       1 758        -0.0535
     15 C15         9.4360   14.7590   32.4140 C.3       1 758         0.0656
     16 C16         9.0340   15.4410   28.6510 C.3       1 758         0.0431
     17 N17        15.5720   16.7990   29.4550 N.pl3     1 758        -0.2481
     18 N18        16.3810   17.3220   31.4590 N.2       1 758        -0.3329
     19 N19        14.4340   15.8810   31.4280 N.am      1 758        -0.1922
     20 N20         9.4340   14.6600   30.9700 N.am      1 758        -0.2743
     21 O21        15.0140   16.2200   33.6520 O.2       1 758        -0.3713
     22 O22         8.5440   16.7530   30.6350 O.2       1 758        -0.3442
     23 CL23       14.7830   13.3550   34.7960 Cl        1 758        -0.0711
     24 H1         10.0234   12.7598   34.1576 H         1 758         0.0593
     25 H2         18.0525   18.5802   30.7606 H         1 758         0.0376
     26 H3         17.0765   17.9538   28.3729 H         1 758         0.0728
     27 H4         11.7973   16.0073   31.9764 H         1 758         0.0608
     28 H5         12.2394   12.2001   35.1219 H         1 758         0.0617
     29 H6         10.4717   14.8333   27.1468 H         1 758         0.0221
     30 H7         10.7239   14.0879   28.7616 H         1 758         0.0221
     31 H8         11.1642   15.8077   28.4876 H         1 758         0.0221
     32 H9          7.0280   14.6181   28.5789 H         1 758         0.0221
     33 H10         8.3249   13.3969   28.8099 H         1 758         0.0221
     34 H11         8.0750   14.1475   27.1972 H         1 758         0.0221
     35 H12         9.3157   17.5281   28.1361 H         1 758         0.0221
     36 H13         7.6002   16.9973   28.1788 H         1 758         0.0221
     37 H14         8.6553   16.5164   26.8069 H         1 758         0.0221
     38 H15         9.1747   15.7890   32.6984 H         1 758         0.0686
     39 H16         8.6837   14.0652   32.8172 H         1 758         0.0686
     40 H17        14.9928   16.3992   28.7030 H         1 758         0.2333
     41 H18        13.7679   15.4158   30.8450 H         1 758         0.2337
     42 H19         9.7716   13.8244   30.5366 H         1 758         0.1884
@<TRIPOS>BOND
     1    1    3 ar 
     2    1    6 ar 
     3   15    1 1  
     4    6    2 ar 
     5    2    8 ar 
     6    2   10 1  
     7    3    7 ar 
     8    4    5 2  
     9   18    4 1  
    10   17    5 1  
    11    7    8 ar 
    12    8   23 1  
    13    9   17 1  
    14    9   18 2  
    15   19    9 1  
    16   10   19 am 
    17   10   21 2  
    18   11   16 1  
    19   20   11 am 
    20   11   22 2  
    21   16   12 1  
    22   16   13 1  
    23   16   14 1  
    24   15   20 1  
    25    3   24 1  
    26    4   25 1  
    27    5   26 1  
    28    6   27 1  
    29    7   28 1  
    30   12   29 1  
    31   12   30 1  
    32   12   31 1  
    33   13   32 1  
    34   13   33 1  
    35   13   34 1  
    36   14   35 1  
    37   14   36 1  
    38   14   37 1  
    39   15   38 1  
    40   15   39 1  
    41   17   40 1  
    42   19   41 1  
    43   20   42 1  
@<TRIPOS>SUBSTRUCTURE
     1 758         1

