### 
### Created by X-TOOL on Mon Sep 10 21:13:30 2018
### 

@<TRIPOS>MOLECULE
5t3n_ligand
   34    37     1     0     0
SMALL
GAST_HUCK


@<TRIPOS>ATOM
      1 C1         65.8320   81.8150   24.5660 C.ar      1 75G         0.1619
      2 C2         65.6370   83.6520   23.1010 C.ar      1 75G         0.1577
      3 C3         65.5930   84.4750   24.2400 C.ar      1 75G         0.1015
      4 C4         65.6890   83.9640   25.5570 C.ar      1 75G         0.1274
      5 S1         65.2700   78.8610   20.3700 S.3       1 75G        -0.0059
      6 P1         65.5120   80.0110   18.6560 P.3       1 75G         0.3343
      7 O1         66.1010   79.0510   17.6840 O.2       1 75G        -0.5272
      8 O2         63.9090   80.5290   18.1530 O.3       1 75G        -0.2221
      9 C5         63.4330   81.5930   19.2550 C.3       1 75G         0.1221
     10 C6         64.5090   82.5570   19.3420 C.3       1 75G         0.1271
     11 O3         64.1220   83.6890   20.2630 O.3       1 75G        -0.3358
     12 C7         65.5280   84.1720   20.7720 C.3       1 75G         0.2013
     13 C8         66.5240   83.1980   20.3160 C.3       1 75G         0.1453
     14 O4         67.2630   83.8020   19.2270 O.3       1 75G        -0.3831
     15 C9         65.7500   82.0340   19.8830 C.3       1 75G         0.1632
     16 O5         66.4100   81.2470   18.9570 O.3       1 75G        -0.2160
     17 N1         65.5290   84.4710   22.1140 N.pl3     1 75G        -0.1932
     18 C10        65.4320   85.6900   22.3690 C.2       1 75G         0.1111
     19 N2         65.4690   85.8160   23.7190 N.2       1 75G        -0.2977
     20 N3         65.6490   84.8420   26.6750 N.pl3     1 75G        -0.3157
     21 N4         65.8110   82.6190   25.6860 N.ar      1 75G        -0.2551
     22 CL1        65.9940   80.0810   24.7760 Cl        1 75G        -0.0217
     23 N5         65.7550   82.3420   23.2990 N.ar      1 75G        -0.2584
     24 H1         64.8703   79.4290   21.1006 H         1 75G         0.1314
     25 H2         63.2779   81.0996   20.2258 H         1 75G         0.0665
     26 H3         62.5003   82.0836   18.9398 H         1 75G         0.0665
     27 H4         64.6974   82.9465   18.3307 H         1 75G         0.0657
     28 H5         65.7562   85.1174   20.2580 H         1 75G         0.0996
     29 H6         67.2129   82.9200   21.1272 H         1 75G         0.0681
     30 H7         67.9174   83.1896   18.9118 H         1 75G         0.2102
     31 H8         65.5289   81.4080   20.7600 H         1 75G         0.0730
     32 H9         65.3360   86.4979   21.6451 H         1 75G         0.1340
     33 H10        65.7194   84.4631   27.6302 H         1 75G         0.1820
     34 H11        65.5496   85.8568   26.5296 H         1 75G         0.1820
@<TRIPOS>BOND
     1    1   21 ar 
     2    1   22 1  
     3   23    1 ar 
     4    2    3 ar 
     5   17    2 1  
     6    2   23 ar 
     7    3    4 ar 
     8    3   19 1  
     9    4   20 1  
    10    4   21 ar 
    11    6    5 1  
    12    6    7 2  
    13    8    6 1  
    14    6   16 1  
    15    9    8 1  
    16   10    9 1  
    17   11   10 1  
    18   10   15 1  
    19   12   11 1  
    20   12   13 1  
    21   12   17 1  
    22   13   14 1  
    23   13   15 1  
    24   15   16 1  
    25   17   18 1  
    26   18   19 2  
    27    5   24 1  
    28    9   25 1  
    29    9   26 1  
    30   10   27 1  
    31   12   28 1  
    32   13   29 1  
    33   14   30 1  
    34   15   31 1  
    35   18   32 1  
    36   20   33 1  
    37   20   34 1  
@<TRIPOS>SUBSTRUCTURE
     1 75G         1

