### 
### Created by X-TOOL on Mon Sep 10 21:13:26 2018
### 

@<TRIPOS>MOLECULE
5t4b_ligand
   64    69     1     0     0
SMALL
GAST_HUCK


@<TRIPOS>ATOM
      1 C1         35.3410   48.1870   36.2920 C.1       1 75N        -0.1029
      2 C2         36.4560   47.9920   36.6900 C.1       1 75N        -0.0704
      3 C3         34.1260   53.4230   44.5620 C.ar      1 75N        -0.0549
      4 C4         34.3820   53.4820   43.2050 C.ar      1 75N        -0.0559
      5 C5         34.4770   52.3030   45.2980 C.ar      1 75N        -0.0424
      6 C6         34.9910   52.4140   42.5750 C.ar      1 75N        -0.0408
      7 C7         35.0740   51.2330   44.6530 C.ar      1 75N         0.0309
      8 C8         35.3400   51.2790   43.2890 C.ar      1 75N         0.0411
      9 C9         38.4360   48.6140   39.3660 C.2       1 75N         0.1698
     10 C10        35.4060   50.0690   45.3240 C.ar      1 75N         0.0506
     11 C11        39.5490   49.3060   39.7570 C.2       1 75N         0.1458
     12 C12        36.1490   49.1430   43.3780 C.ar      1 75N         0.1150
     13 C13        39.7090   49.2830   37.6520 C.2       1 75N         0.2172
     14 C14        37.4130   48.0980   40.2530 C.2       1 75N         0.2382
     15 C15        38.8560   48.9910   42.0460 C.2       1 75N         0.2543
     16 C16        41.3150   51.6100   36.3250 C.3       1 75N        -0.0272
     17 C17        40.2910   52.2010   35.3630 C.3       1 75N        -0.0060
     18 C18        41.4080   50.0860   36.1660 C.3       1 75N         0.0352
     19 C19        40.9600   50.0070   41.8200 C.2       1 75N         0.0329
     20 C20        39.0830   50.0250   35.4320 C.3       1 75N         0.0774
     21 C21        40.5720   49.9080   43.2930 C.2       1 75N        -0.0482
     22 C22        38.9520   51.5370   35.5970 C.3       1 75N        -0.0033
     23 C23        33.9760   48.3910   35.7930 C.3       1 75N        -0.0025
     24 C24        35.1200   49.9030   46.7940 C.3       1 75N        -0.0041
     25 C25        37.8300   47.6950   37.1000 C.3       1 75N         0.1162
     26 C26        36.7380   47.9550   42.6740 C.3       1 75N         0.1268
     27 N27        35.9050   50.2420   42.6540 N.ar      1 75N        -0.2849
     28 N28        35.9280   49.0040   44.6890 N.ar      1 75N        -0.2606
     29 N29        40.3390   49.7290   38.7210 N.2       1 75N        -0.2790
     30 N30        38.5430   48.6150   37.9970 N.pl3     1 75N        -0.2125
     31 N31        39.7640   49.5170   41.1520 N.pl3     1 75N        -0.1933
     32 N32        40.0890   49.4750   36.3610 N.pl3     1 75N        -0.2598
     33 N33        37.7020   48.3510   41.6350 N.am      1 75N        -0.1618
     34 N34        39.2620   49.2340   43.3280 N.2       1 75N        -0.3314
     35 N35        37.9580   52.0770   34.6290 N.4       1 75N         0.2222
     36 O36        36.3430   47.6170   39.9210 O.2       1 75N        -0.4007
     37 H1         33.6462   54.2608   45.0549 H         1 75N         0.0624
     38 H2         34.1059   54.3631   42.6372 H         1 75N         0.0675
     39 H3         34.2868   52.2648   46.3645 H         1 75N         0.0684
     40 H4         35.1978   52.4644   41.5121 H         1 75N         0.0622
     41 H5         41.0163   51.8458   37.3570 H         1 75N         0.0287
     42 H6         42.3001   52.0535   36.1180 H         1 75N         0.0287
     43 H7         40.6140   52.0238   34.3265 H         1 75N         0.0321
     44 H8         40.2014   53.2831   35.5393 H         1 75N         0.0321
     45 H9         42.1083   49.6847   36.9133 H         1 75N         0.0525
     46 H10        41.7731   49.8476   35.1561 H         1 75N         0.0525
     47 H11        41.8937   50.3555   41.3811 H         1 75N         0.0726
     48 H12        39.3876   49.8013   34.3990 H         1 75N         0.0581
     49 H13        38.1097   49.5554   35.6372 H         1 75N         0.0581
     50 H14        41.1475   50.2638   44.1463 H         1 75N         0.0385
     51 H15        38.6140   51.7571   36.6204 H         1 75N         0.0870
     52 H16        33.6568   49.4212   36.0091 H         1 75N         0.0362
     53 H17        33.2947   47.6843   36.2893 H         1 75N         0.0362
     54 H18        33.9534   48.2205   34.7065 H         1 75N         0.0362
     55 H19        35.4616   48.9109   47.1242 H         1 75N         0.0478
     56 H20        34.0381   49.9955   46.9698 H         1 75N         0.0478
     57 H21        35.6516   50.6813   47.3612 H         1 75N         0.0478
     58 H22        38.4276   47.6219   36.1794 H         1 75N         0.0742
     59 H23        37.8075   46.7161   37.6013 H         1 75N         0.0742
     60 H24        35.9252   47.3818   42.2041 H         1 75N         0.0842
     61 H25        37.2524   47.3233   43.4132 H         1 75N         0.0842
     62 H26        37.8809   53.0750   34.7481 H         1 75N         0.1997
     63 H27        37.0607   51.6486   34.7946 H         1 75N         0.1997
     64 H28        38.2594   51.8731   33.6890 H         1 75N         0.1997
@<TRIPOS>BOND
     1    2    1 3  
     2    1   23 1  
     3   25    2 1  
     4    4    3 ar 
     5    5    3 ar 
     6    6    4 ar 
     7    7    5 ar 
     8    8    6 ar 
     9    8    7 ar 
    10   10    7 ar 
    11   27    8 ar 
    12    9   11 2  
    13   14    9 1  
    14    9   30 1  
    15   10   24 1  
    16   28   10 ar 
    17   11   29 1  
    18   31   11 1  
    19   26   12 1  
    20   12   27 ar 
    21   12   28 ar 
    22   29   13 2  
    23   30   13 1  
    24   13   32 1  
    25   33   14 am 
    26   14   36 2  
    27   15   31 1  
    28   33   15 1  
    29   15   34 2  
    30   16   17 1  
    31   18   16 1  
    32   22   17 1  
    33   32   18 1  
    34   21   19 2  
    35   31   19 1  
    36   20   22 1  
    37   32   20 1  
    38   34   21 1  
    39   22   35 1  
    40   30   25 1  
    41   26   33 1  
    42    3   37 1  
    43    4   38 1  
    44    5   39 1  
    45    6   40 1  
    46   16   41 1  
    47   16   42 1  
    48   17   43 1  
    49   17   44 1  
    50   18   45 1  
    51   18   46 1  
    52   19   47 1  
    53   20   48 1  
    54   20   49 1  
    55   21   50 1  
    56   22   51 1  
    57   23   52 1  
    58   23   53 1  
    59   23   54 1  
    60   24   55 1  
    61   24   56 1  
    62   24   57 1  
    63   25   58 1  
    64   25   59 1  
    65   26   60 1  
    66   26   61 1  
    67   35   62 1  
    68   35   63 1  
    69   35   64 1  
@<TRIPOS>SUBSTRUCTURE
     1 75N         1

