### 
### Created by X-TOOL on Mon Sep 10 21:13:26 2018
### 

@<TRIPOS>MOLECULE
5t4e_ligand
   70    75     1     0     0
SMALL
GAST_HUCK


@<TRIPOS>ATOM
      1 C2         38.9680   49.1200   42.1000 C.cat     1 75L         0.1975
      2 C4         39.7040   49.5340   39.9020 C.2       1 75L         0.2456
      3 N1         37.8800   48.4520   41.6540 N.am      1 75L        -0.2458
      4 C12        40.4000   50.0220   43.9890 C.3       1 75L         0.0311
      5 C13        40.8320   51.1400   43.0040 C.3       1 75L        -0.0048
      6 C14        41.1720   50.4100   41.7120 C.3       1 75L         0.0567
      7 C15        38.1100   47.8210   37.1520 C.3       1 75L         0.1403
      8 C16        36.7200   48.1950   36.7800 C.1       1 75L        -0.0668
      9 C17        35.6250   48.4590   36.4180 C.1       1 75L        -0.1027
     10 C18        34.2350   48.6920   35.9480 C.3       1 75L        -0.0025
     11 N3         39.9350   49.7010   41.2440 N.pl3     1 75L        -0.2199
     12 C20        39.3790   50.2860   35.5370 C.3       1 75L         0.0930
     13 C22        40.5990   52.5000   35.5460 C.3       1 75L        -0.0054
     14 C23        41.6410   51.8780   36.5440 C.3       1 75L        -0.0236
     15 C6         37.6170   48.2790   40.3300 C.2       1 75L         0.2938
     16 C5         38.6080   48.8310   39.4300 C.2       1 75L         0.2928
     17 N7         40.5130   49.9850   38.8950 N.2       1 75L        -0.1891
     18 C8         39.9320   49.5330   37.7780 C.2       1 75L         0.2980
     19 N9         38.7550   48.8080   38.0680 N.pl3     1 75L        -0.1199
     20 O10        36.6450   47.6920   39.9500 O.2       1 75L        -0.3478
     21 N11        39.2330   49.2800   43.4460 N.pl3     1 75L        -0.2930
     22 N19        40.3780   49.7440   36.5130 N.pl3     1 75L        -0.2230
     23 C21        39.2200   51.8210   35.6860 C.3       1 75L         0.0003
     24 C24        41.7370   50.3050   36.3560 C.3       1 75L         0.0509
     25 N25        38.1660   52.2860   34.7340 N.4       1 75L         0.2224
     26 C26        38.3090   48.6250   44.4040 C.3       1 75L         0.0913
     27 C27        37.3570   49.5140   45.0790 C.ar      1 75L         0.1089
     28 N28        37.2170   49.2020   46.3880 N.ar      1 75L        -0.2853
     29 C29        35.8370   51.2770   45.1600 C.ar      1 75L         0.0506
     30 N30        36.7120   50.5060   44.4210 N.ar      1 75L        -0.2611
     31 C31        35.5970   51.0480   46.5370 C.ar      1 75L         0.0309
     32 C32        36.3300   49.9700   47.1210 C.ar      1 75L         0.0411
     33 C33        36.1650   49.6590   48.4930 C.ar      1 75L        -0.0408
     34 C34        35.2690   50.4170   49.2750 C.ar      1 75L        -0.0559
     35 C35        34.5450   51.4870   48.6850 C.ar      1 75L        -0.0549
     36 C36        34.7000   51.8170   47.3460 C.ar      1 75L        -0.0424
     37 C37        35.1580   52.4050   44.4200 C.3       1 75L        -0.0041
     38 H1         37.2433   48.0699   42.3238 H         1 75L         0.1819
     39 H2         40.1258   50.4740   44.9536 H         1 75L         0.0535
     40 H3         41.2375   49.3241   44.1359 H         1 75L         0.0535
     41 H4         41.7117   51.6768   43.3887 H         1 75L         0.0313
     42 H5         40.0097   51.8524   42.8416 H         1 75L         0.0313
     43 H6         41.9744   49.6802   41.8950 H         1 75L         0.0607
     44 H7         41.4999   51.1321   40.9498 H         1 75L         0.0607
     45 H8         38.7115   47.7501   36.2338 H         1 75L         0.0779
     46 H9         38.0874   46.8416   37.6522 H         1 75L         0.0779
     47 H10        34.0130   49.7689   35.9796 H         1 75L         0.0362
     48 H11        33.5321   48.1535   36.6006 H         1 75L         0.0362
     49 H12        34.1308   48.3263   34.9158 H         1 75L         0.0362
     50 H13        38.4057   49.8060   35.7169 H         1 75L         0.0626
     51 H14        39.7168   50.0585   34.5152 H         1 75L         0.0626
     52 H15        40.9628   52.3650   34.5167 H         1 75L         0.0321
     53 H16        40.4938   53.5739   35.7598 H         1 75L         0.0321
     54 H17        41.3281   52.0989   37.5752 H         1 75L         0.0290
     55 H18        42.6291   52.3238   36.3571 H         1 75L         0.0290
     56 H19        38.8576   52.0360   36.7021 H         1 75L         0.0874
     57 H20        42.4075   49.8781   37.1163 H         1 75L         0.0569
     58 H21        42.1240   50.0715   35.3531 H         1 75L         0.0569
     59 H22        37.3101   51.7831   34.9086 H         1 75L         0.1998
     60 H23        38.4689   52.1154   33.7878 H         1 75L         0.1998
     61 H24        38.0081   53.2731   34.8635 H         1 75L         0.1998
     62 H25        38.9171   48.1319   45.1767 H         1 75L         0.0773
     63 H26        37.7319   47.8678   43.8530 H         1 75L         0.0773
     64 H27        36.7236   48.8440   48.9388 H         1 75L         0.0622
     65 H28        35.1331   50.1833   50.3248 H         1 75L         0.0675
     66 H29        33.8553   52.0592   49.2948 H         1 75L         0.0624
     67 H30        34.1489   52.6465   46.9179 H         1 75L         0.0684
     68 H31        34.4896   52.9444   45.1072 H         1 75L         0.0478
     69 H32        34.5715   51.9949   43.5847 H         1 75L         0.0478
     70 H33        35.9183   53.0973   44.0292 H         1 75L         0.0478
@<TRIPOS>BOND
     1    3    1 ar 
     2   11    1 ar 
     3    1   21 ar 
     4    2   11 1  
     5   16    2 2  
     6   17    2 1  
     7   15    3 am 
     8    5    4 1  
     9   21    4 1  
    10    6    5 1  
    11   11    6 1  
    12    7    8 1  
    13   19    7 1  
    14    8    9 3  
    15    9   10 1  
    16   22   12 1  
    17   12   23 1  
    18   13   14 1  
    19   23   13 1  
    20   14   24 1  
    21   16   15 1  
    22   15   20 2  
    23   19   16 1  
    24   18   17 2  
    25   18   19 1  
    26   18   22 1  
    27   21   26 1  
    28   22   24 1  
    29   23   25 1  
    30   26   27 1  
    31   27   28 ar 
    32   27   30 ar 
    33   28   32 ar 
    34   30   29 ar 
    35   29   31 ar 
    36   29   37 1  
    37   31   32 ar 
    38   31   36 ar 
    39   32   33 ar 
    40   33   34 ar 
    41   34   35 ar 
    42   35   36 ar 
    43    3   38 1  
    44    4   39 1  
    45    4   40 1  
    46    5   41 1  
    47    5   42 1  
    48    6   43 1  
    49    6   44 1  
    50    7   45 1  
    51    7   46 1  
    52   10   47 1  
    53   10   48 1  
    54   10   49 1  
    55   12   50 1  
    56   12   51 1  
    57   13   52 1  
    58   13   53 1  
    59   14   54 1  
    60   14   55 1  
    61   23   56 1  
    62   24   57 1  
    63   24   58 1  
    64   25   59 1  
    65   25   60 1  
    66   25   61 1  
    67   26   62 1  
    68   26   63 1  
    69   33   64 1  
    70   34   65 1  
    71   35   66 1  
    72   36   67 1  
    73   37   68 1  
    74   37   69 1  
    75   37   70 1  
@<TRIPOS>SUBSTRUCTURE
     1 75L         1

