### 
### Created by X-TOOL on Mon Sep 10 21:13:26 2018
### 

@<TRIPOS>MOLECULE
5t4f_ligand
   61    65     1     0     0
SMALL
GAST_HUCK


@<TRIPOS>ATOM
      1 C4         39.7490   49.3740   39.9600 C.2       1 75M         0.2457
      2 C2         37.5500   48.2340   40.4450 C.2       1 75M         0.2983
      3 N1         37.8710   48.4160   41.8520 N.am      1 75M        -0.2188
      4 C6         39.9060   49.4090   37.8610 C.2       1 75M         0.2980
      5 C3         38.5770   48.7490   39.5320 C.2       1 75M         0.2932
      6 N5         40.5230   49.8210   38.9720 N.2       1 75M        -0.1891
      7 N7         38.6660   48.7510   38.1530 N.pl3     1 75M        -0.1199
      8 N8         40.0320   49.4900   41.3560 N.pl3     1 75M        -0.2179
      9 C9         39.0840   49.0130   42.2670 C.cat     1 75M         0.1975
     10 N10        39.4900   49.2120   43.5260 N.pl3     1 75M        -0.3204
     11 C11        40.8560   49.8470   43.5210 C.3       1 75M         0.0503
     12 C12        41.2020   50.0670   42.0290 C.3       1 75M         0.0753
     13 O13        36.5100   47.7360   40.1120 O.2       1 75M        -0.3474
     14 C14        38.1080   47.6730   37.2640 C.3       1 75M         0.1403
     15 C15        36.7260   47.9590   36.8010 C.1       1 75M        -0.0668
     16 C16        35.6280   48.2120   36.3770 C.1       1 75M        -0.1027
     17 C17        34.2130   48.4660   35.9450 C.3       1 75M        -0.0025
     18 N18        40.3510   49.6020   36.5660 N.pl3     1 75M        -0.2230
     19 C19        39.3510   50.1080   35.5680 C.3       1 75M         0.0930
     20 C20        39.1880   51.6460   35.6780 C.3       1 75M         0.0003
     21 C21        40.5470   52.3500   35.5310 C.3       1 75M        -0.0054
     22 C22        41.6530   51.7310   36.4670 C.3       1 75M        -0.0236
     23 C23        41.7370   50.1480   36.3590 C.3       1 75M         0.0509
     24 N24        38.1510   52.1320   34.6960 N.4       1 75M         0.2224
     25 C25        36.9090   47.9540   42.9150 C.3       1 75M         0.0707
     26 C26        36.3300   49.1820   43.6040 C.ar      1 75M        -0.0118
     27 C27        36.2530   49.1510   45.0150 C.ar      1 75M        -0.0467
     28 C28        35.7000   50.2550   45.7210 C.ar      1 75M        -0.0334
     29 C29        35.3310   51.3960   45.0140 C.ar      1 75M         0.0883
     30 C30        35.4460   51.4670   43.5800 C.ar      1 75M        -0.0334
     31 C31        35.9320   50.3500   42.8970 C.ar      1 75M        -0.0467
     32 C32        34.8010   52.4780   45.7930 C.1       1 75M         0.0934
     33 N33        34.3750   53.3460   46.4180 N.1       1 75M        -0.3338
     34 H1         38.9513   48.9684   44.3694 H         1 75M         0.1789
     35 H2         41.5924   49.1795   43.9923 H         1 75M         0.0557
     36 H3         40.8358   50.8074   44.0569 H         1 75M         0.0557
     37 H4         41.3091   51.1369   41.7972 H         1 75M         0.0628
     38 H5         42.1249   49.5372   41.7505 H         1 75M         0.0628
     39 H6         38.1010   46.7260   37.8236 H         1 75M         0.0779
     40 H7         38.7591   47.5735   36.3830 H         1 75M         0.0779
     41 H8         34.2134   49.0521   35.0142 H         1 75M         0.0362
     42 H9         33.6847   49.0260   36.7306 H         1 75M         0.0362
     43 H10        33.7040   47.5060   35.7735 H         1 75M         0.0362
     44 H11        38.3792   49.6286   35.7573 H         1 75M         0.0626
     45 H12        39.6940   49.8540   34.5542 H         1 75M         0.0626
     46 H13        38.8130   51.8727   36.6870 H         1 75M         0.0874
     47 H14        40.4231   53.4126   35.7868 H         1 75M         0.0321
     48 H15        40.8791   52.2607   34.4862 H         1 75M         0.0321
     49 H16        41.4228   52.0003   37.5084 H         1 75M         0.0290
     50 H17        42.6285   52.1545   36.1858 H         1 75M         0.0290
     51 H18        42.1089   49.8595   35.3648 H         1 75M         0.0569
     52 H19        42.4139   49.7551   37.1319 H         1 75M         0.0569
     53 H20        37.2878   51.6332   34.8446 H         1 75M         0.1998
     54 H21        38.4759   51.9687   33.7559 H         1 75M         0.1998
     55 H22        37.9964   53.1188   34.8314 H         1 75M         0.1998
     56 H23        37.4388   47.3305   43.6502 H         1 75M         0.0701
     57 H24        36.0988   47.3696   42.4545 H         1 75M         0.0701
     58 H25        36.6153   48.2861   45.5589 H         1 75M         0.0584
     59 H26        35.5676   50.2085   46.7959 H         1 75M         0.0701
     60 H27        35.1623   52.3655   43.0440 H         1 75M         0.0701
     61 H28        36.0067   50.3735   41.8158 H         1 75M         0.0584
@<TRIPOS>BOND
     1    5    1 2  
     2    1    6 1  
     3    1    8 1  
     4    2    3 am 
     5    2    5 1  
     6    2   13 2  
     7    3    9 ar 
     8    3   25 1  
     9    6    4 2  
    10    4    7 1  
    11    4   18 1  
    12    5    7 1  
    13    7   14 1  
    14    8    9 ar 
    15    8   12 1  
    16    9   10 ar 
    17   10   11 1  
    18   11   12 1  
    19   14   15 1  
    20   15   16 3  
    21   16   17 1  
    22   18   19 1  
    23   18   23 1  
    24   19   20 1  
    25   20   21 1  
    26   20   24 1  
    27   21   22 1  
    28   22   23 1  
    29   25   26 1  
    30   26   27 ar 
    31   26   31 ar 
    32   27   28 ar 
    33   28   29 ar 
    34   29   30 ar 
    35   29   32 1  
    36   30   31 ar 
    37   32   33 3  
    38   10   34 1  
    39   11   35 1  
    40   11   36 1  
    41   12   37 1  
    42   12   38 1  
    43   14   39 1  
    44   14   40 1  
    45   17   41 1  
    46   17   42 1  
    47   17   43 1  
    48   19   44 1  
    49   19   45 1  
    50   20   46 1  
    51   21   47 1  
    52   21   48 1  
    53   22   49 1  
    54   22   50 1  
    55   23   51 1  
    56   23   52 1  
    57   24   53 1  
    58   24   54 1  
    59   24   55 1  
    60   25   56 1  
    61   25   57 1  
    62   27   58 1  
    63   28   59 1  
    64   30   60 1  
    65   31   61 1  
@<TRIPOS>SUBSTRUCTURE
     1 75M         1

