### 
### Created by X-TOOL on Mon Sep 10 21:13:26 2018
### 

@<TRIPOS>MOLECULE
5t4h_ligand
   58    62     1     0     0
SMALL
GAST_HUCK


@<TRIPOS>ATOM
      1 C1         35.1940   51.2670   45.0690 C.ar      1 75J        -0.0574
      2 C2         35.7050   50.2440   45.8080 C.ar      1 75J        -0.0333
      3 C3         35.3050   51.3040   43.6360 C.ar      1 75J        -0.0597
      4 C4         36.0230   50.3100   42.9660 C.ar      1 75J        -0.0461
      5 C5         36.5630   49.2270   43.6810 C.ar      1 75J         0.0218
      6 C6         36.3960   49.2150   45.1100 C.ar      1 75J         0.0994
      7 C11        39.8900   49.5130   39.8710 C.2       1 75J         0.1458
      8 C12        38.7370   48.8740   39.5090 C.2       1 75J         0.1698
      9 C13        37.7570   48.3660   40.4760 C.2       1 75J         0.2379
     10 N15        39.8230   49.4390   43.4530 N.2       1 75J        -0.3314
     11 C16        41.1370   50.0680   43.3230 C.2       1 75J        -0.0482
     12 C17        41.3780   50.2260   41.8490 C.2       1 75J         0.0329
     13 C21        38.0780   47.9540   37.2410 C.3       1 75J         0.1162
     14 C23        39.2760   50.3360   35.5310 C.3       1 75J         0.0774
     15 C24        39.0490   51.8580   35.7330 C.3       1 75J        -0.0033
     16 C26        41.4840   51.9710   36.3150 C.3       1 75J        -0.0272
     17 C27        41.6360   50.4510   36.1850 C.3       1 75J         0.0352
     18 C7         37.2580   48.0980   42.9670 C.3       1 75J         0.1028
     19 N8         38.1360   48.5940   41.8760 N.am      1 75J        -0.1660
     20 C9         39.3310   49.2010   42.2240 C.2       1 75J         0.2539
     21 N10        40.2010   49.6410   41.2480 N.pl3     1 75J        -0.1933
     22 O14        36.7230   47.8000   40.2250 O.2       1 75J        -0.4007
     23 N18        40.6380   49.9570   38.8570 N.2       1 75J        -0.2790
     24 C19        39.9720   49.5680   37.7460 C.2       1 75J         0.2172
     25 N20        38.8170   48.8800   38.1010 N.pl3     1 75J        -0.2125
     26 N22        40.3410   49.7950   36.4280 N.pl3     1 75J        -0.2598
     27 C25        40.3620   52.6110   35.4910 C.3       1 75J        -0.0060
     28 N28        38.0340   52.2800   34.7420 N.4       1 75J         0.2222
     29 C29        36.7340   48.3670   36.8600 C.1       1 75J        -0.0704
     30 C30        35.6070   48.6440   36.5270 C.1       1 75J        -0.1029
     31 C31        34.2060   48.9110   36.1860 C.3       1 75J        -0.0025
     32 C32        36.9420   48.1040   45.8400 C.1       1 75J         0.0935
     33 N33        37.3690   47.2340   46.4100 N.1       1 75J        -0.3348
     34 H1         34.6873   52.0794   45.5772 H         1 75J         0.0584
     35 H2         35.5898   50.2148   46.8855 H         1 75J         0.0699
     36 H3         34.8320   52.1024   43.0758 H         1 75J         0.0671
     37 H4         36.1638   50.3742   41.8931 H         1 75J         0.0582
     38 H5         41.8051   50.3621   44.1311 H         1 75J         0.0385
     39 H6         42.2362   50.6749   41.3511 H         1 75J         0.0726
     40 H7         37.9966   46.9942   37.7722 H         1 75J         0.0742
     41 H8         38.6607   47.8143   36.3186 H         1 75J         0.0742
     42 H9         39.5704   50.1584   34.4861 H         1 75J         0.0581
     43 H10        38.3346   49.8074   35.7417 H         1 75J         0.0581
     44 H11        38.6898   52.0578   36.7533 H         1 75J         0.0870
     45 H12        42.4334   52.4312   36.0038 H         1 75J         0.0287
     46 H13        41.2952   52.2002   37.3742 H         1 75J         0.0287
     47 H14        42.3698   50.0935   36.9223 H         1 75J         0.0525
     48 H15        41.9849   50.2048   35.1713 H         1 75J         0.0525
     49 H16        36.4992   47.4278   42.5367 H         1 75J         0.0791
     50 H17        37.8703   47.5414   43.6917 H         1 75J         0.0791
     51 H18        40.2415   53.6622   35.7919 H         1 75J         0.0321
     52 H19        40.6197   52.5626   34.4227 H         1 75J         0.0321
     53 H20        37.1743   51.7805   34.9080 H         1 75J         0.1997
     54 H21        38.3668   52.0763   33.8126 H         1 75J         0.1997
     55 H22        37.8695   53.2705   34.8305 H         1 75J         0.1997
     56 H23        34.1582   49.7089   35.4303 H         1 75J         0.0362
     57 H24        33.6629   49.2279   37.0886 H         1 75J         0.0362
     58 H25        33.7459   47.9966   35.7833 H         1 75J         0.0362
@<TRIPOS>BOND
     1    2    1 ar 
     2    3    1 ar 
     3    6    2 ar 
     4    4    3 ar 
     5    5    4 ar 
     6    5    6 ar 
     7   18    5 1  
     8    6   32 1  
     9    8    7 2  
    10    7   21 1  
    11   23    7 1  
    12    8    9 1  
    13   25    8 1  
    14    9   19 am 
    15    9   22 2  
    16   10   11 1  
    17   20   10 2  
    18   12   11 2  
    19   21   12 1  
    20   25   13 1  
    21   13   29 1  
    22   14   15 1  
    23   26   14 1  
    24   15   27 1  
    25   15   28 1  
    26   17   16 1  
    27   16   27 1  
    28   26   17 1  
    29   19   18 1  
    30   19   20 1  
    31   21   20 1  
    32   24   23 2  
    33   24   25 1  
    34   24   26 1  
    35   29   30 3  
    36   30   31 1  
    37   32   33 3  
    38    1   34 1  
    39    2   35 1  
    40    3   36 1  
    41    4   37 1  
    42   11   38 1  
    43   12   39 1  
    44   13   40 1  
    45   13   41 1  
    46   14   42 1  
    47   14   43 1  
    48   15   44 1  
    49   16   45 1  
    50   16   46 1  
    51   17   47 1  
    52   17   48 1  
    53   18   49 1  
    54   18   50 1  
    55   27   51 1  
    56   27   52 1  
    57   28   53 1  
    58   28   54 1  
    59   28   55 1  
    60   31   56 1  
    61   31   57 1  
    62   31   58 1  
@<TRIPOS>SUBSTRUCTURE
     1 75J         1

