### 
### Created by X-TOOL on Mon Sep 10 21:13:33 2018
### 

@<TRIPOS>MOLECULE
5t4u_ligand
   21    22     1     0     0
SMALL
GAST_HUCK


@<TRIPOS>ATOM
      1 CAH         6.9640   14.6800   13.6930 C.3       1 12Q         0.0496
      2 NAC         6.8710   13.2750   14.0690 N.am      1 12Q        -0.2176
      3 CAA         6.3840   12.9470   15.3120 C.ar      1 12Q         0.0916
      4 CAD         5.9720   13.9320   16.1960 C.ar      1 12Q        -0.0318
      5 CAI         5.4700   13.5740   17.4470 C.ar      1 12Q        -0.0698
      6 CAK         5.3760   12.2420   17.8040 C.ar      1 12Q        -0.0709
      7 CAF         5.7840   11.2360   16.9430 C.ar      1 12Q        -0.0599
      8 CAB         6.2930   11.5930   15.6900 C.ar      1 12Q         0.0123
      9 CAE         6.6990   10.5970   14.8200 C.2       1 12Q        -0.0450
     10 CAJ         7.1950   10.9720   13.5890 C.2       1 12Q         0.0073
     11 CAG         7.2790   12.3220   13.2350 C.2       1 12Q         0.2083
     12 OAL         7.7540   12.5810   12.1070 O.2       1 12Q        -0.4037
     13 H1          6.5787   15.3050   14.5121 H         1 12Q         0.0572
     14 H2          6.3682   14.8569   12.7854 H         1 12Q         0.0572
     15 H3          8.0152   14.9386   13.4978 H         1 12Q         0.0572
     16 H4          6.0397   14.9770   15.9159 H         1 12Q         0.0527
     17 H5          5.1524   14.3431   18.1418 H         1 12Q         0.0611
     18 H6          4.9753   11.9793   18.7764 H         1 12Q         0.0516
     19 H7          5.7103   10.1945   17.2342 H         1 12Q         0.0613
     20 H8          6.6289    9.5467   15.0992 H         1 12Q         0.0722
     21 H9          7.5246   10.2088   12.8855 H         1 12Q         0.0592
@<TRIPOS>BOND
     1    1    2 1  
     2    2    3 1  
     3    2   11 am 
     4    3    4 ar 
     5    3    8 ar 
     6    4    5 ar 
     7    5    6 ar 
     8    6    7 ar 
     9    7    8 ar 
    10    8    9 1  
    11    9   10 2  
    12   10   11 1  
    13   11   12 2  
    14    1   13 1  
    15    1   14 1  
    16    1   15 1  
    17    4   16 1  
    18    5   17 1  
    19    6   18 1  
    20    7   19 1  
    21    9   20 1  
    22   10   21 1  
@<TRIPOS>SUBSTRUCTURE
     1 12Q         1

