### 
### Created by X-TOOL on Mon Sep 10 21:13:33 2018
### 

@<TRIPOS>MOLECULE
5t4v_ligand
   44    46     1     0     0
SMALL
GAST_HUCK


@<TRIPOS>ATOM
      1 O3         -0.0750  -15.2780  -14.4840 O.2       1 N48        -0.4184
      2 C14        -0.7200  -15.8910  -13.6460 C.2       1 N48         0.1852
      3 C13        -0.5970  -17.2700  -13.3980 C.2       1 N48        -0.0093
      4 C12        -1.3390  -17.9860  -12.5420 C.2       1 N48        -0.0434
      5 C18        -1.1680  -19.4730  -12.4240 C.3       1 N48        -0.0280
      6 N2         -1.6980  -15.2410  -12.9060 N.am      1 N48        -0.2316
      7 C15        -1.9080  -13.8220  -13.1800 C.3       1 N48         0.0460
      8 C16        -2.4870  -15.9160  -11.9320 C.ar      1 N48         0.0696
      9 C17        -3.4070  -15.2030  -11.1730 C.ar      1 N48        -0.0131
     10 C1         -4.1420  -15.8650  -10.1950 C.ar      1 N48         0.1074
     11 O          -5.0240  -15.2410   -9.3570 O.3       1 N48        -0.3254
     12 C          -4.7720  -13.8690   -9.0550 C.3       1 N48         0.0579
     13 C11        -2.3090  -17.2960  -11.7310 C.ar      1 N48        -0.0063
     14 C10        -3.0480  -17.9360  -10.7310 C.ar      1 N48        -0.0495
     15 C2         -3.9650  -17.2340   -9.9670 C.ar      1 N48         0.0861
     16 N          -4.7190  -17.9290   -8.9410 N.am      1 N48        -0.1944
     17 S          -5.2110  -19.4930   -8.9840 S.o2      1 N48         0.0893
     18 O1         -4.1010  -20.3840   -9.1220 O.2       1 N48        -0.1444
     19 O2         -6.0350  -19.5730   -7.8140 O.2       1 N48        -0.1444
     20 C3         -6.2410  -19.7290  -10.4010 C.ar      1 N48         0.1217
     21 C8         -7.0510  -18.7000  -10.8370 C.ar      1 N48        -0.0234
     22 C7         -7.8410  -18.8810  -11.9560 C.ar      1 N48        -0.0251
     23 C6         -7.8360  -20.0960  -12.6330 C.ar      1 N48         0.0957
     24 C9         -8.6320  -20.2550  -13.8160 C.1       1 N48         0.1004
     25 N1         -9.2660  -20.3360  -14.7590 N.1       1 N48        -0.3284
     26 C5         -7.0180  -21.1140  -12.2000 C.ar      1 N48        -0.0251
     27 C4         -6.2100  -20.9360  -11.0860 C.ar      1 N48        -0.0234
     28 H1          0.1722  -17.8053  -13.9528 H         1 N48         0.0370
     29 H2         -0.3855  -19.8085  -13.1205 H         1 N48         0.0424
     30 H3         -2.1168  -19.9719  -12.6706 H         1 N48         0.0424
     31 H4         -0.8763  -19.7280  -11.3945 H         1 N48         0.0424
     32 H5         -1.2045  -13.4908  -13.9581 H         1 N48         0.0564
     33 H6         -1.7378  -13.2420  -12.2610 H         1 N48         0.0564
     34 H7         -2.9397  -13.6644  -13.5274 H         1 N48         0.0564
     35 H8         -3.5505  -14.1418  -11.3413 H         1 N48         0.0413
     36 H9         -5.5517  -13.4939   -8.3758 H         1 N48         0.0576
     37 H10        -4.7817  -13.2811   -9.9847 H         1 N48         0.0576
     38 H11        -3.7884  -13.7746   -8.5717 H         1 N48         0.0576
     39 H12        -2.9011  -18.9949  -10.5517 H         1 N48         0.0426
     40 H13        -4.9630  -17.4023   -8.1267 H         1 N48         0.2081
     41 H14        -7.0673  -17.7558  -10.3048 H         1 N48         0.0661
     42 H15        -8.4688  -18.0707  -12.3086 H         1 N48         0.0719
     43 H16        -7.0047  -22.0588  -12.7312 H         1 N48         0.0719
     44 H17        -5.5581  -21.7352  -10.7524 H         1 N48         0.0661
@<TRIPOS>BOND
     1    1    2 2  
     2    2    3 1  
     3    2    6 am 
     4    3    4 2  
     5    4    5 1  
     6    4   13 1  
     7    6    7 1  
     8    6    8 1  
     9    8    9 ar 
    10    8   13 ar 
    11    9   10 ar 
    12   10   11 1  
    13   10   15 ar 
    14   11   12 1  
    15   13   14 ar 
    16   14   15 ar 
    17   15   16 1  
    18   16   17 am 
    19   17   18 2  
    20   17   19 2  
    21   17   20 1  
    22   20   21 ar 
    23   20   27 ar 
    24   21   22 ar 
    25   22   23 ar 
    26   23   24 1  
    27   23   26 ar 
    28   24   25 3  
    29   26   27 ar 
    30    3   28 1  
    31    5   29 1  
    32    5   30 1  
    33    5   31 1  
    34    7   32 1  
    35    7   33 1  
    36    7   34 1  
    37    9   35 1  
    38   12   36 1  
    39   12   37 1  
    40   12   38 1  
    41   14   39 1  
    42   16   40 1  
    43   21   41 1  
    44   22   42 1  
    45   26   43 1  
    46   27   44 1  
@<TRIPOS>SUBSTRUCTURE
     1 N48         1

