### 
### Created by X-TOOL on Mon Sep 10 21:13:26 2018
### 

@<TRIPOS>MOLECULE
5t52_ligand
   30    30     1     0     0
SMALL
GAST_HUCK


@<TRIPOS>ATOM
      1 O         -12.1040   33.5670    1.2090 O.3       1 A2G        -0.3410
      2 C1        -13.2360   32.8870    1.8150 C.3       1 A2G         0.1823
      3 O1        -14.1090   33.8210    2.4250 O.3       1 A2G        -0.3651
      4 C2        -12.8170   31.8900    2.9100 C.3       1 A2G         0.1208
      5 N2        -13.9880   31.3540    3.5650 N.am      1 A2G        -0.2766
      6 C3        -11.7770   32.4760    3.9180 C.3       1 A2G         0.1110
      7 O3        -11.3660   31.3590    4.7550 O.3       1 A2G        -0.3867
      8 C4        -10.6390   33.1220    3.1080 C.3       1 A2G         0.1116
      9 O4         -9.9440   32.1650    2.3460 O.3       1 A2G        -0.3865
     10 C5        -11.2240   34.1670    2.2110 C.3       1 A2G         0.1130
     11 C6        -10.1670   34.9990    1.4790 C.3       1 A2G         0.0730
     12 O6        -10.8300   35.8790    0.5400 O.3       1 A2G        -0.3924
     13 C7        -14.1770   30.0600    3.7720 C.2       1 A2G         0.1733
     14 O7        -13.3630   29.2110    3.3830 O.2       1 A2G        -0.3974
     15 C8        -15.4080   29.6360    4.5000 C.3       1 A2G         0.0257
     16 H1        -13.7750   32.3443    1.0245 H         1 A2G         0.0932
     17 H2        -13.6393   34.2988    3.0985 H         1 A2G         0.2126
     18 H3        -12.3185   31.0503    2.4037 H         1 A2G         0.0633
     19 H4        -14.6912   31.9925    3.8778 H         1 A2G         0.1857
     20 H5        -12.2435   33.2473    4.5484 H         1 A2G         0.0645
     21 H6        -10.7285   31.6598    5.3919 H         1 A2G         0.2100
     22 H7         -9.9321   33.5978    3.8036 H         1 A2G         0.0647
     23 H8         -9.5694   31.5119    2.9253 H         1 A2G         0.2100
     24 H9        -11.8196   34.8465    2.8383 H         1 A2G         0.0647
     25 H10        -9.4811   34.3309    0.9376 H         1 A2G         0.0584
     26 H11        -9.5985   35.5966    2.2068 H         1 A2G         0.0584
     27 H12       -11.4225   36.4537    1.0104 H         1 A2G         0.2095
     28 H13       -15.4204   28.5399    4.5919 H         1 A2G         0.0467
     29 H14       -16.2963   29.9672    3.9422 H         1 A2G         0.0467
     30 H15       -15.4151   30.0881    5.5028 H         1 A2G         0.0467
@<TRIPOS>BOND
     1    1    2 1  
     2    1   10 1  
     3    2    3 1  
     4    2    4 1  
     5    4    5 1  
     6    4    6 1  
     7    5   13 am 
     8    6    7 1  
     9    6    8 1  
    10    8    9 1  
    11    8   10 1  
    12   10   11 1  
    13   11   12 1  
    14   13   14 2  
    15   13   15 1  
    16    2   16 1  
    17    3   17 1  
    18    4   18 1  
    19    5   19 1  
    20    6   20 1  
    21    7   21 1  
    22    8   22 1  
    23    9   23 1  
    24   10   24 1  
    25   11   25 1  
    26   11   26 1  
    27   12   27 1  
    28   15   28 1  
    29   15   29 1  
    30   15   30 1  
@<TRIPOS>SUBSTRUCTURE
     1 A2G         1

