### 
### Created by X-TOOL on Mon Sep 10 21:13:26 2018
### 

@<TRIPOS>MOLECULE
5t54_ligand
   71    73     1     0     0
SMALL
GAST_HUCK


@<TRIPOS>ATOM
      1 O         -11.9890   44.4310   14.3690 O.3       1 A2G        -0.3408
      2 C1        -11.2540   45.5890   14.7400 C.3       1 A2G         0.1854
      3 O1        -11.0700   46.4910   13.6840 O.3       1 A2G        -0.3403
      4 C2         -9.8810   45.2600   15.3240 C.3       1 A2G         0.1210
      5 N2         -9.2180   46.4940   15.6330 N.am      1 A2G        -0.2766
      6 C3         -9.1420   44.3500   14.3860 C.3       1 A2G         0.1111
      7 O3         -7.9240   43.9860   15.0580 O.3       1 A2G        -0.3867
      8 C4        -10.0340   43.1450   14.0690 C.3       1 A2G         0.1116
      9 O4        -10.3610   42.3060   15.1990 O.3       1 A2G        -0.3865
     10 C5        -11.3100   43.6390   13.4020 C.3       1 A2G         0.1130
     11 C6        -12.2270   42.4880   13.0140 C.3       1 A2G         0.0730
     12 O6        -13.3910   43.0560   12.3370 O.3       1 A2G        -0.3924
     13 C7         -8.5110   46.6390   16.7290 C.2       1 A2G         0.1733
     14 O7         -8.4510   45.7560   17.6040 O.2       1 A2G        -0.3974
     15 C8         -7.7150   47.9220   16.8710 C.3       1 A2G         0.0257
     16 C1        -12.9480   48.4090   11.0590 C.3       1 GLA         0.1858
     17 C2        -11.7740   47.9780   11.8850 C.3       1 GLA         0.1408
     18 C3        -12.1700   46.8510   12.7910 C.3       1 GLA         0.1209
     19 C4        -13.4360   47.1750   13.5280 C.3       1 GLA         0.1123
     20 C5        -14.5780   47.6240   12.6510 C.3       1 GLA         0.1130
     21 C6        -15.7700   48.1080   13.5010 C.3       1 GLA         0.0730
     22 O1        -13.2580   47.3270   10.1990 O.3       1 GLA        -0.3649
     23 O2        -10.7010   47.4900   11.0600 O.3       1 GLA        -0.3378
     24 O4        -13.0870   48.2350   14.3760 O.3       1 GLA        -0.3865
     25 O5        -14.0990   48.7290   11.8700 O.3       1 GLA        -0.3407
     26 O6        -16.8080   48.2890   12.5120 O.3       1 GLA        -0.3924
     27 C1         -9.7570   48.5600   10.8690 C.3       1 FUC         0.1884
     28 C2         -8.3930   48.0490   10.4410 C.3       1 FUC         0.1341
     29 C3         -8.4020   47.4980    9.0160 C.3       1 FUC         0.1140
     30 C4         -9.0410   48.4950    8.0250 C.3       1 FUC         0.1095
     31 C5        -10.3770   48.8610    8.6230 C.3       1 FUC         0.0873
     32 C6        -11.1990   49.7580    7.6670 C.3       1 FUC        -0.0361
     33 O2         -7.9270   47.0980   11.4410 O.3       1 FUC        -0.3841
     34 O3         -7.0430   47.3200    8.6500 O.3       1 FUC        -0.3864
     35 O4         -8.1370   49.5840    7.8780 O.3       1 FUC        -0.3866
     36 O5        -10.1810   49.5130    9.8740 O.3       1 FUC        -0.3431
     37 H1        -11.8380   46.0999   15.5196 H         1 A2G         0.0935
     38 H2        -10.0206   44.7130   16.2681 H         1 A2G         0.0633
     39 H3         -9.2965   47.2624   14.9978 H         1 A2G         0.1857
     40 H4         -8.9027   44.8757   13.4499 H         1 A2G         0.0645
     41 H5         -7.4175   43.4064   14.5012 H         1 A2G         0.2100
     42 H6         -9.4891   42.5169   13.3488 H         1 A2G         0.0647
     43 H7        -10.8226   42.8204   15.8508 H         1 A2G         0.2100
     44 H8        -11.0635   44.2349   12.5109 H         1 A2G         0.0647
     45 H9        -12.5464   41.9434   13.9148 H         1 A2G         0.0584
     46 H10       -11.6989   41.8000   12.3374 H         1 A2G         0.0584
     47 H11       -13.1068   43.5279   11.5631 H         1 A2G         0.2095
     48 H12        -7.1730   47.9132   17.8282 H         1 A2G         0.0467
     49 H13        -8.3993   48.7829   16.8451 H         1 A2G         0.0467
     50 H14        -6.9953   48.0006   16.0429 H         1 A2G         0.0467
     51 H15       -12.6736   49.2939   10.4660 H         1 A2G         0.0936
     52 H16       -11.4225   48.8328   12.4814 H         1 A2G         0.0675
     53 H17       -12.3769   45.9743   12.1597 H         1 A2G         0.0651
     54 H18       -13.7584   46.2984   14.1090 H         1 A2G         0.0647
     55 H19       -14.8980   46.7992   11.9974 H         1 A2G         0.0647
     56 H20       -15.5366   49.0549   14.0098 H         1 A2G         0.0584
     57 H21       -16.0590   47.3526   14.2465 H         1 A2G         0.0584
     58 H22       -13.9838   47.5693    9.6360 H         1 A2G         0.2126
     59 H23       -12.3676   47.9675   14.9359 H         1 A2G         0.2100
     60 H24       -16.5258   48.9324   11.8725 H         1 A2G         0.2095
     61 H25        -9.6511   49.0834   11.8307 H         1 A2G         0.0938
     62 H26        -7.6974   48.9011   10.4461 H         1 A2G         0.0671
     63 H27        -8.9445   46.5417    8.9832 H         1 A2G         0.0648
     64 H28        -9.1980   48.0249    7.0430 H         1 A2G         0.0646
     65 H29       -10.9439   47.9345    8.7967 H         1 A2G         0.0621
     66 H30       -12.1638   50.0043    8.1343 H         1 A2G         0.0255
     67 H31       -11.3752   49.2224    6.7225 H         1 A2G         0.0255
     68 H32       -10.6424   50.6849    7.4646 H         1 A2G         0.0255
     69 H33        -7.9479   47.5062   12.2985 H         1 A2G         0.2101
     70 H34        -6.6322   46.7084    9.2497 H         1 A2G         0.2100
     71 H35        -7.9618   49.9659    8.7300 H         1 A2G         0.2100
@<TRIPOS>BOND
     1    2    1 1  
     2    1   10 1  
     3    3    2 1  
     4    2    4 1  
     5   18    3 1  
     6    4    5 1  
     7    4    6 1  
     8    5   13 am 
     9    6    7 1  
    10    6    8 1  
    11    8    9 1  
    12   10    8 1  
    13   10   11 1  
    14   11   12 1  
    15   13   14 2  
    16   13   15 1  
    17   17   16 1  
    18   16   22 1  
    19   16   25 1  
    20   17   18 1  
    21   17   23 1  
    22   18   19 1  
    23   19   20 1  
    24   19   24 1  
    25   20   21 1  
    26   20   25 1  
    27   21   26 1  
    28   23   27 1  
    29   27   28 1  
    30   27   36 1  
    31   28   29 1  
    32   28   33 1  
    33   29   30 1  
    34   29   34 1  
    35   30   31 1  
    36   30   35 1  
    37   31   32 1  
    38   31   36 1  
    39    2   37 1  
    40    4   38 1  
    41    5   39 1  
    42    6   40 1  
    43    7   41 1  
    44    8   42 1  
    45    9   43 1  
    46   10   44 1  
    47   11   45 1  
    48   11   46 1  
    49   12   47 1  
    50   15   48 1  
    51   15   49 1  
    52   15   50 1  
    53   16   51 1  
    54   17   52 1  
    55   18   53 1  
    56   19   54 1  
    57   20   55 1  
    58   21   56 1  
    59   21   57 1  
    60   22   58 1  
    61   24   59 1  
    62   26   60 1  
    63   27   61 1  
    64   28   62 1  
    65   29   63 1  
    66   30   64 1  
    67   31   65 1  
    68   32   66 1  
    69   32   67 1  
    70   32   68 1  
    71   33   69 1  
    72   34   70 1  
    73   35   71 1  
@<TRIPOS>SUBSTRUCTURE
     1 A2G         1

