### 
### Created by X-TOOL on Wed Jan  1 15:39:34 2020
### 

@<TRIPOS>MOLECULE
5t5g_ligand
   72    75     1     0     0
SMALL
GAST_HUCK


@<TRIPOS>ATOM
      1 C4         42.7680   54.3140    1.8190 C.ar      1 75P         0.0078
      2 C5         41.4740   54.8970    1.7780 C.ar      1 75P         0.0266
      3 C6         40.3850   53.9920    1.5040 C.ar      1 75P         0.1241
      4 N1         40.6140   52.7000    1.2660 N.ar      1 75P        -0.2471
      5 N3         42.9830   52.9780    1.5870 N.ar      1 75P        -0.3043
      6 NBA        46.8180   59.2590    1.6050 N.4       1 75P         0.2204
      7 CAZ        46.9910   58.1980    2.6300 C.3       1 75P        -0.0068
      8 CAY        46.0830   57.0420    2.3520 C.3       1 75P         0.1105
      9 OAX        44.7150   57.3990    2.4730 O.3       1 75P        -0.3088
     10 CAW        43.7260   56.4890    2.2360 C.ar      1 75P         0.1282
     11 CAC        42.4450   57.0740    2.1860 C.ar      1 75P         0.1272
     12 OAB        42.4300   58.4260    2.4030 O.3       1 75P        -0.3230
     13 CAA        41.1610   59.0900    2.4560 C.3       1 75P         0.0572
     14 CAD        41.3470   56.3010    1.9610 C.ar      1 75P        -0.0226
     15 CAV        43.8850   55.1420    2.0620 C.ar      1 75P        -0.0244
     16 C2         41.8840   52.2450    1.3110 C.ar      1 75P         0.1559
     17 NBB        42.0660   50.9270    1.0660 N.pl3     1 75P        -0.2823
     18 CBF        40.9690   50.0470    0.6680 C.3       1 75P         0.0331
     19 CBE        41.5380   48.6800    0.8780 C.3       1 75P        -0.0304
     20 CBD        42.9960   48.8370    0.5740 C.3       1 75P        -0.0304
     21 CBC        43.3530   50.2230    1.0510 C.3       1 75P         0.0331
     22 NAG        39.0430   54.4640    1.4830 N.pl3     1 75P        -0.2970
     23 CAH        37.9030   53.6060    1.2100 C.3       1 75P         0.0321
     24 CAI        37.7200   53.4170   -0.2830 C.3       1 75P        -0.0317
     25 CAJ        37.0060   54.5880   -0.9420 C.3       1 75P        -0.0463
     26 CAK        37.8470   55.4150   -1.9040 C.3       1 75P        -0.0124
     27 CAL        37.2640   56.8050   -2.0760 C.3       1 75P        -0.0319
     28 NAM        36.5160   56.9880   -3.3680 N.4       1 75P         0.2352
     29 CAN        36.5910   58.3820   -3.9390 C.3       1 75P        -0.0317
     30 CAQ        35.0400   56.7020   -3.3250 C.3       1 75P        -0.0317
     31 CAP        34.5390   57.3040   -4.6110 C.3       1 75P        -0.0077
     32 CAO        35.3820   58.5350   -4.8350 C.3       1 75P        -0.0077
     33 H1         47.4371   60.0277    1.8094 H         1 75P         0.1995
     34 H2         45.8639   59.5841    1.6156 H         1 75P         0.1995
     35 H3         47.0356   58.8853    0.6945 H         1 75P         0.1995
     36 H4         46.7556   58.6119    3.6216 H         1 75P         0.0840
     37 H5         48.0342   57.8493    2.6164 H         1 75P         0.0840
     38 H6         46.3043   56.2365    3.0677 H         1 75P         0.0669
     39 H7         46.2673   56.6839    1.3284 H         1 75P         0.0669
     40 H8         41.3164   60.1641    2.6355 H         1 75P         0.0573
     41 H9         40.5587   58.6652    3.2726 H         1 75P         0.0573
     42 H10        40.6339   58.9505    1.5006 H         1 75P         0.0573
     43 H11        40.3661   56.7608    1.9210 H         1 75P         0.0541
     44 H12        44.8766   54.7067    2.1111 H         1 75P         0.0461
     45 H13        40.6990   50.2046   -0.3866 H         1 75P         0.0526
     46 H14        40.0840   50.2079    1.3011 H         1 75P         0.0526
     47 H15        41.0730   47.9548    0.1940 H         1 75P         0.0286
     48 H16        41.3896   48.3513    1.9172 H         1 75P         0.0286
     49 H17        43.1769   48.7427   -0.5069 H         1 75P         0.0286
     50 H18        43.5858   48.0802    1.1120 H         1 75P         0.0286
     51 H19        43.7939   50.1898    2.0582 H         1 75P         0.0526
     52 H20        44.0571   50.7071    0.3582 H         1 75P         0.0526
     53 H21        38.8715   55.4622    1.6704 H         1 75P         0.1898
     54 H22        36.9962   54.0660    1.6295 H         1 75P         0.0531
     55 H23        38.0681   52.6255    1.6805 H         1 75P         0.0531
     56 H24        37.1290   52.5048   -0.4521 H         1 75P         0.0286
     57 H25        38.7108   53.3033   -0.7470 H         1 75P         0.0286
     58 H26        36.6470   55.2567   -0.1458 H         1 75P         0.0268
     59 H27        36.1467   54.1891   -1.5010 H         1 75P         0.0268
     60 H28        37.8741   54.9124   -2.8821 H         1 75P         0.0317
     61 H29        38.8693   55.5000   -1.5069 H         1 75P         0.0317
     62 H30        38.0872   57.5339   -2.0445 H         1 75P         0.0814
     63 H31        36.5718   56.9974   -1.2431 H         1 75P         0.0814
     64 H32        36.9382   56.3515   -4.0258 H         1 75P         0.2033
     65 H33        37.5158   58.5065   -4.5215 H         1 75P         0.0814
     66 H34        36.5636   59.1275   -3.1306 H         1 75P         0.0814
     67 H35        34.5697   57.1824   -2.4544 H         1 75P         0.0814
     68 H36        34.8481   55.6193   -3.2946 H         1 75P         0.0814
     69 H37        33.4772   57.5766   -4.5199 H         1 75P         0.0319
     70 H38        34.6655   56.5949   -5.4424 H         1 75P         0.0319
     71 H39        35.6926   58.5988   -5.8883 H         1 75P         0.0319
     72 H40        34.8174   59.4392   -4.5638 H         1 75P         0.0319
@<TRIPOS>BOND
     1    1    2 ar 
     2    1    5 ar 
     3   15    1 ar 
     4    2    3 ar 
     5    2   14 ar 
     6    3    4 ar 
     7    3   22 1  
     8   16    4 ar 
     9    5   16 ar 
    10    7    6 1  
    11    8    7 1  
    12    9    8 1  
    13   10    9 1  
    14   10   11 ar 
    15   10   15 ar 
    16   11   12 1  
    17   11   14 ar 
    18   12   13 1  
    19   16   17 1  
    20   17   18 1  
    21   17   21 1  
    22   18   19 1  
    23   19   20 1  
    24   20   21 1  
    25   22   23 1  
    26   23   24 1  
    27   24   25 1  
    28   25   26 1  
    29   26   27 1  
    30   27   28 1  
    31   28   29 1  
    32   28   30 1  
    33   29   32 1  
    34   30   31 1  
    35   31   32 1  
    36    6   33 1  
    37    6   34 1  
    38    6   35 1  
    39    7   36 1  
    40    7   37 1  
    41    8   38 1  
    42    8   39 1  
    43   13   40 1  
    44   13   41 1  
    45   13   42 1  
    46   14   43 1  
    47   15   44 1  
    48   18   45 1  
    49   18   46 1  
    50   19   47 1  
    51   19   48 1  
    52   20   49 1  
    53   20   50 1  
    54   21   51 1  
    55   21   52 1  
    56   22   53 1  
    57   23   54 1  
    58   23   55 1  
    59   24   56 1  
    60   24   57 1  
    61   25   58 1  
    62   25   59 1  
    63   26   60 1  
    64   26   61 1  
    65   27   62 1  
    66   27   63 1  
    67   28   64 1  
    68   29   65 1  
    69   29   66 1  
    70   30   67 1  
    71   30   68 1  
    72   31   69 1  
    73   31   70 1  
    74   32   71 1  
    75   32   72 1  
@<TRIPOS>SUBSTRUCTURE
     1 75P         1

