### 
### Created by X-TOOL on Mon Sep 10 21:13:28 2018
### 

@<TRIPOS>MOLECULE
5t68_ligand
   40    44     1     0     0
SMALL
GAST_HUCK


@<TRIPOS>ATOM
      1 C6         25.0980   -5.1330   -7.5390 C.ar      1 77V        -0.0523
      2 C1         24.7350   -3.8110   -7.6740 C.ar      1 77V        -0.0373
      3 C18        23.9830    2.6060  -10.7340 C.2       1 77V        -0.0323
      4 C3         26.5260   -3.3190   -9.1970 C.ar      1 77V        -0.0402
      5 C17        24.8300    3.2550  -11.5990 C.2       1 77V         0.0926
      6 C5         26.2090   -5.5400   -8.2630 C.ar      1 77V         0.0368
      7 C11        24.6590    1.4200  -10.3490 C.ar      1 77V         0.0389
      8 C4         26.8940   -4.6390   -9.0520 C.ar      1 77V        -0.0478
      9 C2         25.4040   -2.9220   -8.4890 C.ar      1 77V         0.0630
     10 C10        25.8760    1.4200  -10.9960 C.ar      1 77V         0.1808
     11 C9         26.8960   -6.7690   -8.4320 C.2       1 77V         0.1322
     12 C15        26.7720    0.3820  -10.8480 C.ar      1 77V         0.1508
     13 C13        25.1900   -0.5750   -9.4090 C.ar      1 77V         0.1691
     14 C22        29.3050   -1.5580  -12.8120 C.3       1 77V        -0.0276
     15 C23        27.9720   -2.1390  -12.4500 C.3       1 77V        -0.0276
     16 C21        28.5800   -1.0590  -11.5970 C.3       1 77V         0.0401
     17 C24        26.5500   -8.0600   -7.8150 C.3       1 77V         0.0328
     18 N12        24.2990    0.4200   -9.5190 N.ar      1 77V        -0.2998
     19 N8         27.9410   -6.6590   -9.2610 N.pl3     1 77V        -0.2585
     20 N14        26.3680   -0.6060  -10.0390 N.ar      1 77V        -0.2523
     21 N7         27.9200   -5.3570   -9.6020 N.2       1 77V        -0.3990
     22 N19        24.8750   -1.6210   -8.5250 N.pl3     1 77V        -0.2517
     23 N20        28.0150    0.3000  -11.4960 N.pl3     1 77V        -0.2997
     24 O16        25.9790    2.5410  -11.7620 O.3       1 77V        -0.2484
     25 H1         24.5468   -5.8163   -6.9032 H         1 77V         0.0602
     26 H2         23.8809   -3.4515   -7.1116 H         1 77V         0.0534
     27 H3         22.9963    2.9343  -10.4106 H         1 77V         0.0363
     28 H4         27.0810   -2.6332   -9.8269 H         1 77V         0.0531
     29 H5         24.6139    4.2051  -12.0854 H         1 77V         0.1153
     30 H6         29.4009   -0.9131  -13.6979 H         1 77V         0.0289
     31 H7         30.2170   -2.1624  -12.6979 H         1 77V         0.0289
     32 H8         27.9058   -3.1689  -12.0692 H         1 77V         0.0289
     33 H9         27.0897   -1.9196  -13.0692 H         1 77V         0.0289
     34 H10        28.9702   -1.3310  -10.6052 H         1 77V         0.0559
     35 H11        27.2707   -8.8256   -8.1381 H         1 77V         0.0589
     36 H12        25.5371   -8.3554   -8.1261 H         1 77V         0.0589
     37 H13        26.5837   -7.9637   -6.7198 H         1 77V         0.0589
     38 H14        28.5995   -7.3909   -9.5637 H         1 77V         0.2719
     39 H15        24.1643   -1.4060   -7.8111 H         1 77V         0.2150
     40 H16        28.4971    1.1283  -11.8733 H         1 77V         0.1843
@<TRIPOS>BOND
     1    2    1 ar 
     2    1    6 ar 
     3    9    2 ar 
     4    5    3 2  
     5    7    3 1  
     6    4    8 ar 
     7    9    4 ar 
     8   24    5 1  
     9    8    6 ar 
    10    6   11 2  
    11   10    7 ar 
    12    7   18 ar 
    13    8   21 2  
    14   22    9 1  
    15   12   10 ar 
    16   10   24 1  
    17   11   17 1  
    18   11   19 1  
    19   12   20 ar 
    20   23   12 1  
    21   13   18 ar 
    22   20   13 ar 
    23   13   22 1  
    24   15   14 1  
    25   16   14 1  
    26   16   15 1  
    27   16   23 1  
    28   19   21 1  
    29    1   25 1  
    30    2   26 1  
    31    3   27 1  
    32    4   28 1  
    33    5   29 1  
    34   14   30 1  
    35   14   31 1  
    36   15   32 1  
    37   15   33 1  
    38   16   34 1  
    39   17   35 1  
    40   17   36 1  
    41   17   37 1  
    42   19   38 1  
    43   22   39 1  
    44   23   40 1  
@<TRIPOS>SUBSTRUCTURE
     1 77V         1

