### 
### Created by X-TOOL on Mon Sep 10 21:13:28 2018
### 

@<TRIPOS>MOLECULE
5t6f_ligand
   78    80     1     0     0
SMALL
GAST_HUCK


@<TRIPOS>ATOM
      1 C01         4.3390   59.7860  -13.0800 C.3       1 N38         0.0569
      2 C03         4.4750   61.3390  -11.2570 C.ar      1 N38         0.0794
      3 C04         3.9780   62.4780  -11.8790 C.ar      1 N38        -0.0415
      4 C05         3.3870   63.4930  -11.1340 C.ar      1 N38        -0.0415
      5 C06         3.3050   63.3940   -9.7500 C.ar      1 N38         0.0798
      6 C08         2.1040   65.4890   -9.6460 C.3       1 N38         0.0695
      7 C09         1.9860   66.6920   -8.7020 C.3       1 N38        -0.0043
      8 C10         3.2420   67.5670   -8.8210 C.3       1 N38         0.0870
      9 C13         6.0340   69.2940   -6.4440 C.3       1 N38         0.1262
     10 C14         7.1590   70.1600   -6.9170 C.3       1 N38        -0.0131
     11 C15         7.9460   69.5690   -8.1000 C.3       1 N38        -0.0372
     12 C16         8.6230   68.3020   -7.5990 C.3       1 N38        -0.0500
     13 C17         9.6970   67.7940   -8.5390 C.3       1 N38        -0.0528
     14 C18        10.7060   68.8870   -8.8740 C.3       1 N38        -0.0530
     15 C19        10.0230   70.1510   -9.3970 C.3       1 N38        -0.0528
     16 C20         8.9540   70.6520   -8.4530 C.3       1 N38        -0.0500
     17 C21         5.5910   69.8520   -5.0760 C.2       1 N38         0.1981
     18 C23         5.7200   69.7400   -2.5290 C.3       1 N38         0.0674
     19 C24         4.9570   68.6310   -1.7590 C.3       1 N38        -0.0079
     20 C25         3.5950   68.2310   -2.3970 C.3       1 N38         0.0526
     21 C26         2.8870   67.3760   -1.7040 C.2       1 N38         0.1792
     22 C28         1.4310   69.1710   -2.6350 C.3       1 N38         0.0332
     23 C29         2.6510   69.5900   -2.5420 C.3       1 N38        -0.0129
     24 C31         7.0040   70.1380   -1.8000 C.3       1 N38         0.0673
     25 C36         3.8120   62.2590   -9.1400 C.ar      1 N38        -0.0415
     26 C37         4.3920   61.2300   -9.8810 C.ar      1 N38        -0.0415
     27 N12         4.9640   69.4040   -7.4120 N.am      1 N38        -0.2299
     28 N22         6.1170   69.2320   -3.8420 N.am      1 N38        -0.2800
     29 N27         1.3790   67.8650   -1.7900 N.am      1 N38        -0.2866
     30 O02         5.0880   60.3170  -12.0190 O.3       1 N38        -0.3284
     31 O07         2.7150   64.4190   -8.9530 O.3       1 N38        -0.3252
     32 O30         3.2300   66.3830   -1.1550 O.2       1 N38        -0.3968
     33 O32         7.5920   71.1930   -2.5020 O.3       1 N38        -0.3927
     34 O33         4.8760   70.7900   -5.0380 O.2       1 N38        -0.3950
     35 O34         3.7360   67.4520   -6.1950 O.2       1 N38        -0.1554
     36 O35         2.3840   69.2240   -6.9100 O.2       1 N38        -0.1554
     37 S11         3.5540   68.4350   -7.2620 S.o2      1 N38         0.0413
     38 H1          4.9249   59.0059  -13.5881 H         1 N38         0.0573
     39 H2          4.0968   60.5865  -13.7946 H         1 N38         0.0573
     40 H3          3.4081   59.3493  -12.6892 H         1 N38         0.0573
     41 H4          4.0517   62.5764  -12.9560 H         1 N38         0.0516
     42 H5          2.9878   64.3669  -11.6360 H         1 N38         0.0516
     43 H6          2.7175   65.7624  -10.5171 H         1 N38         0.0610
     44 H7          1.1021   65.1855   -9.9838 H         1 N38         0.0610
     45 H8          1.8852   66.3357   -7.6662 H         1 N38         0.0307
     46 H9          1.1002   67.2848   -8.9738 H         1 N38         0.0307
     47 H10         3.0956   68.3046   -9.6239 H         1 N38         0.0519
     48 H11         4.1063   66.9304   -9.0610 H         1 N38         0.0519
     49 H12         6.3543   68.2462   -6.3465 H         1 N38         0.0753
     50 H13         7.8553   70.3116   -6.0791 H         1 N38         0.0311
     51 H14         6.7427   71.1295   -7.2279 H         1 N38         0.0311
     52 H15         7.2944   69.3427   -8.9568 H         1 N38         0.0303
     53 H16         7.8594   67.5187   -7.4831 H         1 N38         0.0268
     54 H17         9.0831   68.5130   -6.6224 H         1 N38         0.0268
     55 H18         9.2235   67.4469   -9.4692 H         1 N38         0.0265
     56 H19        10.2238   66.9552   -8.0606 H         1 N38         0.0265
     57 H20        11.3957   68.5108   -9.6439 H         1 N38         0.0265
     58 H21        11.2727   69.1388   -7.9655 H         1 N38         0.0265
     59 H22         9.5607   69.9277  -10.3698 H         1 N38         0.0265
     60 H23        10.7815   70.9376   -9.5234 H         1 N38         0.0265
     61 H24         9.4346   71.0037   -7.5282 H         1 N38         0.0268
     62 H25         8.4228   71.4882   -8.9311 H         1 N38         0.0268
     63 H26         5.0682   70.6187   -2.6428 H         1 N38         0.0580
     64 H27         4.7666   68.9897   -0.7367 H         1 N38         0.0315
     65 H28         5.5956   67.7362   -1.7206 H         1 N38         0.0315
     66 H29         3.7939   67.8025   -3.3904 H         1 N38         0.0539
     67 H30         1.1746   68.9615   -3.6840 H         1 N38         0.0521
     68 H31         0.7346   69.9199   -2.2298 H         1 N38         0.0521
     69 H32         2.9305   70.1546   -3.4437 H         1 N38         0.0312
     70 H33         2.7676   70.2321   -1.6565 H         1 N38         0.0312
     71 H34         7.6942   69.2822   -1.7661 H         1 N38         0.0580
     72 H35         6.7668   70.4586   -0.7749 H         1 N38         0.0580
     73 H36         3.7567   62.1683   -8.0612 H         1 N38         0.0516
     74 H37         4.7761   60.3485   -9.3806 H         1 N38         0.0516
     75 H38         5.0460   70.0479   -8.1727 H         1 N38         0.1702
     76 H39         6.7489   68.4595   -3.9050 H         1 N38         0.1855
     77 H40         0.5729   67.4296   -1.3893 H         1 N38         0.1851
     78 H41         7.7913   70.9109   -3.3870 H         1 N38         0.2095
@<TRIPOS>BOND
     1   30    1 1  
     2    3    2 ar 
     3   26    2 ar 
     4    2   30 1  
     5    4    3 ar 
     6    5    4 ar 
     7    5   25 ar 
     8   31    5 1  
     9    7    6 1  
    10    6   31 1  
    11    8    7 1  
    12   37    8 1  
    13    9   10 1  
    14    9   17 1  
    15   27    9 1  
    16   10   11 1  
    17   11   12 1  
    18   11   16 1  
    19   12   13 1  
    20   13   14 1  
    21   15   14 1  
    22   16   15 1  
    23   17   28 am 
    24   17   34 2  
    25   18   19 1  
    26   18   24 1  
    27   28   18 1  
    28   19   20 1  
    29   20   21 1  
    30   20   23 1  
    31   21   29 am 
    32   21   32 2  
    33   23   22 1  
    34   22   29 1  
    35   24   33 1  
    36   25   26 ar 
    37   27   37 am 
    38   37   35 2  
    39   37   36 2  
    40    1   38 1  
    41    1   39 1  
    42    1   40 1  
    43    3   41 1  
    44    4   42 1  
    45    6   43 1  
    46    6   44 1  
    47    7   45 1  
    48    7   46 1  
    49    8   47 1  
    50    8   48 1  
    51    9   49 1  
    52   10   50 1  
    53   10   51 1  
    54   11   52 1  
    55   12   53 1  
    56   12   54 1  
    57   13   55 1  
    58   13   56 1  
    59   14   57 1  
    60   14   58 1  
    61   15   59 1  
    62   15   60 1  
    63   16   61 1  
    64   16   62 1  
    65   18   63 1  
    66   19   64 1  
    67   19   65 1  
    68   20   66 1  
    69   22   67 1  
    70   22   68 1  
    71   23   69 1  
    72   23   70 1  
    73   24   71 1  
    74   24   72 1  
    75   25   73 1  
    76   26   74 1  
    77   27   75 1  
    78   28   76 1  
    79   29   77 1  
    80   33   78 1  
@<TRIPOS>SUBSTRUCTURE
     1 N38         1

