### 
### Created by X-TOOL on Mon Sep 10 21:13:28 2018
### 

@<TRIPOS>MOLECULE
5t6g_ligand
   78    79     1     0     0
SMALL
GAST_HUCK


@<TRIPOS>ATOM
      1 C03         9.6190    7.8590   -8.8460 C.3       1 N40         0.0846
      2 C04         9.0900    6.8600   -9.8700 C.3       1 N40        -0.0319
      3 C05         7.6040    7.0260  -10.1480 C.3       1 N40        -0.0515
      4 C06         6.8560    5.7020  -10.2890 C.3       1 N40        -0.0530
      5 C07         5.3970    5.9220  -10.7240 C.3       1 N40        -0.0531
      6 C08         4.5210    4.6790  -10.6000 C.3       1 N40        -0.0533
      7 C09         3.2240    4.8360  -11.3800 C.3       1 N40        -0.0559
      8 C10         2.1670    3.8070  -10.9990 C.3       1 N40        -0.0653
      9 C12         9.5990   11.9070   -8.5720 C.3       1 N40         0.1262
     10 C13         9.4690   12.7170   -7.2960 C.3       1 N40        -0.0131
     11 C14         8.5500   12.0870   -6.2650 C.3       1 N40        -0.0372
     12 C15         7.1420   12.0100   -6.8520 C.3       1 N40        -0.0500
     13 C16         6.0900   11.6330   -5.8050 C.3       1 N40        -0.0528
     14 C17         6.1860   12.5020   -4.5500 C.3       1 N40        -0.0530
     15 C18         7.5940   12.5310   -3.9670 C.3       1 N40        -0.0528
     16 C19         8.6280   12.9550   -5.0010 C.3       1 N40        -0.0500
     17 C20        10.3800   12.7420   -9.5720 C.2       1 N40         0.1981
     18 C22        10.2610   14.3930  -11.4470 C.3       1 N40         0.0674
     19 C23         9.8270   13.8860  -12.8310 C.3       1 N40        -0.0079
     20 C24        10.1370   12.4110  -13.1150 C.3       1 N40         0.0526
     21 C25         9.9520   12.1040  -14.5360 C.2       1 N40         0.1792
     22 C27        11.9340   10.9460  -13.8300 C.3       1 N40         0.0332
     23 C28        11.5730   12.0410  -12.7880 C.3       1 N40        -0.0129
     24 C30         9.8720   15.8650  -11.3110 C.3       1 N40         0.0673
     25 N11        10.2330   10.6260   -8.3420 N.am      1 N40        -0.2299
     26 N21         9.5940   13.5840  -10.4530 N.am      1 N40        -0.2800
     27 N26        11.0750   11.1810  -14.9610 N.am      1 N40        -0.2866
     28 O01         9.3180    9.9300  -10.6700 O.2       1 N40        -0.1554
     29 O29         9.0690   12.5220  -15.2150 O.2       1 N40        -0.3968
     30 O31        10.3710   16.3490  -10.1070 O.3       1 N40        -0.3927
     31 O32        11.5610   12.7050   -9.6290 O.2       1 N40        -0.3950
     32 O33        11.4300    9.2730  -10.1830 O.2       1 N40        -0.1554
     33 S02        10.1370    9.4440   -9.5610 S.o2      1 N40         0.0412
     34 H1         10.4851    7.4088   -8.3389 H         1 N40         0.0518
     35 H2          8.8244    8.0544   -8.1109 H         1 N40         0.0518
     36 H3          9.2641    5.8426   -9.4898 H         1 N40         0.0281
     37 H4          9.6406    6.9986  -10.8121 H         1 N40         0.0281
     38 H5          7.4865    7.5929  -11.0833 H         1 N40         0.0266
     39 H6          7.1560    7.5916   -9.3177 H         1 N40         0.0266
     40 H7          6.8654    5.1813   -9.3201 H         1 N40         0.0265
     41 H8          7.3642    5.0829  -11.0430 H         1 N40         0.0265
     42 H9          5.3939    6.2443  -11.7757 H         1 N40         0.0265
     43 H10         4.9641    6.7148  -10.0962 H         1 N40         0.0265
     44 H11         4.2830    4.5128   -9.5390 H         1 N40         0.0265
     45 H12         5.0722    3.8117  -10.9924 H         1 N40         0.0265
     46 H13         3.4455    4.7292  -12.4521 H         1 N40         0.0263
     47 H14         2.8195    5.8406  -11.1874 H         1 N40         0.0263
     48 H15         1.2590    3.9756  -11.5966 H         1 N40         0.0230
     49 H16         1.9263    3.9070   -9.9303 H         1 N40         0.0230
     50 H17         2.5524    2.7956  -11.1951 H         1 N40         0.0230
     51 H18         8.5927   11.7199   -8.9749 H         1 N40         0.0753
     52 H19         9.0727   13.7102   -7.5538 H         1 N40         0.0311
     53 H20        10.4687   12.8256   -6.8500 H         1 N40         0.0311
     54 H21         8.8921   11.0693   -6.0258 H         1 N40         0.0303
     55 H22         7.1332   11.2524   -7.6495 H         1 N40         0.0268
     56 H23         6.8822   12.9914   -7.2756 H         1 N40         0.0268
     57 H24         6.2359   10.5809   -5.5192 H         1 N40         0.0265
     58 H25         5.0903   11.7578   -6.2465 H         1 N40         0.0265
     59 H26         5.4979   12.1023   -3.7906 H         1 N40         0.0265
     60 H27         5.8900   13.5294   -4.8087 H         1 N40         0.0265
     61 H28         7.8484   11.5252   -3.6015 H         1 N40         0.0265
     62 H29         7.6171   13.2426   -3.1285 H         1 N40         0.0265
     63 H30         8.4479   14.0045   -5.2767 H         1 N40         0.0268
     64 H31         9.6322   12.8582   -4.5625 H         1 N40         0.0268
     65 H32        11.3505   14.2923  -11.3338 H         1 N40         0.0580
     66 H33        10.3392   14.4935  -13.5916 H         1 N40         0.0315
     67 H34         8.7398   14.0280  -12.9195 H         1 N40         0.0315
     68 H35         9.4567   11.7921  -12.5116 H         1 N40         0.0539
     69 H36        11.7516    9.9449  -13.4122 H         1 N40         0.0521
     70 H37        12.9897   11.0328  -14.1265 H         1 N40         0.0521
     71 H38        11.6501   11.6455  -11.7645 H         1 N40         0.0312
     72 H39        12.2342   12.9136  -12.8947 H         1 N40         0.0312
     73 H40         8.7763   15.9608  -11.3226 H         1 N40         0.0580
     74 H41        10.2992   16.4394  -12.1462 H         1 N40         0.0580
     75 H42        10.7161   10.4405   -7.4863 H         1 N40         0.1702
     76 H43         8.5974   13.6045  -10.3731 H         1 N40         0.1855
     77 H44        11.1993   10.7980  -15.8763 H         1 N40         0.1851
     78 H45        10.0012   15.8494   -9.3885 H         1 N40         0.2095
@<TRIPOS>BOND
     1    1    2 1  
     2   33    1 1  
     3    2    3 1  
     4    3    4 1  
     5    4    5 1  
     6    5    6 1  
     7    6    7 1  
     8    7    8 1  
     9    9   10 1  
    10    9   17 1  
    11   25    9 1  
    12   10   11 1  
    13   11   12 1  
    14   11   16 1  
    15   12   13 1  
    16   13   14 1  
    17   15   14 1  
    18   16   15 1  
    19   17   26 am 
    20   17   31 2  
    21   18   19 1  
    22   18   24 1  
    23   26   18 1  
    24   19   20 1  
    25   20   21 1  
    26   20   23 1  
    27   21   27 am 
    28   21   29 2  
    29   23   22 1  
    30   22   27 1  
    31   24   30 1  
    32   25   33 am 
    33   33   28 2  
    34   33   32 2  
    35    1   34 1  
    36    1   35 1  
    37    2   36 1  
    38    2   37 1  
    39    3   38 1  
    40    3   39 1  
    41    4   40 1  
    42    4   41 1  
    43    5   42 1  
    44    5   43 1  
    45    6   44 1  
    46    6   45 1  
    47    7   46 1  
    48    7   47 1  
    49    8   48 1  
    50    8   49 1  
    51    8   50 1  
    52    9   51 1  
    53   10   52 1  
    54   10   53 1  
    55   11   54 1  
    56   12   55 1  
    57   12   56 1  
    58   13   57 1  
    59   13   58 1  
    60   14   59 1  
    61   14   60 1  
    62   15   61 1  
    63   15   62 1  
    64   16   63 1  
    65   16   64 1  
    66   18   65 1  
    67   19   66 1  
    68   19   67 1  
    69   20   68 1  
    70   22   69 1  
    71   22   70 1  
    72   23   71 1  
    73   23   72 1  
    74   24   73 1  
    75   24   74 1  
    76   25   75 1  
    77   26   76 1  
    78   27   77 1  
    79   30   78 1  
@<TRIPOS>SUBSTRUCTURE
     1 N40         1

