### 
### Created by X-TOOL on Mon Sep 10 21:13:34 2018
### 

@<TRIPOS>MOLECULE
5t6p_ligand
   91    92     1     0     0
SMALL
GAST_HUCK


@<TRIPOS>ATOM
      1 N          73.9950   58.7700   50.5510 N.4       1 ASP         0.2391
      2 CA         73.3180   59.5250   51.5980 C.3       1 ASP         0.0764
      3 C          72.1430   60.3090   51.0270 C.2       1 ASP         0.2285
      4 O          71.9880   61.5020   51.2700 O.2       1 ASP        -0.3906
      5 CB         74.3080   60.4660   52.2860 C.3       1 ASP         0.0607
      6 CG         75.3450   61.0020   51.3300 C.2       1 ASP         0.0425
      7 OD1        75.2220   60.7330   50.1190 O.co2     1 ASP        -0.5686
      8 OD2        76.2780   61.6950   51.7880 O.co2     1 ASP        -0.5686
      9 N          71.3130   59.6230   50.2520 N.am      1 THR        -0.2585
     10 CA         70.0530   60.1950   49.8160 C.3       1 THR         0.1566
     11 C          69.0540   60.1500   50.9650 C.2       1 THR         0.2065
     12 O          69.1480   59.3070   51.8600 O.2       1 THR        -0.3943
     13 CB         69.5240   59.4180   48.6130 C.3       1 THR         0.0924
     14 OG1        69.3800   58.0370   48.9650 O.3       1 THR        -0.3874
     15 CG2        70.5070   59.5360   47.4590 C.3       1 THR        -0.0346
     16 N          68.0930   61.0630   50.9460 N.am      1 ARG        -0.2636
     17 CA         67.1180   61.0830   52.0230 C.3       1 ARG         0.1313
     18 C          66.3250   59.7800   52.0040 C.2       1 ARG         0.2064
     19 O          65.8130   59.3870   50.9460 O.2       1 ARG        -0.3942
     20 CB         66.1640   62.2660   51.8990 C.3       1 ARG        -0.0092
     21 CG         65.4210   62.5590   53.1960 C.3       1 ARG        -0.0156
     22 CD         64.1440   63.3180   52.9190 C.3       1 ARG         0.0627
     23 NE         64.4290   64.6540   52.4100 N.pl3     1 ARG        -0.2723
     24 CZ         63.5980   65.3670   51.6580 C.cat     1 ARG         0.2882
     25 NH1        62.4130   64.8760   51.3130 N.pl3     1 ARG        -0.2849
     26 NH2        63.9580   66.5740   51.2430 N.pl3     1 ARG        -0.2849
     27 N          66.1810   59.0960   53.1360 N.am      1 PRO        -0.2498
     28 CA         65.4060   57.8530   53.1420 C.3       1 PRO         0.1338
     29 C          63.9160   58.0990   52.9540 C.2       1 PRO         0.2041
     30 O          63.3740   59.1470   53.3150 O.2       1 PRO        -0.3944
     31 CB         65.7050   57.2610   54.5220 C.3       1 PRO        -0.0104
     32 CG         65.9910   58.4430   55.3660 C.3       1 PRO        -0.0281
     33 CD         66.7450   59.3830   54.4660 C.3       1 PRO         0.0369
     34 N          63.2550   57.1010   52.3810 N.am      1 ALA        -0.2640
     35 CA         61.8200   57.1540   52.1830 C.3       1 ALA         0.1283
     36 C          61.0960   57.0690   53.5260 C.2       1 ALA         0.2056
     37 O          61.6350   56.5340   54.4970 O.2       1 ALA        -0.3942
     38 CB         61.3740   56.0090   51.2830 C.3       1 ALA        -0.0244
     39 N          59.8710   57.6080   53.6170 N.am      1 PRO        -0.2556
     40 CA         59.1400   57.5170   54.8830 C.3       1 PRO         0.0972
     41 C          58.6190   56.1220   55.2130 C.2       1 PRO         0.0603
     42 O          58.3760   55.3370   54.2960 O.co2     1 PRO        -0.5666
     43 CB         57.9940   58.5030   54.6670 C.3       1 PRO        -0.0159
     44 CG         57.7290   58.4450   53.2230 C.3       1 PRO        -0.0288
     45 CD         59.1140   58.3920   52.6270 C.3       1 PRO         0.0362
     46 OXT        58.4500   55.8050   56.3910 O.co2     1 PRO        -0.5666
     47 H1         74.7673   58.2600   50.9504 H         1 ASP         0.2016
     48 H2         74.3394   59.4050   49.8480 H         1 ASP         0.2016
     49 H3         73.3466   58.1228   50.1306 H         1 ASP         0.2016
     50 H4         72.9317   58.8163   52.3453 H         1 ASP         0.1117
     51 H5         74.8186   59.9162   53.0903 H         1 ASP         0.0512
     52 H6         73.7519   61.3121   52.7159 H         1 ASP         0.0512
     53 H7         71.5596   58.6977   49.9640 H         1 THR         0.1885
     54 H8         70.2139   61.2426   49.5218 H         1 THR         0.0826
     55 H9         68.5485   59.8266   48.3106 H         1 THR         0.0639
     56 H10        68.7692   57.9577   49.6883 H         1 THR         0.2101
     57 H11        70.1247   58.9758   46.5930 H         1 THR         0.0257
     58 H12        71.4801   59.1226   47.7625 H         1 THR         0.0257
     59 H13        70.6273   60.5949   47.1866 H         1 THR         0.0257
     60 H14        68.0399   61.7282   50.2013 H         1 ARG         0.1883
     61 H15        67.6532   61.1640   52.9806 H         1 ARG         0.0800
     62 H16        65.4268   62.0431   51.1136 H         1 ARG         0.0313
     63 H17        66.7432   63.1573   51.6160 H         1 ARG         0.0313
     64 H18        66.0647   63.1625   53.8527 H         1 ARG         0.0301
     65 H19        65.1760   61.6095   53.6945 H         1 ARG         0.0301
     66 H20        63.5674   63.4041   53.8518 H         1 ARG         0.0689
     67 H21        63.5532   62.7673   52.1722 H         1 ARG         0.0689
     68 H22        65.3381   65.0744   52.6502 H         1 ARG         0.2642
     69 H23        61.7740   65.4348   50.7297 H         1 ARG         0.2615
     70 H24        62.1331   63.9364   51.6288 H         1 ARG         0.2615
     71 H25        64.8763   66.9574   51.5089 H         1 ARG         0.2615
     72 H26        63.3193   67.1281   50.6548 H         1 ARG         0.2615
     73 H27        65.7570   57.1784   52.3472 H         1 PRO         0.0802
     74 H28        66.5765   56.5912   54.4794 H         1 PRO         0.0313
     75 H29        64.8356   56.7075   54.9065 H         1 PRO         0.0313
     76 H30        66.6055   58.1604   56.2335 H         1 PRO         0.0287
     77 H31        65.0560   58.9061   55.7142 H         1 PRO         0.0287
     78 H32        66.5686   60.4304   54.7522 H         1 PRO         0.0524
     79 H33        67.8244   59.1729   54.4910 H         1 PRO         0.0524
     80 H34        63.7594   56.2923   52.0783 H         1 ALA         0.1883
     81 H35        61.5632   58.1083   51.6999 H         1 ALA         0.0797
     82 H36        60.2845   56.0585   51.1394 H         1 ALA         0.0277
     83 H37        61.6388   55.0497   51.7516 H         1 ALA         0.0277
     84 H38        61.8765   56.0919   50.3080 H         1 ALA         0.0277
     85 H39        59.7832   57.8477   55.7118 H         1 PRO         0.0728
     86 H40        58.2922   59.5183   54.9675 H         1 PRO         0.0306
     87 H41        57.1050   58.1977   55.2384 H         1 PRO         0.0306
     88 H42        57.1865   59.3399   52.8841 H         1 PRO         0.0286
     89 H43        57.1517   57.5457   52.9626 H         1 PRO         0.0286
     90 H44        59.1043   57.8895   51.6485 H         1 PRO         0.0524
     91 H45        59.5356   59.4019   52.5164 H         1 PRO         0.0524
@<TRIPOS>BOND
     1    1    2 1  
     2    2    3 1  
     3    2    5 1  
     4    3    4 2  
     5    3    9 am 
     6    5    6 1  
     7    6    7 ar 
     8    6    8 ar 
     9    9   10 1  
    10   10   11 1  
    11   10   13 1  
    12   11   12 2  
    13   11   16 am 
    14   13   14 1  
    15   13   15 1  
    16   16   17 1  
    17   17   18 1  
    18   17   20 1  
    19   18   19 2  
    20   18   27 am 
    21   20   21 1  
    22   21   22 1  
    23   22   23 1  
    24   23   24 ar 
    25   24   25 ar 
    26   24   26 ar 
    27   27   28 1  
    28   27   33 1  
    29   28   29 1  
    30   28   31 1  
    31   29   30 2  
    32   29   34 am 
    33   31   32 1  
    34   32   33 1  
    35   34   35 1  
    36   35   36 1  
    37   35   38 1  
    38   36   37 2  
    39   36   39 am 
    40   39   40 1  
    41   39   45 1  
    42   40   41 1  
    43   40   43 1  
    44   41   42 ar 
    45   41   46 ar 
    46   43   44 1  
    47   44   45 1  
    48    1   47 1  
    49    1   48 1  
    50    1   49 1  
    51    2   50 1  
    52    5   51 1  
    53    5   52 1  
    54    9   53 1  
    55   10   54 1  
    56   13   55 1  
    57   14   56 1  
    58   15   57 1  
    59   15   58 1  
    60   15   59 1  
    61   16   60 1  
    62   17   61 1  
    63   20   62 1  
    64   20   63 1  
    65   21   64 1  
    66   21   65 1  
    67   22   66 1  
    68   22   67 1  
    69   23   68 1  
    70   25   69 1  
    71   25   70 1  
    72   26   71 1  
    73   26   72 1  
    74   28   73 1  
    75   31   74 1  
    76   31   75 1  
    77   32   76 1  
    78   32   77 1  
    79   33   78 1  
    80   33   79 1  
    81   34   80 1  
    82   35   81 1  
    83   38   82 1  
    84   38   83 1  
    85   38   84 1  
    86   40   85 1  
    87   43   86 1  
    88   43   87 1  
    89   44   88 1  
    90   44   89 1  
    91   45   90 1  
    92   45   91 1  
@<TRIPOS>SUBSTRUCTURE
     1 ASP         1

