### 
### Created by X-TOOL on Mon Sep 10 21:13:32 2018
### 

@<TRIPOS>MOLECULE
5t78_ligand
  105   107     1     0     0
SMALL
GAST_HUCK


@<TRIPOS>ATOM
      1 N          24.6540   12.4840   23.1440 N.4       1 PRO         0.2461
      2 CA         24.5230   12.3210   24.5990 C.3       1 PRO         0.0670
      3 C          23.5690   13.3340   25.2270 C.2       1 PRO         0.2269
      4 O          22.6110   12.9530   25.9040 O.2       1 PRO        -0.3907
      5 CB         25.9620   12.5040   25.1160 C.3       1 PRO         0.0127
      6 CG         26.7820   12.9900   23.9380 C.3       1 PRO        -0.0053
      7 CD         25.8490   13.2650   22.7870 C.3       1 PRO        -0.0313
      8 N          23.8170   14.6180   24.9880 N.am      1 ASP        -0.2595
      9 CA         22.9760   15.6580   25.5550 C.3       1 ASP         0.1424
     10 C          21.8730   16.0830   24.6140 C.2       1 ASP         0.2057
     11 O          20.8680   16.6390   25.0690 O.2       1 ASP        -0.3943
     12 CB         23.8090   16.9060   25.8180 C.3       1 ASP         0.0406
     13 CG         24.6350   16.7990   27.0540 C.2       1 ASP         0.0393
     14 OD1        24.3540   15.8800   27.8540 O.co2     1 ASP        -0.5688
     15 OD2        25.5520   17.6420   27.2350 O.co2     1 ASP        -0.5688
     16 N          22.0200   15.7840   23.3300 N.am      1 THR        -0.2612
     17 CA         21.0190   16.1550   22.3540 C.3       1 THR         0.1565
     18 C          19.7190   15.4150   22.6190 C.2       1 THR         0.2065
     19 O          19.7050   14.2840   23.1160 O.2       1 THR        -0.3943
     20 CB         21.5100   15.8310   20.9550 C.3       1 THR         0.0924
     21 OG1        21.8200   14.4380   20.8960 O.3       1 THR        -0.3874
     22 CG2        22.7470   16.6210   20.6400 C.3       1 THR        -0.0346
     23 N          18.6250   16.0920   22.3110 N.am      1 ARG        -0.2636
     24 CA         17.3040   15.5030   22.4360 C.3       1 ARG         0.1313
     25 C          17.1360   14.4000   21.4010 C.2       1 ARG         0.2064
     26 O          17.3330   14.6510   20.2040 O.2       1 ARG        -0.3942
     27 CB         16.2380   16.5720   22.2550 C.3       1 ARG        -0.0092
     28 CG         14.8630   16.0440   22.4920 C.3       1 ARG        -0.0156
     29 CD         13.8800   17.1320   22.8230 C.3       1 ARG         0.0627
     30 NE         13.4670   17.8510   21.6280 N.pl3     1 ARG        -0.2723
     31 CZ         13.4410   19.1650   21.4910 C.cat     1 ARG         0.2882
     32 NH1        13.7690   19.9810   22.4760 N.pl3     1 ARG        -0.2849
     33 NH2        13.0730   19.6720   20.3470 N.pl3     1 ARG        -0.2849
     34 N          16.7430   13.1870   21.7980 N.am      1 PRO        -0.2498
     35 CA         16.6660   12.0930   20.8310 C.3       1 PRO         0.1338
     36 C          15.5820   12.3210   19.8010 C.2       1 PRO         0.2041
     37 O          14.6050   13.0420   20.0300 O.2       1 PRO        -0.3944
     38 CB         16.3610   10.8590   21.6870 C.3       1 PRO        -0.0104
     39 CG         15.7460   11.3640   22.8960 C.3       1 PRO        -0.0281
     40 CD         16.3760   12.7270   23.1490 C.3       1 PRO         0.0369
     41 N          15.7860   11.6910   18.6530 N.am      1 ALA        -0.2640
     42 CA         14.8670   11.8210   17.5530 C.3       1 ALA         0.1283
     43 C          13.5640   11.1050   17.8930 C.2       1 ALA         0.2056
     44 O          13.5550   10.1610   18.6910 O.2       1 ALA        -0.3942
     45 CB         15.4790   11.2380   16.2820 C.3       1 ALA        -0.0244
     46 N          12.4440   11.5520   17.3220 N.am      1 PRO        -0.2556
     47 CA         11.1200   10.9880   17.6050 C.3       1 PRO         0.0972
     48 C          11.0170    9.5000   17.3280 C.2       1 PRO         0.0603
     49 O          11.4050    9.1610   16.2180 O.co2     1 PRO        -0.5666
     50 CB         10.2060   11.7610   16.6580 C.3       1 PRO        -0.0159
     51 CG         10.9230   13.0140   16.3710 C.3       1 PRO        -0.0288
     52 CD         12.3670   12.6840   16.3790 C.3       1 PRO         0.0362
     53 OXT        10.5600    8.8410   18.2520 O.co2     1 PRO        -0.5666
     54 H1         23.8370   12.9595   22.7941 H         1 PRO         0.2035
     55 H2         24.7206   11.5728   22.7183 H         1 PRO         0.2035
     56 H3         24.1598   11.3094   24.8328 H         1 PRO         0.1099
     57 H4         26.3579   11.5467   25.4858 H         1 PRO         0.0347
     58 H5         25.9833   13.2473   25.9266 H         1 PRO         0.0347
     59 H6         27.5102   12.2179   23.6490 H         1 PRO         0.0320
     60 H7         27.3149   13.9124   24.2122 H         1 PRO         0.0320
     61 H8         25.6147   14.3373   22.7141 H         1 PRO         0.0814
     62 H9         26.2797   12.9183   21.8361 H         1 PRO         0.0814
     63 H10        24.5929   14.8713   24.4102 H         1 ASP         0.1886
     64 H11        22.5383   15.2895   26.4945 H         1 ASP         0.0819
     65 H12        23.1308   17.7658   25.9219 H         1 ASP         0.0478
     66 H13        24.4788   17.0687   24.9607 H         1 ASP         0.0478
     67 H14        22.8382   15.2929   23.0312 H         1 THR         0.1884
     68 H15        20.8353   17.2370   22.4277 H         1 THR         0.0826
     69 H16        20.7247   16.0709   20.2231 H         1 THR         0.0639
     70 H17        21.0399   13.9326   21.0919 H         1 THR         0.2101
     71 H18        23.0901   16.3754   19.6241 H         1 THR         0.0257
     72 H19        23.5363   16.3706   21.3641 H         1 THR         0.0257
     73 H20        22.5211   17.6958   20.7009 H         1 THR         0.0257
     74 H21        18.7101   17.0331   21.9838 H         1 ARG         0.1883
     75 H22        17.2008   15.0667   23.4405 H         1 ARG         0.0800
     76 H23        16.2961   16.9595   21.2272 H         1 ARG         0.0313
     77 H24        16.4311   17.3886   22.9662 H         1 ARG         0.0313
     78 H25        14.8975   15.3324   23.3301 H         1 ARG         0.0301
     79 H26        14.5226   15.5249   21.5839 H         1 ARG         0.0301
     80 H27        14.3499   17.8391   23.5224 H         1 ARG         0.0689
     81 H28        12.9939   16.6831   23.2955 H         1 ARG         0.0689
     82 H29        13.1692   17.2874   20.8189 H         1 ARG         0.2642
     83 H30        13.7369   21.0005   22.3326 H         1 ARG         0.2615
     84 H31        14.0570   19.5980   23.3878 H         1 ARG         0.2615
     85 H32        12.8137   19.0504   19.5677 H         1 ARG         0.2615
     86 H33        13.0417   20.6940   20.2228 H         1 ARG         0.2615
     87 H34        17.6294   11.9735   20.3137 H         1 PRO         0.0802
     88 H35        17.2890   10.3186   21.9255 H         1 PRO         0.0313
     89 H36        15.6705   10.1860   21.1576 H         1 PRO         0.0313
     90 H37        15.9480   10.6871   23.7392 H         1 PRO         0.0287
     91 H38        14.6593   11.4647   22.7588 H         1 PRO         0.0287
     92 H39        15.6550   13.4136   23.6167 H         1 PRO         0.0524
     93 H40        17.2655   12.6370   23.7898 H         1 PRO         0.0524
     94 H41        16.5955   11.1132   18.5489 H         1 ALA         0.1883
     95 H42        14.6557   12.8877   17.3874 H         1 ALA         0.0797
     96 H43        14.7669   11.3438   15.4503 H         1 ALA         0.0277
     97 H44        15.7041   10.1727   16.4386 H         1 ALA         0.0277
     98 H45        16.4069   11.7773   16.0411 H         1 ALA         0.0277
     99 H46        10.8457   11.1731   18.6540 H         1 PRO         0.0728
    100 H47         9.2395   11.9707   17.1395 H         1 PRO         0.0306
    101 H48        10.0384   11.1912   15.7321 H         1 PRO         0.0306
    102 H49        10.7006   13.7646   17.1437 H         1 PRO         0.0286
    103 H50        10.6278   13.4036   15.3856 H         1 PRO         0.0286
    104 H51        12.7102   12.3877   15.3768 H         1 PRO         0.0524
    105 H52        12.9651   13.5360   16.7345 H         1 PRO         0.0524
@<TRIPOS>BOND
     1    1    2 1  
     2    1    7 1  
     3    2    3 1  
     4    2    5 1  
     5    3    4 2  
     6    3    8 am 
     7    5    6 1  
     8    6    7 1  
     9    8    9 1  
    10    9   10 1  
    11    9   12 1  
    12   10   11 2  
    13   10   16 am 
    14   12   13 1  
    15   13   14 ar 
    16   13   15 ar 
    17   16   17 1  
    18   17   18 1  
    19   17   20 1  
    20   18   19 2  
    21   18   23 am 
    22   20   21 1  
    23   20   22 1  
    24   23   24 1  
    25   24   25 1  
    26   24   27 1  
    27   25   26 2  
    28   25   34 am 
    29   27   28 1  
    30   28   29 1  
    31   29   30 1  
    32   30   31 ar 
    33   31   32 ar 
    34   31   33 ar 
    35   34   35 1  
    36   34   40 1  
    37   35   36 1  
    38   35   38 1  
    39   36   37 2  
    40   36   41 am 
    41   38   39 1  
    42   39   40 1  
    43   41   42 1  
    44   42   43 1  
    45   42   45 1  
    46   43   44 2  
    47   43   46 am 
    48   46   47 1  
    49   46   52 1  
    50   47   48 1  
    51   47   50 1  
    52   48   49 ar 
    53   48   53 ar 
    54   50   51 1  
    55   51   52 1  
    56    1   54 1  
    57    1   55 1  
    58    2   56 1  
    59    5   57 1  
    60    5   58 1  
    61    6   59 1  
    62    6   60 1  
    63    7   61 1  
    64    7   62 1  
    65    8   63 1  
    66    9   64 1  
    67   12   65 1  
    68   12   66 1  
    69   16   67 1  
    70   17   68 1  
    71   20   69 1  
    72   21   70 1  
    73   22   71 1  
    74   22   72 1  
    75   22   73 1  
    76   23   74 1  
    77   24   75 1  
    78   27   76 1  
    79   27   77 1  
    80   28   78 1  
    81   28   79 1  
    82   29   80 1  
    83   29   81 1  
    84   30   82 1  
    85   32   83 1  
    86   32   84 1  
    87   33   85 1  
    88   33   86 1  
    89   35   87 1  
    90   38   88 1  
    91   38   89 1  
    92   39   90 1  
    93   39   91 1  
    94   40   92 1  
    95   40   93 1  
    96   41   94 1  
    97   42   95 1  
    98   45   96 1  
    99   45   97 1  
   100   45   98 1  
   101   47   99 1  
   102   50  100 1  
   103   50  101 1  
   104   51  102 1  
   105   51  103 1  
   106   52  104 1  
   107   52  105 1  
@<TRIPOS>SUBSTRUCTURE
     1 PRO         1

