### 
### Created by X-TOOL on Mon Sep 10 21:13:30 2018
### 

@<TRIPOS>MOLECULE
5t7s_ligand
   45    46     1     0     0
SMALL
GAST_HUCK


@<TRIPOS>ATOM
      1 C1         -5.7570    0.4190    7.3500 C.3       1 LBT         0.1884
      2 C2         -5.3340   -0.9460    6.7900 C.3       1 LBT         0.1341
      3 C3         -4.0220   -0.8450    6.0030 C.3       1 LBT         0.1141
      4 C4         -4.0330    0.3540    5.0440 C.3       1 LBT         0.1119
      5 C5         -4.4490    1.6190    5.7970 C.3       1 LBT         0.1130
      6 C6         -4.4460    2.8610    4.9150 C.3       1 LBT         0.0730
      7 O1         -7.0740    0.3090    7.8990 O.3       1 LBT        -0.3401
      8 O2         -5.1640   -1.9080    7.8460 O.3       1 LBT        -0.3841
      9 O3         -3.8030   -2.0730    5.3060 O.3       1 LBT        -0.3864
     10 O4         -4.9470    0.1160    3.9590 O.3       1 LBT        -0.3865
     11 O5         -5.7610    1.4230    6.3280 O.3       1 LBT        -0.3405
     12 O6         -4.9270    3.9700    5.6790 O.3       1 LBT        -0.3924
     13 C1'        -9.4040    2.6670   10.4620 C.3       1 LBT         0.1854
     14 C2'        -9.5190    2.9460    8.9610 C.3       1 LBT         0.1339
     15 C3'        -8.9010    1.8120    8.1380 C.3       1 LBT         0.1144
     16 C4'        -7.5050    1.4580    8.6300 C.3       1 LBT         0.1184
     17 C5'        -7.5430    1.1450   10.1250 C.3       1 LBT         0.1134
     18 C6'        -6.1750    0.7750   10.7010 C.3       1 LBT         0.0730
     19 O1'       -10.3180    1.6240   10.8190 O.3       1 LBT        -0.3649
     20 O2'       -10.9030    3.1020    8.6190 O.3       1 LBT        -0.3841
     21 O3'        -8.8400    2.1530    6.7480 O.3       1 LBT        -0.3864
     22 O5'        -8.0700    2.2830   10.8270 O.3       1 LBT        -0.3407
     23 O6'        -5.2280    1.8390   10.4980 O.3       1 LBT        -0.3924
     24 H1         -5.0529    0.7157    8.1413 H         1 LBT         0.0938
     25 H2         -6.1252   -1.3002    6.1128 H         1 LBT         0.0671
     26 H3         -3.1983   -0.6994    6.7173 H         1 LBT         0.0648
     27 H4         -3.0212    0.4945    4.6359 H         1 LBT         0.0647
     28 H5         -3.7433    1.7801    6.6252 H         1 LBT         0.0647
     29 H6         -5.1008    2.6990    4.0461 H         1 LBT         0.0584
     30 H7         -3.4221    3.0665    4.5694 H         1 LBT         0.0584
     31 H8         -4.9457   -2.7531    7.4709 H         1 LBT         0.2101
     32 H9         -2.9652   -2.0374    4.8595 H         1 LBT         0.2100
     33 H10        -4.9315    0.8572    3.3650 H         1 LBT         0.2100
     34 H11        -5.8106    3.7883    5.9771 H         1 LBT         0.2095
     35 H12        -9.6692    3.5819   11.0121 H         1 LBT         0.0935
     36 H13        -8.9843    3.8794    8.7311 H         1 LBT         0.0671
     37 H14        -9.5418    0.9249    8.2496 H         1 LBT         0.0648
     38 H15        -6.8181    2.2979    8.4489 H         1 LBT         0.0651
     39 H16        -8.2179    0.2899   10.2778 H         1 LBT         0.0647
     40 H17        -5.8079   -0.1340   10.2020 H         1 LBT         0.0584
     41 H18        -6.2777    0.5852   11.7796 H         1 LBT         0.0584
     42 H19       -11.1999    1.8806   10.5764 H         1 LBT         0.2126
     43 H20       -11.3665    2.2933    8.8025 H         1 LBT         0.2101
     44 H21        -8.2622    2.8980    6.6309 H         1 LBT         0.2100
     45 H22        -4.3877    1.5874   10.8629 H         1 LBT         0.2095
@<TRIPOS>BOND
     1    1    2 1  
     2    7    1 1  
     3    1   11 1  
     4    2    3 1  
     5    2    8 1  
     6    3    4 1  
     7    3    9 1  
     8    5    4 1  
     9    4   10 1  
    10    5    6 1  
    11   11    5 1  
    12    6   12 1  
    13   16    7 1  
    14   14   13 1  
    15   13   19 1  
    16   13   22 1  
    17   15   14 1  
    18   14   20 1  
    19   15   16 1  
    20   15   21 1  
    21   16   17 1  
    22   17   18 1  
    23   17   22 1  
    24   18   23 1  
    25    1   24 1  
    26    2   25 1  
    27    3   26 1  
    28    4   27 1  
    29    5   28 1  
    30    6   29 1  
    31    6   30 1  
    32    8   31 1  
    33    9   32 1  
    34   10   33 1  
    35   12   34 1  
    36   13   35 1  
    37   14   36 1  
    38   15   37 1  
    39   16   38 1  
    40   17   39 1  
    41   18   40 1  
    42   18   41 1  
    43   19   42 1  
    44   20   43 1  
    45   21   44 1  
    46   23   45 1  
@<TRIPOS>SUBSTRUCTURE
     1 LBT         1

