### 
### Created by X-TOOL on Mon Sep 10 21:13:31 2018
### 

@<TRIPOS>MOLECULE
5t8e_ligand
   32    33     1     0     0
SMALL
GAST_HUCK


@<TRIPOS>ATOM
      1 C4         28.8940   -0.3170    3.5550 C.3       1 77U         0.0793
      2 C7         27.5090   -0.9340    3.2740 C.3       1 77U        -0.0048
      3 C8         26.6140    0.3120    3.2090 C.3       1 77U         0.0305
      4 C10        26.6520    2.4860    4.2410 C.ar      1 77U         0.0545
      5 C13        25.7560    5.1260    4.1250 C.ar      1 77U         0.0882
      6 C1         29.1250    0.9990    5.7620 C.3       1 77U        -0.0399
      7 C2         28.6110    1.0100    4.3190 C.3       1 77U         0.0620
      8 O6         29.6900   -1.2430    4.3010 O.3       1 77U        -0.3895
      9 N9         27.1220    1.1670    4.3170 N.pl3     1 77U        -0.3006
     10 C11        27.5530    3.5410    4.0310 C.ar      1 77U        -0.0377
     11 C12        27.1220    4.8470    3.9700 C.ar      1 77U        -0.0446
     12 C14        25.3030    6.4840    4.0520 C.1       1 77U         0.0842
     13 N15        25.0360    7.5900    3.9820 N.1       1 77U        -0.3398
     14 C16        24.8390    4.0750    4.3340 C.ar      1 77U         0.0651
     15 CL1        23.1400    4.3970    4.5220 Cl        1 77U        -0.0700
     16 C18        25.2820    2.7690    4.3960 C.ar      1 77U        -0.0015
     17 C19        24.2580    1.6860    4.6370 C.3       1 77U        -0.0319
     18 H1         29.4092   -0.0925    2.6094 H         1 77U         0.0617
     19 H2         27.1987   -1.6074    4.0866 H         1 77U         0.0310
     20 H3         27.5013   -1.4822    2.3204 H         1 77U         0.0310
     21 H4         25.5588    0.0463    3.3703 H         1 77U         0.0517
     22 H5         26.7199    0.8214    2.2398 H         1 77U         0.0517
     23 H6         28.8932    1.9617    6.2411 H         1 77U         0.0252
     24 H7         30.2137    0.8421    5.7623 H         1 77U         0.0252
     25 H8         28.6371    0.1854    6.3189 H         1 77U         0.0252
     26 H9         29.0817    1.8480    3.7840 H         1 77U         0.0575
     27 H10        30.5286   -0.8457    4.5046 H         1 77U         0.2099
     28 H11        28.6086    3.3235    3.9146 H         1 77U         0.0527
     29 H12        27.8302    5.6507    3.8041 H         1 77U         0.0632
     30 H13        24.7586    0.7068    4.6605 H         1 77U         0.0368
     31 H14        23.5140    1.6980    3.8269 H         1 77U         0.0368
     32 H15        23.7555    1.8641    5.5991 H         1 77U         0.0368
@<TRIPOS>BOND
     1    1    2 1  
     2    7    1 1  
     3    1    8 1  
     4    3    2 1  
     5    9    3 1  
     6    4    9 1  
     7   10    4 ar 
     8    4   16 ar 
     9   11    5 ar 
    10    5   12 1  
    11    5   14 ar 
    12    7    6 1  
    13    9    7 1  
    14   10   11 ar 
    15   12   13 3  
    16   14   15 1  
    17   14   16 ar 
    18   16   17 1  
    19    1   18 1  
    20    2   19 1  
    21    2   20 1  
    22    3   21 1  
    23    3   22 1  
    24    6   23 1  
    25    6   24 1  
    26    6   25 1  
    27    7   26 1  
    28    8   27 1  
    29   10   28 1  
    30   11   29 1  
    31   17   30 1  
    32   17   31 1  
    33   17   32 1  
@<TRIPOS>SUBSTRUCTURE
     1 77U         1

