### 
### Created by X-TOOL on Mon Sep 10 21:13:33 2018
### 

@<TRIPOS>MOLECULE
5t8j_ligand
   35    36     1     0     0
SMALL
GAST_HUCK


@<TRIPOS>ATOM
      1 C5         28.3180    1.9120    5.1520 C.3       1 77T         0.0306
      2 C6         28.4870    0.4570    5.6710 C.3       1 77T        -0.0022
      3 C7         27.5730   -0.3730    4.7380 C.3       1 77T         0.0873
      4 C8         27.0420   -1.6610    5.3740 C.3       1 77T        -0.0339
      5 C10        26.3330    3.1140    4.3280 C.ar      1 77T         0.0520
      6 C13        25.3020    5.7250    4.2170 C.ar      1 77T         0.1084
      7 C1         25.6360    0.1510    3.2710 C.3       1 77T        -0.0396
      8 C2         26.4070    0.5910    4.5120 C.3       1 77T         0.0644
      9 N4         27.0640    1.8970    4.3300 N.pl3     1 77T        -0.3012
     10 O9         28.2730   -0.6710    3.5300 O.3       1 77T        -0.3865
     11 C11        27.1550    4.2180    4.0610 C.ar      1 77T        -0.0416
     12 C12        26.6640    5.4920    4.0120 C.ar      1 77T        -0.0461
     13 C14        24.8910    7.0900    4.1310 C.1       1 77T         0.0829
     14 N15        24.5450    8.1670    4.0720 N.1       1 77T        -0.3429
     15 C16        24.4190    4.6470    4.4860 C.ar      1 77T         0.1584
     16 F17        23.0840    4.8750    4.6840 F         1 77T        -0.1818
     17 C18        24.9320    3.3410    4.5400 C.ar      1 77T         0.0179
     18 C19        23.9110    2.2680    4.8350 C.3       1 77T        -0.0320
     19 H1         29.1801    2.2030    4.5339 H         1 77T         0.0517
     20 H2         28.2178    2.6122    5.9944 H         1 77T         0.0517
     21 H3         28.1590    0.3731    6.7176 H         1 77T         0.0313
     22 H4         29.5338    0.1297    5.5874 H         1 77T         0.0313
     23 H5         26.4043   -2.1910    4.6512 H         1 77T         0.0258
     24 H6         26.4531   -1.4122    6.2691 H         1 77T         0.0258
     25 H7         27.8872   -2.3050    5.6584 H         1 77T         0.0258
     26 H8         24.7945    0.8383    3.0993 H         1 77T         0.0253
     27 H9         25.2518   -0.8688    3.4204 H         1 77T         0.0253
     28 H10        26.3058    0.1664    2.3986 H         1 77T         0.0253
     29 H11        25.7308    0.6138    5.3793 H         1 77T         0.0578
     30 H12        28.5969    0.1353    3.1459 H         1 77T         0.2102
     31 H13        28.2128    4.0557    3.8881 H         1 77T         0.0496
     32 H14        27.3318    6.3226    3.8139 H         1 77T         0.0622
     33 H15        24.4067    1.2862    4.8565 H         1 77T         0.0356
     34 H16        23.1385    2.2716    4.0519 H         1 77T         0.0356
     35 H17        23.4442    2.4645    5.8115 H         1 77T         0.0356
@<TRIPOS>BOND
     1    1    2 1  
     2    9    1 1  
     3    3    2 1  
     4    3    4 1  
     5    8    3 1  
     6    3   10 1  
     7    5    9 1  
     8   11    5 ar 
     9    5   17 ar 
    10   12    6 ar 
    11    6   13 1  
    12    6   15 ar 
    13    8    7 1  
    14    9    8 1  
    15   11   12 ar 
    16   13   14 3  
    17   15   16 1  
    18   15   17 ar 
    19   17   18 1  
    20    1   19 1  
    21    1   20 1  
    22    2   21 1  
    23    2   22 1  
    24    4   23 1  
    25    4   24 1  
    26    4   25 1  
    27    7   26 1  
    28    7   27 1  
    29    7   28 1  
    30    8   29 1  
    31   10   30 1  
    32   11   31 1  
    33   12   32 1  
    34   18   33 1  
    35   18   34 1  
    36   18   35 1  
@<TRIPOS>SUBSTRUCTURE
     1 77T         1

