### 
### Created by X-TOOL on Mon Sep 10 21:13:33 2018
### 

@<TRIPOS>MOLECULE
5t8o_ligand
   40    42     1     0     0
SMALL
GAST_HUCK


@<TRIPOS>ATOM
      1 C4         42.2620   19.4780    2.0390 C.1       1 76Z        -0.0720
      2 C14        42.9550   17.1650   -0.6530 C.ar      1 76Z         0.0602
      3 C5         42.5740   18.3830    1.4240 C.ar      1 76Z         0.0170
      4 C6         42.9130   17.2430    2.1360 C.ar      1 76Z        -0.0524
      5 C11        43.0270   16.9060   -4.2100 C.2       1 76Z         0.0635
      6 C7         43.2660   16.0690    1.4790 C.ar      1 76Z        -0.0272
      7 C8         43.2930   16.0190    0.0820 C.ar      1 76Z         0.1099
      8 C9         44.4910   14.7600   -1.6210 C.3       1 76Z         0.1004
      9 C10        43.6080   14.9400   -2.8490 C.3       1 76Z         0.0877
     10 C12        42.6370   18.2100   -3.9820 C.2       1 76Z         0.0895
     11 C13        42.9260   17.2400   -2.0490 C.2       1 76Z         0.1392
     12 N1         42.5880   18.3810   -2.6680 N.2       1 76Z        -0.3100
     13 N2         42.0070   20.4840   -4.4100 N.am      1 76Z        -0.3038
     14 C3         42.0060   20.5130    2.5640 C.1       1 76Z        -0.0688
     15 O2         42.3360   19.0690   -6.1340 O.2       1 76Z        -0.3974
     16 C16        42.3140   19.2920   -4.9350 C.2       1 76Z         0.1901
     17 N          43.2000   16.3310   -3.0100 N.pl3     1 76Z        -0.2377
     18 O1         43.6400   14.8170   -0.4870 O.3       1 76Z        -0.3098
     19 C15        42.6050   18.3390    0.0400 C.ar      1 76Z        -0.0393
     20 C1         41.7570   21.7940    3.2580 C.3       1 76Z         0.1192
     21 O          42.2930   21.7590    4.5810 O.3       1 76Z        -0.3775
     22 C2         40.2640   22.0350    3.3790 C.3       1 76Z        -0.0254
     23 C          42.4380   22.9230    2.4990 C.3       1 76Z        -0.0254
     24 H1         42.9028   17.2668    3.2197 H         1 76Z         0.0619
     25 H2         43.1678   16.4329   -5.1807 H         1 76Z         0.1000
     26 H3         43.5220   15.1865    2.0541 H         1 76Z         0.0551
     27 H4         45.2395   15.5646   -1.5725 H         1 76Z         0.0647
     28 H5         45.0013   13.7864   -1.6619 H         1 76Z         0.0647
     29 H6         42.7103   14.3138   -2.7396 H         1 76Z         0.0651
     30 H7         44.1679   14.6254   -3.7420 H         1 76Z         0.0651
     31 H8         41.7803   21.2512   -5.0100 H         1 76Z         0.1800
     32 H9         42.0043   20.6076   -3.4177 H         1 76Z         0.1800
     33 H10        42.3536   19.2305   -0.5232 H         1 76Z         0.0624
     34 H11        41.8801   21.0572    5.0703 H         1 76Z         0.2113
     35 H12        39.8154   22.0682    2.3752 H         1 76Z         0.0266
     36 H13        40.0874   22.9923    3.8913 H         1 76Z         0.0266
     37 H14        39.8066   21.2193    3.9582 H         1 76Z         0.0266
     38 H15        42.0396   22.9687    1.4747 H         1 76Z         0.0266
     39 H16        43.5219   22.7391    2.4629 H         1 76Z         0.0266
     40 H17        42.2448   23.8775    3.0105 H         1 76Z         0.0266
@<TRIPOS>BOND
     1    3    1 1  
     2    1   14 3  
     3    7    2 ar 
     4    2   11 1  
     5    2   19 ar 
     6    4    3 ar 
     7   19    3 ar 
     8    6    4 ar 
     9    5   10 2  
    10   17    5 1  
    11    7    6 ar 
    12   18    7 1  
    13    9    8 1  
    14    8   18 1  
    15    9   17 1  
    16   10   12 1  
    17   10   16 1  
    18   11   12 2  
    19   11   17 1  
    20   16   13 am 
    21   14   20 1  
    22   16   15 2  
    23   20   21 1  
    24   20   22 1  
    25   20   23 1  
    26    4   24 1  
    27    5   25 1  
    28    6   26 1  
    29    8   27 1  
    30    8   28 1  
    31    9   29 1  
    32    9   30 1  
    33   13   31 1  
    34   13   32 1  
    35   19   33 1  
    36   21   34 1  
    37   22   35 1  
    38   22   36 1  
    39   22   37 1  
    40   23   38 1  
    41   23   39 1  
    42   23   40 1  
@<TRIPOS>SUBSTRUCTURE
     1 76Z         1

