### 
### Created by X-TOOL on Mon Sep 10 21:13:32 2018
### 

@<TRIPOS>MOLECULE
5t8p_ligand
   27    29     1     0     0
SMALL
GAST_HUCK


@<TRIPOS>ATOM
      1 C6         28.7190   55.2480   -4.4400 C.ar      1 774        -0.0124
      2 C5         29.1410   54.2100   -5.2430 C.ar      1 774        -0.0295
      3 C15        28.6360   53.5870    1.1970 C.2       1 774        -0.0645
      4 C14        29.3680   52.4200    1.1180 C.2       1 774        -0.0055
      5 C11        28.4090   54.2190   -0.0600 C.2       1 774        -0.0427
      6 C7         28.6430   55.0520   -3.0780 C.ar      1 774         0.1276
      7 C16        28.9970   53.8270   -2.5340 C.ar      1 774         0.0836
      8 C12        28.9800   53.5280   -1.1140 C.2       1 774         0.0484
      9 C4         29.4690   53.0300   -4.6150 C.ar      1 774         0.1005
     10 C2         29.9220   51.8890   -5.4160 C.2       1 774         0.2113
     11 C10        27.6500   55.4730   -0.1550 C.3       1 774         0.0015
     12 C9         27.1130   55.7710   -1.5310 C.3       1 774         0.0812
     13 N17        29.4090   52.8100   -3.2940 N.ar      1 774        -0.2920
     14 N1         30.4000   50.8510   -4.6510 N.am      1 774        -0.2997
     15 O3         29.8300   51.8890   -6.6360 O.2       1 774        -0.3841
     16 O8         28.2200   56.1400   -2.3410 O.3       1 774        -0.3051
     17 S13        29.7740   52.1170   -0.5200 S.3       1 774        -0.0459
     18 H1         28.4508   56.2046   -4.8736 H         1 774         0.0645
     19 H2         29.2113   54.3181   -6.3193 H         1 774         0.0684
     20 H3         28.2641   53.9900    2.1379 H         1 774         0.0420
     21 H4         29.6443   51.7907    1.9628 H         1 774         0.0770
     22 H5         28.3119   56.2996    0.1427 H         1 774         0.0428
     23 H6         26.8002   55.4148    0.5410 H         1 774         0.0428
     24 H7         26.3889   56.5977   -1.4825 H         1 774         0.0641
     25 H8         26.6228   54.8781   -1.9462 H         1 774         0.0641
     26 H9         30.7367   50.0189   -5.0917 H         1 774         0.1808
     27 H10        30.4109   50.9283   -3.6540 H         1 774         0.1808
@<TRIPOS>BOND
     1    1    2 ar 
     2    6    1 ar 
     3    2    9 ar 
     4    3    4 2  
     5    5    3 1  
     6    4   17 1  
     7    8    5 2  
     8    5   11 1  
     9    7    6 ar 
    10    6   16 1  
    11    7    8 1  
    12    7   13 ar 
    13    8   17 1  
    14    9   10 1  
    15    9   13 ar 
    16   10   14 am 
    17   10   15 2  
    18   11   12 1  
    19   12   16 1  
    20    1   18 1  
    21    2   19 1  
    22    3   20 1  
    23    4   21 1  
    24   11   22 1  
    25   11   23 1  
    26   12   24 1  
    27   12   25 1  
    28   14   26 1  
    29   14   27 1  
@<TRIPOS>SUBSTRUCTURE
     1 774         1

