### 
### Created by X-TOOL on Mon Sep 10 21:13:33 2018
### 

@<TRIPOS>MOLECULE
5t8q_ligand
   27    28     1     0     0
SMALL
GAST_HUCK


@<TRIPOS>ATOM
      1 C1         19.4060   42.2080    6.7150 C.2       1 76Y         0.2137
      2 C2         18.2230   42.5810    5.8870 C.2       1 76Y         0.1270
      3 C3         18.1820   42.6570    4.4970 C.2       1 76Y        -0.0619
      4 C4         16.9070   43.0170    4.1420 C.2       1 76Y        -0.0743
      5 C5         16.1900   43.1440    5.3110 C.2       1 76Y         0.0263
      6 C6         16.5580   42.9160    7.7460 C.3       1 76Y         0.0892
      7 C11        15.2360   40.1320   10.0920 C.ar      1 76Y        -0.0545
      8 C12        15.6460   41.3790    9.6340 C.ar      1 76Y         0.0439
      9 CL         15.5910   42.7850   10.7230 Cl        1 76Y        -0.0771
     10 C10        15.2750   39.0430    9.2300 C.ar      1 76Y        -0.0682
     11 C9         15.7180   39.1920    7.9160 C.ar      1 76Y        -0.0683
     12 C8         16.1430   40.4230    7.4250 C.ar      1 76Y        -0.0570
     13 C7         16.1300   41.5480    8.2380 C.ar      1 76Y         0.0017
     14 N2         16.9980   42.8840    6.3480 N.pl3     1 76Y        -0.2540
     15 O          19.2550   41.9300    7.8890 O.2       1 76Y        -0.3924
     16 N1         20.6220   42.1700    6.1750 N.am      1 76Y        -0.3013
     17 H1         19.0105   42.4657    3.8166 H         1 76Y         0.0376
     18 H2         16.5337   43.1724    3.1309 H         1 76Y         0.0312
     19 H3         15.1369   43.4123    5.3813 H         1 76Y         0.0883
     20 H4         17.3887   43.2745    8.3716 H         1 76Y         0.0789
     21 H5         15.7072   43.6075    7.8347 H         1 76Y         0.0789
     22 H6         14.8892   40.0105   11.1118 H         1 76Y         0.0605
     23 H7         14.9580   38.0681    9.5822 H         1 76Y         0.0559
     24 H8         15.7316   38.3282    7.2613 H         1 76Y         0.0601
     25 H9         16.4867   40.5038    6.4001 H         1 76Y         0.0558
     26 H10        21.4107   41.9190    6.7362 H         1 76Y         0.1800
     27 H11        20.7469   42.3924    5.2081 H         1 76Y         0.1800
@<TRIPOS>BOND
     1    2    1 1  
     2    1   15 2  
     3    1   16 am 
     4    2    3 2  
     5   14    2 1  
     6    4    3 1  
     7    5    4 2  
     8   14    5 1  
     9   13    6 1  
    10    6   14 1  
    11    8    7 ar 
    12    7   10 ar 
    13    8    9 1  
    14    8   13 ar 
    15   10   11 ar 
    16   11   12 ar 
    17   12   13 ar 
    18    3   17 1  
    19    4   18 1  
    20    5   19 1  
    21    6   20 1  
    22    6   21 1  
    23    7   22 1  
    24   10   23 1  
    25   11   24 1  
    26   12   25 1  
    27   16   26 1  
    28   16   27 1  
@<TRIPOS>SUBSTRUCTURE
     1 76Y         1

