### 
### Created by X-TOOL on Mon Sep 10 21:13:34 2018
### 

@<TRIPOS>MOLECULE
5t92_ligand
   51    54     1     0     0
SMALL
GAST_HUCK


@<TRIPOS>ATOM
      1 C1        -41.6380   10.6350  -24.8580 C.ar      1 77W        -0.0132
      2 C2        -40.6980   11.4120  -24.1620 C.ar      1 77W         0.1103
      3 C3        -39.4050   10.9270  -23.9700 C.ar      1 77W        -0.0059
      4 C12       -40.4440    6.4050  -25.0810 C.3       1 77W        -0.0854
      5 C13       -39.6730    7.5950  -27.2810 C.ar      1 77W        -0.0635
      6 C14       -37.5410    5.9350  -25.8800 C.ar      1 77W         0.0226
      7 C15       -37.1830    5.8500  -27.2440 C.ar      1 77W        -0.0471
      8 C16       -36.7240    4.6450  -27.7890 C.ar      1 77W        -0.0400
      9 C17       -36.6010    3.5120  -26.9710 C.ar      1 77W         0.1179
     10 C18       -36.9330    3.5790  -25.6060 C.ar      1 77W        -0.0400
     11 C19       -37.4180    4.7870  -25.0650 C.ar      1 77W        -0.0471
     12 C20       -38.9930    8.6170  -27.9830 C.ar      1 77W        -0.0528
     13 C21       -39.0950    8.7540  -29.3750 C.ar      1 77W        -0.0343
     14 C22       -39.9450    7.9120  -30.1030 C.ar      1 77W         0.0000
     15 C23       -40.6270    6.8810  -29.4260 C.ar      1 77W        -0.0343
     16 C24       -40.4980    6.7340  -28.0320 C.ar      1 77W        -0.0528
     17 C25       -39.9890    8.1250  -31.6070 C.2       1 77W        -0.0276
     18 C26       -40.4880    7.2250  -32.4700 C.2       1 77W        -0.0129
     19 C28       -40.5170    7.3570  -33.9400 C.2       1 77W         0.0632
     20 C4        -39.0110    9.6810  -24.4760 C.ar      1 77W        -0.0323
     21 C5        -39.9380    8.8690  -25.1490 C.ar      1 77W        -0.0620
     22 C6        -41.2510    9.3760  -25.3520 C.ar      1 77W        -0.0607
     23 C7        -37.5530    9.2700  -24.2900 C.3       1 77W         0.0083
     24 C8        -37.3400    7.7450  -24.2920 C.3       1 77W         0.0247
     25 N9        -38.0950    7.0750  -25.3510 N.pl3     1 77W        -0.3622
     26 C10       -39.5010    7.4810  -25.7270 C.3       1 77W         0.0215
     27 O11       -40.9950   12.6750  -23.6460 O.3       1 77W        -0.3159
     28 F27       -36.1900    2.3700  -27.5110 F         1 77W        -0.1946
     29 O29       -40.0290    8.3330  -34.4960 O.co2     1 77W        -0.5590
     30 O30       -41.0430    6.3550  -34.6450 O.co2     1 77W        -0.5590
     31 H1        -42.6470   11.0000  -25.0124 H         1 77W         0.0585
     32 H2        -38.6898   11.5260  -23.4180 H         1 77W         0.0550
     33 H3        -41.4908    6.6446  -25.3192 H         1 77W         0.0080
     34 H4        -40.3070    6.4052  -23.9896 H         1 77W         0.0080
     35 H5        -40.1950    5.4113  -25.4816 H         1 77W         0.0080
     36 H6        -37.2646    6.7273  -27.8754 H         1 77W         0.0506
     37 H7        -36.4644    4.5876  -28.8399 H         1 77W         0.0571
     38 H8        -36.8166    2.7065  -24.9734 H         1 77W         0.0571
     39 H9        -37.6979    4.8356  -24.0189 H         1 77W         0.0506
     40 H10       -38.3751    9.3146  -27.4293 H         1 77W         0.0764
     41 H11       -38.5152    9.5126  -29.8882 H         1 77W         0.0686
     42 H12       -41.2558    6.1959  -29.9831 H         1 77W         0.0686
     43 H13       -41.0429    5.9445  -27.5272 H         1 77W         0.0764
     44 H14       -39.5945    9.0580  -32.0067 H         1 77W         0.0740
     45 H15       -40.9098    6.3146  -32.0466 H         1 77W         0.0776
     46 H16       -41.9704    8.7784  -25.9001 H         1 77W         0.0741
     47 H17       -37.1984    9.6698  -23.3286 H         1 77W         0.0501
     48 H18       -36.9613    9.7053  -25.1088 H         1 77W         0.0501
     49 H19       -37.6624    7.3425  -23.3204 H         1 77W         0.0528
     50 H20       -36.2694    7.5386  -24.4375 H         1 77W         0.0528
     51 H21       -41.8995   12.8906  -23.8405 H         1 77W         0.2593
@<TRIPOS>BOND
     1    2    1 ar 
     2   22    1 ar 
     3    3    2 ar 
     4    2   27 1  
     5   20    3 ar 
     6   26    4 1  
     7    5   12 ar 
     8    5   16 ar 
     9   26    5 1  
    10    6    7 ar 
    11    6   11 ar 
    12   25    6 1  
    13    7    8 ar 
    14    8    9 ar 
    15   10    9 ar 
    16    9   28 1  
    17   11   10 ar 
    18   12   13 ar 
    19   13   14 ar 
    20   15   14 ar 
    21   14   17 1  
    22   16   15 ar 
    23   17   18 2  
    24   18   19 1  
    25   19   29 ar 
    26   19   30 ar 
    27   20   21 ar 
    28   23   20 1  
    29   21   22 ar 
    30   21   26 1  
    31   24   23 1  
    32   24   25 1  
    33   25   26 1  
    34    1   31 1  
    35    3   32 1  
    36    4   33 1  
    37    4   34 1  
    38    4   35 1  
    39    7   36 1  
    40    8   37 1  
    41   10   38 1  
    42   11   39 1  
    43   12   40 1  
    44   13   41 1  
    45   15   42 1  
    46   16   43 1  
    47   17   44 1  
    48   18   45 1  
    49   22   46 1  
    50   23   47 1  
    51   23   48 1  
    52   24   49 1  
    53   24   50 1  
    54   27   51 1  
@<TRIPOS>SUBSTRUCTURE
     1 77W         1

