### 
### Created by X-TOOL on Mon Sep 10 21:13:34 2018
### 

@<TRIPOS>MOLECULE
5t97_ligand
   60    63     1     0     0
SMALL
GAST_HUCK


@<TRIPOS>ATOM
      1 C1        -42.0250   10.5610  -23.7780 C.ar      1 782        -0.0132
      2 C2        -41.1510   11.1690  -22.8490 C.ar      1 782         0.1103
      3 C3        -39.9440   10.5260  -22.4650 C.ar      1 782        -0.0059
      4 O1        -41.4940   12.3890  -22.3470 O.3       1 782        -0.3159
      5 O2        -40.4290    7.4510  -33.3440 O.co2     1 782        -0.5590
      6 O3        -42.4590    8.4280  -33.1340 O.co2     1 782        -0.5590
      7 C11       -37.7840    5.3870  -26.0920 C.ar      1 782        -0.0519
      8 C12       -37.4430    4.1350  -26.6390 C.ar      1 782        -0.0714
      9 C13       -37.5720    2.9740  -25.8420 C.ar      1 782        -0.0533
     10 C14       -38.0760    3.1060  -24.5100 C.ar      1 782        -0.0714
     11 C15       -38.4200    4.3660  -23.9680 C.ar      1 782        -0.0519
     12 C16       -37.1780    1.6190  -26.4430 C.3       1 782        -0.0190
     13 C17       -36.3080    0.7400  -25.5230 C.3       1 782        -0.0546
     14 C18       -38.3930    0.8630  -26.9960 C.3       1 782        -0.0546
     15 C19       -40.4860    7.1380  -26.0620 C.ar      1 782        -0.0636
     16 C20       -41.3830    6.2280  -26.6890 C.ar      1 782        -0.0528
     17 C21       -41.5960    6.2510  -28.0920 C.ar      1 782        -0.0343
     18 C22       -40.9160    7.1840  -28.9110 C.ar      1 782         0.0000
     19 C23       -39.9500    8.0270  -28.3050 C.ar      1 782        -0.0343
     20 C24       -39.7680    8.0170  -26.9080 C.ar      1 782        -0.0528
     21 C25       -41.0930    6.2160  -23.7230 C.3       1 782        -0.0855
     22 C26       -41.0940    7.1650  -30.3750 C.2       1 782        -0.0276
     23 C27       -41.1350    8.2250  -31.2090 C.2       1 782        -0.0129
     24 C28       -41.2750    7.9900  -32.6310 C.2       1 782         0.0632
     25 C4        -39.6200    9.2540  -23.0140 C.ar      1 782        -0.0323
     26 C5        -40.4970    8.6080  -23.9590 C.ar      1 782        -0.0621
     27 C6        -41.7120    9.2920  -24.3160 C.ar      1 782        -0.0607
     28 C7        -38.3060    8.6110  -22.6040 C.3       1 782         0.0082
     29 C8        -38.1680    7.1340  -23.0010 C.3       1 782         0.0242
     30 N1        -38.7010    6.8390  -24.3500 N.pl3     1 782        -0.3638
     31 C9        -40.1640    7.1780  -24.5360 C.3       1 782         0.0210
     32 C10       -38.2790    5.5380  -24.7640 C.ar      1 782         0.0196
     33 H1        -42.9352   11.0676  -24.0780 H         1 782         0.0585
     34 H2        -39.2738   11.0015  -21.7580 H         1 782         0.0550
     35 H3        -42.3273   12.6586  -22.7148 H         1 782         0.2593
     36 H4        -37.6651    6.2723  -26.7062 H         1 782         0.0498
     37 H5        -37.0856    4.0620  -27.6598 H         1 782         0.0525
     38 H6        -38.1973    2.2178  -23.9006 H         1 782         0.0525
     39 H7        -38.7892    4.4392  -22.9515 H         1 782         0.0498
     40 H8        -36.5448    1.8530  -27.3115 H         1 782         0.0431
     41 H9        -36.0752   -0.2064  -26.0331 H         1 782         0.0252
     42 H10       -36.8550    0.5298  -24.5921 H         1 782         0.0252
     43 H11       -35.3729    1.2692  -25.2873 H         1 782         0.0252
     44 H12       -38.9779    1.5327  -27.6436 H         1 782         0.0252
     45 H13       -39.0216    0.5187  -26.1615 H         1 782         0.0252
     46 H14       -38.0507   -0.0044  -27.5795 H         1 782         0.0252
     47 H15       -41.9140    5.5030  -26.0829 H         1 782         0.0764
     48 H16       -42.2868    5.5466  -28.5411 H         1 782         0.0686
     49 H17       -39.3471    8.6840  -28.9213 H         1 782         0.0686
     50 H18       -39.0553    8.7044  -26.4668 H         1 782         0.0764
     51 H19       -42.1440    6.4967  -23.8860 H         1 782         0.0079
     52 H20       -40.8545    6.2942  -22.6520 H         1 782         0.0079
     53 H21       -40.9335    5.1810  -24.0596 H         1 782         0.0079
     54 H22       -41.2049    6.1842  -30.8351 H         1 782         0.0740
     55 H23       -41.0640    9.2395  -30.8195 H         1 782         0.0776
     56 H24       -42.4004    8.8249  -25.0110 H         1 782         0.0741
     57 H25       -38.2152    8.6825  -21.5101 H         1 782         0.0501
     58 H26       -37.4867    9.1719  -23.0774 H         1 782         0.0501
     59 H27       -38.7148    6.5227  -22.2680 H         1 782         0.0527
     60 H28       -37.1017    6.8648  -22.9802 H         1 782         0.0527
@<TRIPOS>BOND
     1    1    2 ar 
     2   27    1 ar 
     3    3    2 ar 
     4    2    4 1  
     5   25    3 ar 
     6   24    5 ar 
     7   24    6 ar 
     8    7    8 ar 
     9   32    7 ar 
    10    8    9 ar 
    11   10    9 ar 
    12    9   12 1  
    13   11   10 ar 
    14   32   11 ar 
    15   12   13 1  
    16   12   14 1  
    17   15   16 ar 
    18   15   20 ar 
    19   31   15 1  
    20   16   17 ar 
    21   17   18 ar 
    22   19   18 ar 
    23   18   22 1  
    24   20   19 ar 
    25   31   21 1  
    26   22   23 2  
    27   23   24 1  
    28   26   25 ar 
    29   28   25 1  
    30   26   27 ar 
    31   31   26 1  
    32   29   28 1  
    33   30   29 1  
    34   30   31 1  
    35   30   32 1  
    36    1   33 1  
    37    3   34 1  
    38    4   35 1  
    39    7   36 1  
    40    8   37 1  
    41   10   38 1  
    42   11   39 1  
    43   12   40 1  
    44   13   41 1  
    45   13   42 1  
    46   13   43 1  
    47   14   44 1  
    48   14   45 1  
    49   14   46 1  
    50   16   47 1  
    51   17   48 1  
    52   19   49 1  
    53   20   50 1  
    54   21   51 1  
    55   21   52 1  
    56   21   53 1  
    57   22   54 1  
    58   23   55 1  
    59   27   56 1  
    60   28   57 1  
    61   28   58 1  
    62   29   59 1  
    63   29   60 1  
@<TRIPOS>SUBSTRUCTURE
     1 782         1

