### 
### Created by X-TOOL on Mon Sep 10 21:13:31 2018
### 

@<TRIPOS>MOLECULE
5t9u_ligand
   97    99     1     0     0
SMALL
GAST_HUCK


@<TRIPOS>ATOM
      1 C1         72.8350   51.6620   66.8570 C.3       1 7HG         0.0726
      2 C2         73.4490   51.9900   65.4480 C.3       1 7HG         0.0844
      3 C3         72.7410   53.1370   64.6570 C.3       1 7HG         0.0209
      4 C4         73.3690   53.2950   63.2290 C.3       1 7HG         0.0892
      5 C5         72.7630   54.5130   62.5710 C.2       1 7HG        -0.0585
      6 C6         75.2780   61.6520   64.7360 C.3       1 7HG         0.0121
      7 C7         75.2170   62.0430   66.2200 C.3       1 7HG        -0.0204
      8 C8         75.7920   60.9490   67.1150 C.3       1 7HG         0.0730
      9 N2         75.1860   59.6650   66.7520 N.am      1 7HG        -0.2374
     10 N3         75.3650   59.2010   65.4350 N.4       1 7HG         0.3834
     11 C9         74.8550   60.1970   64.4540 C.3       1 7HG         0.1026
     12 C10        75.2180   59.7280   63.0470 C.2       1 7HG         0.2838
     13 O1         74.3650   60.2510   62.1160 O.3       1 7HG        -0.2701
     14 O2         76.1390   58.9830   62.7590 O.2       1 7HG        -0.3640
     15 C25        74.6560   59.8650   60.7540 C.3       1 7HG         0.0863
     16 C26        73.6390   58.8330   60.2450 C.3       1 7HG         0.0004
     17 C27        73.9250   57.5330   60.9130 C.2       1 7HG        -0.0847
     18 C28        73.0270   56.6750   61.4100 C.2       1 7HG        -0.0904
     19 C29        73.5210   55.4700   62.0330 C.2       1 7HG        -0.0881
     20 C30        73.0640   52.7480   67.9210 C.2       1 7HG         0.1836
     21 O6         72.1770   53.1360   68.6620 O.2       1 7HG        -0.3965
     22 C31        73.4090   50.3690   67.4520 C.3       1 7HG        -0.0429
     23 C32        72.7210   54.5210   65.3540 C.3       1 7HG        -0.0554
     24 O7         73.1370   52.1020   62.4630 O.3       1 7HG        -0.3667
     25 O8         74.8550   52.3070   65.5180 O.3       1 7HG        -0.3766
     26 C33        74.0700   51.9060   61.4040 C.3       1 7HG         0.0398
     27 C34        75.6990   51.3870   64.8190 C.3       1 7HG         0.0370
     28 N1         74.3630   53.2740   67.9490 N.am      1 7HG        -0.2651
     29 C21        74.7630   54.3360   68.8780 C.3       1 7HG         0.1332
     30 C20        74.9260   55.4910   67.8930 C.2       1 7HG         0.2043
     31 O5         75.8130   55.5410   67.0280 O.2       1 7HG        -0.3944
     32 C22        75.9860   54.1180   69.7900 C.3       1 7HG        -0.0063
     33 C23        76.2260   55.3770   70.6390 C.3       1 7HG        -0.0584
     34 C24        75.7560   52.8890   70.6670 C.3       1 7HG        -0.0584
     35 C11        74.4370   58.9380   67.6410 C.2       1 7HG         0.2434
     36 C12        73.8140   57.6240   67.1620 C.3       1 7HG         0.1448
     37 O3         74.2270   59.2960   68.8080 O.2       1 7HG        -0.3893
     38 C13        72.3090   57.7220   66.8410 C.3       1 7HG         0.0191
     39 C14        71.8880   58.9030   66.0270 C.ar      1 7HG        -0.0474
     40 C15        71.8600   58.8480   64.6190 C.ar      1 7HG        -0.0712
     41 C16        71.4830   59.9840   63.8860 C.ar      1 7HG        -0.0772
     42 C17        71.1290   61.1580   64.5710 C.ar      1 7HG        -0.0403
     43 C18        71.1450   61.2060   65.9630 C.ar      1 7HG         0.0809
     44 C19        71.5300   60.0770   66.6940 C.ar      1 7HG        -0.0323
     45 O4         70.7690   62.3630   66.6010 O.3       1 7HG        -0.3349
     46 N4         73.9890   56.4700   67.9900 N.am      1 7HG        -0.2617
     47 H1         71.7511   51.5377   66.7167 H         1 7HG         0.0561
     48 H2         73.3441   51.0735   64.8488 H         1 7HG         0.0629
     49 H3         71.6926   52.8287   64.5315 H         1 7HG         0.0376
     50 H4         74.4545   53.4455   63.3241 H         1 7HG         0.0774
     51 H5         71.6791   54.6121   62.5350 H         1 7HG         0.0630
     52 H6         76.3119   61.7860   64.3850 H         1 7HG         0.0347
     53 H7         74.6103   62.3215   64.1740 H         1 7HG         0.0347
     54 H8         74.1677   62.2179   66.4999 H         1 7HG         0.0290
     55 H9         75.7953   62.9667   66.3695 H         1 7HG         0.0290
     56 H10        75.5674   61.1779   68.1672 H         1 7HG         0.0573
     57 H11        76.8818   60.8943   66.9761 H         1 7HG         0.0573
     58 H12        74.8635   58.3345   65.3182 H         1 7HG         0.2307
     59 H13        76.3471   59.0459   65.2692 H         1 7HG         0.2307
     60 H14        73.7575   60.1819   64.5269 H         1 7HG         0.1123
     61 H15        75.6643   59.4274   60.7118 H         1 7HG         0.0640
     62 H16        74.6160   60.7566   60.1111 H         1 7HG         0.0640
     63 H17        73.7351   58.7211   59.1549 H         1 7HG         0.0462
     64 H18        72.6187   59.1621   60.4913 H         1 7HG         0.0462
     65 H19        74.9730   57.2520   61.0065 H         1 7HG         0.0605
     66 H20        71.9591   56.8787   61.3468 H         1 7HG         0.0402
     67 H21        74.6006   55.3308   62.0665 H         1 7HG         0.0403
     68 H22        72.9506   50.1824   68.4344 H         1 7HG         0.0257
     69 H23        74.4980   50.4710   67.5690 H         1 7HG         0.0257
     70 H24        73.1898   49.5268   66.7792 H         1 7HG         0.0257
     71 H25        72.2817   54.4199   66.3574 H         1 7HG         0.0236
     72 H26        72.1181   55.2226   64.7588 H         1 7HG         0.0236
     73 H27        73.7489   54.9028   65.4406 H         1 7HG         0.0236
     74 H28        73.8263   50.9769   60.8680 H         1 7HG         0.0526
     75 H29        75.0861   51.8341   61.8191 H         1 7HG         0.0526
     76 H30        74.0178   52.7557   60.7073 H         1 7HG         0.0526
     77 H31        76.7482   51.7006   64.9227 H         1 7HG         0.0524
     78 H32        75.4239   51.3734   63.7541 H         1 7HG         0.0524
     79 H33        75.5738   50.3797   65.2429 H         1 7HG         0.0524
     80 H34        75.0427   52.9114   67.3114 H         1 7HG         0.1883
     81 H35        73.9196   54.5433   69.5530 H         1 7HG         0.0802
     82 H36        76.8731   53.9420   69.1639 H         1 7HG         0.0343
     83 H37        77.0992   55.2197   71.2893 H         1 7HG         0.0234
     84 H38        75.3389   55.5764   71.2581 H         1 7HG         0.0234
     85 H39        76.4117   56.2357   69.9771 H         1 7HG         0.0234
     86 H40        75.5882   52.0092   70.0285 H         1 7HG         0.0234
     87 H41        74.8745   53.0530   71.3043 H         1 7HG         0.0234
     88 H42        76.6396   52.7195   71.2998 H         1 7HG         0.0234
     89 H43        74.3268   57.4001   66.2149 H         1 7HG         0.0825
     90 H44        71.7631   57.7592   67.7952 H         1 7HG         0.0472
     91 H45        72.0226   56.8141   66.2898 H         1 7HG         0.0472
     92 H46        72.1284   57.9324   64.1045 H         1 7HG         0.0464
     93 H47        71.4652   59.9556   62.8025 H         1 7HG         0.0572
     94 H48        70.8395   62.0385   64.0089 H         1 7HG         0.0485
     95 H49        71.5505   60.1132   67.7772 H         1 7HG         0.0478
     96 H50        71.4894   62.6776   67.1345 H         1 7HG         0.2479
     97 H51        73.3346   56.3710   68.7397 H         1 7HG         0.1885
@<TRIPOS>BOND
     1    2    1 1  
     2    1   20 1  
     3    1   22 1  
     4    3    2 1  
     5    2   25 1  
     6    4    3 1  
     7    3   23 1  
     8    5    4 1  
     9    4   24 1  
    10   19    5 2  
    11    6    7 1  
    12   11    6 1  
    13    7    8 1  
    14    9    8 1  
    15   10    9 1  
    16    9   35 am 
    17   11   10 1  
    18   12   11 1  
    19   13   12 1  
    20   12   14 2  
    21   15   13 1  
    22   16   15 1  
    23   17   16 1  
    24   18   17 2  
    25   18   19 1  
    26   20   21 2  
    27   20   28 am 
    28   24   26 1  
    29   25   27 1  
    30   28   29 1  
    31   29   30 1  
    32   29   32 1  
    33   30   31 2  
    34   30   46 am 
    35   32   33 1  
    36   32   34 1  
    37   35   36 1  
    38   35   37 2  
    39   36   38 1  
    40   36   46 1  
    41   38   39 1  
    42   39   40 ar 
    43   39   44 ar 
    44   40   41 ar 
    45   41   42 ar 
    46   42   43 ar 
    47   43   44 ar 
    48   43   45 1  
    49    1   47 1  
    50    2   48 1  
    51    3   49 1  
    52    4   50 1  
    53    5   51 1  
    54    6   52 1  
    55    6   53 1  
    56    7   54 1  
    57    7   55 1  
    58    8   56 1  
    59    8   57 1  
    60   10   58 1  
    61   10   59 1  
    62   11   60 1  
    63   15   61 1  
    64   15   62 1  
    65   16   63 1  
    66   16   64 1  
    67   17   65 1  
    68   18   66 1  
    69   19   67 1  
    70   22   68 1  
    71   22   69 1  
    72   22   70 1  
    73   23   71 1  
    74   23   72 1  
    75   23   73 1  
    76   26   74 1  
    77   26   75 1  
    78   26   76 1  
    79   27   77 1  
    80   27   78 1  
    81   27   79 1  
    82   28   80 1  
    83   29   81 1  
    84   32   82 1  
    85   33   83 1  
    86   33   84 1  
    87   33   85 1  
    88   34   86 1  
    89   34   87 1  
    90   34   88 1  
    91   36   89 1  
    92   38   90 1  
    93   38   91 1  
    94   40   92 1  
    95   41   93 1  
    96   42   94 1  
    97   44   95 1  
    98   45   96 1  
    99   46   97 1  
@<TRIPOS>SUBSTRUCTURE
     1 7HG         1

