### 
### Created by X-TOOL on Mon Sep 10 21:13:30 2018
### 

@<TRIPOS>MOLECULE
5t9w_ligand
   83    85     1     0     0
SMALL
GAST_HUCK


@<TRIPOS>ATOM
      1 N2          5.7200  -19.6850   -0.8560 N.4       1 78E         0.3834
      2 C2          6.3350  -19.4910    1.9960 C.3       1 78E        -0.0204
      3 N1          6.4590  -20.6720   -0.1620 N.am      1 78E        -0.2374
      4 C4          4.8180  -18.9000    0.0130 C.3       1 78E         0.1026
      5 C5          4.2100  -17.7040   -0.7240 C.2       1 78E         0.2838
      6 C16         2.1980  -16.3480   -0.7880 C.3       1 78E         0.0863
      7 C18         1.6340  -17.7640   -2.8160 C.2       1 78E        -0.0847
      8 C15         5.0170  -25.0320   -5.5030 C.2       1 78E         0.1782
      9 C17         2.0630  -16.3990   -2.3230 C.3       1 78E         0.0004
     10 C19         2.3090  -18.4560   -3.7480 C.2       1 78E        -0.0904
     11 C1          5.5200  -18.3870    1.3080 C.3       1 78E         0.0121
     12 C3          7.2570  -20.1730    0.9690 C.3       1 78E         0.0730
     13 C20         1.8800  -19.7560   -4.2050 C.2       1 78E        -0.0905
     14 O1          2.9670  -17.4300   -0.2670 O.3       1 78E        -0.2701
     15 C21         2.5480  -20.4630   -5.1280 C.2       1 78E        -0.0872
     16 O2          4.8000  -17.0850   -1.6010 O.2       1 78E        -0.3640
     17 O5          4.6730  -25.6070   -4.4720 O.2       1 78E        -0.3969
     18 C22         2.1010  -21.8230   -5.6100 C.3       1 78E        -0.0275
     19 C23         3.3010  -22.7440   -5.8280 C.3       1 78E        -0.0412
     20 C29         2.9550  -24.0210   -6.6090 C.3       1 78E        -0.0340
     21 C30         4.0960  -25.0550   -6.7220 C.3       1 78E         0.0375
     22 N4          6.1770  -24.3700   -5.6350 N.am      1 78E        -0.2654
     23 C10         7.1920  -24.1830   -4.5980 C.3       1 78E         0.1332
     24 C9          6.7400  -22.9790   -3.7630 C.2       1 78E         0.2043
     25 O4          6.9930  -21.8300   -4.1270 O.2       1 78E        -0.3944
     26 C11         8.6730  -24.2360   -5.0610 C.3       1 78E        -0.0063
     27 C13         9.0170  -25.3600   -6.0540 C.3       1 78E        -0.0584
     28 C12         9.6060  -24.2960   -3.8310 C.3       1 78E        -0.0584
     29 N3          6.0390  -23.2580   -2.6690 N.am      1 78E        -0.2617
     30 C7          5.4560  -22.2940   -1.7550 C.3       1 78E         0.1448
     31 C8          4.1610  -22.9980   -1.2720 C.3       1 78E         0.0191
     32 C14         3.3120  -22.1710   -0.3160 C.ar      1 78E        -0.0474
     33 C28         2.3730  -21.2320   -0.8060 C.ar      1 78E        -0.0712
     34 C27         1.5910  -20.4700    0.0930 C.ar      1 78E        -0.0772
     35 C24         3.4580  -22.3550    1.0710 C.ar      1 78E        -0.0323
     36 C25         2.6900  -21.5940    1.9700 C.ar      1 78E         0.0809
     37 C26         1.7530  -20.6560    1.4820 C.ar      1 78E        -0.0403
     38 O6          2.8590  -21.7830    3.3110 O.3       1 78E        -0.3349
     39 C6          6.3680  -21.9620   -0.5510 C.2       1 78E         0.2434
     40 O3          6.9730  -22.8560    0.0270 O.2       1 78E        -0.3893
     41 H1          5.1643  -20.1412   -1.5625 H         1 78E         0.2307
     42 H2          6.3691  -19.0517   -1.2960 H         1 78E         0.2307
     43 H3          5.6503  -20.2375    2.4248 H         1 78E         0.0290
     44 H4          6.9448  -19.0493    2.7979 H         1 78E         0.0290
     45 H5          3.9968  -19.5661    0.3161 H         1 78E         0.1123
     46 H6          1.1920  -16.3858   -0.3448 H         1 78E         0.0640
     47 H7          2.6864  -15.4027   -0.5089 H         1 78E         0.0640
     48 H8          0.7331  -18.2070   -2.3940 H         1 78E         0.0605
     49 H9          3.0357  -16.1501   -2.7723 H         1 78E         0.0462
     50 H10         1.3135  -15.6577   -2.6372 H         1 78E         0.0462
     51 H11         3.2119  -18.0210   -4.1740 H         1 78E         0.0402
     52 H12         6.1952  -17.5603    1.0422 H         1 78E         0.0347
     53 H13         4.7529  -18.0235    2.0076 H         1 78E         0.0347
     54 H14         7.7779  -21.0150    1.4482 H         1 78E         0.0573
     55 H15         7.9961  -19.4457    0.6019 H         1 78E         0.0573
     56 H16         0.9721  -20.1823   -3.7808 H         1 78E         0.0402
     57 H17         3.4565  -20.0362   -5.5504 H         1 78E         0.0604
     58 H18         1.5576  -21.7083   -6.5595 H         1 78E         0.0437
     59 H19         1.4348  -22.2709   -4.8580 H         1 78E         0.0437
     60 H20         3.7014  -23.0338   -4.8453 H         1 78E         0.0292
     61 H21         4.0688  -22.1900   -6.3879 H         1 78E         0.0292
     62 H22         2.6606  -23.7273   -7.6273 H         1 78E         0.0291
     63 H23         2.1050  -24.5065   -6.1072 H         1 78E         0.0291
     64 H24         3.6565  -26.0590   -6.8153 H         1 78E         0.0502
     65 H25         4.6905  -24.8301   -7.6197 H         1 78E         0.0502
     66 H26         6.3660  -23.9650   -6.5296 H         1 78E         0.1883
     67 H27         7.1004  -25.0526   -3.9306 H         1 78E         0.0802
     68 H28         8.8724  -23.2883   -5.5826 H         1 78E         0.0343
     69 H29        10.0845  -25.3056   -6.3139 H         1 78E         0.0234
     70 H30         8.4114  -25.2427   -6.9648 H         1 78E         0.0234
     71 H31         8.8011  -26.3352   -5.5932 H         1 78E         0.0234
     72 H32         9.3456  -23.4863   -3.1334 H         1 78E         0.0234
     73 H33        10.6500  -24.1778   -4.1566 H         1 78E         0.0234
     74 H34         9.4866  -25.2665   -3.3272 H         1 78E         0.0234
     75 H35         5.9001  -24.2250   -2.4554 H         1 78E         0.1885
     76 H36         5.2184  -21.3614   -2.2878 H         1 78E         0.0825
     77 H37         4.4463  -23.9290   -0.7604 H         1 78E         0.0472
     78 H38         3.5501  -23.2371   -2.1549 H         1 78E         0.0472
     79 H39         2.2527  -21.0963   -1.8747 H         1 78E         0.0464
     80 H40         0.8734  -19.7493   -0.2820 H         1 78E         0.0572
     81 H41         4.1646  -23.0856    1.4478 H         1 78E         0.0478
     82 H42         1.1563  -20.0770    2.1775 H         1 78E         0.0485
     83 H43         3.5242  -22.4457    3.4549 H         1 78E         0.2479
@<TRIPOS>BOND
     1    1    3 1  
     2    4    1 1  
     3   11    2 1  
     4    2   12 1  
     5    3   12 1  
     6    3   39 am 
     7    5    4 1  
     8    4   11 1  
     9   14    5 1  
    10    5   16 2  
    11    9    6 1  
    12    6   14 1  
    13    7    9 1  
    14   10    7 2  
    15    8   17 2  
    16   21    8 1  
    17    8   22 am 
    18   13   10 1  
    19   15   13 2  
    20   18   15 1  
    21   19   18 1  
    22   20   19 1  
    23   20   21 1  
    24   22   23 1  
    25   23   24 1  
    26   23   26 1  
    27   24   25 2  
    28   24   29 am 
    29   26   27 1  
    30   26   28 1  
    31   29   30 1  
    32   30   31 1  
    33   30   39 1  
    34   31   32 1  
    35   32   33 ar 
    36   32   35 ar 
    37   33   34 ar 
    38   34   37 ar 
    39   35   36 ar 
    40   36   37 ar 
    41   36   38 1  
    42   39   40 2  
    43    1   41 1  
    44    1   42 1  
    45    2   43 1  
    46    2   44 1  
    47    4   45 1  
    48    6   46 1  
    49    6   47 1  
    50    7   48 1  
    51    9   49 1  
    52    9   50 1  
    53   10   51 1  
    54   11   52 1  
    55   11   53 1  
    56   12   54 1  
    57   12   55 1  
    58   13   56 1  
    59   15   57 1  
    60   18   58 1  
    61   18   59 1  
    62   19   60 1  
    63   19   61 1  
    64   20   62 1  
    65   20   63 1  
    66   21   64 1  
    67   21   65 1  
    68   22   66 1  
    69   23   67 1  
    70   26   68 1  
    71   27   69 1  
    72   27   70 1  
    73   27   71 1  
    74   28   72 1  
    75   28   73 1  
    76   28   74 1  
    77   29   75 1  
    78   30   76 1  
    79   31   77 1  
    80   31   78 1  
    81   33   79 1  
    82   34   80 1  
    83   35   81 1  
    84   37   82 1  
    85   38   83 1  
@<TRIPOS>SUBSTRUCTURE
     1 78E         1

