### 
### Created by X-TOOL on Mon Sep 10 21:13:31 2018
### 

@<TRIPOS>MOLECULE
5t9z_ligand
   93    96     1     0     0
SMALL
GAST_HUCK


@<TRIPOS>ATOM
      1 N2         15.6530   -5.7010   14.8880 N.4       1 78R         0.3834
      2 N1         14.9180   -5.5680   13.6760 N.am      1 78R        -0.2374
      3 C5         17.5830   -4.5940   13.8270 C.3       1 78R         0.0121
      4 C7         15.2140   -4.3800   12.8950 C.3       1 78R         0.0730
      5 C8         17.0950   -5.7900   14.6410 C.3       1 78R         0.1028
      6 C6         16.7210   -4.4800   12.5420 C.3       1 78R        -0.0204
      7 C23        10.4400  -10.7280   16.1020 C.2       1 78R         0.1835
      8 C24        10.2780  -11.5730   17.3790 C.3       1 78R         0.0722
      9 C25         8.8210  -12.0370   17.4510 C.3       1 78R        -0.0429
     10 C26        10.7420  -10.8110   18.6340 C.3       1 78R         0.0798
     11 C27        12.1770  -10.3000   18.3860 C.3       1 78R        -0.0124
     12 C28        13.0640  -10.7270   19.5230 C.3       1 78R        -0.0180
     13 C29        17.7340   -5.7590   16.0040 C.2       1 78R         0.2856
     14 C30        19.1410   -6.8610   17.4700 C.3       1 78R         0.1099
     15 C31        18.2520   -7.3150   18.6030 C.ar      1 78R        -0.0176
     16 C32        17.1150   -8.0690   18.3570 C.ar      1 78R        -0.0585
     17 C33        16.2840   -8.5470   19.3430 C.ar      1 78R        -0.0479
     18 C34        16.5730   -8.1810   20.6500 C.ar      1 78R        -0.0686
     19 C35        17.6960   -7.4020   20.9120 C.ar      1 78R        -0.0727
     20 C36        18.5750   -6.9420   19.9290 C.ar      1 78R        -0.0622
     21 C37        15.0970   -9.3350   18.9300 C.2       1 78R        -0.0685
     22 C38        14.2490   -9.8540   19.8140 C.2       1 78R        -0.0738
     23 C39         9.8540   -9.0330   20.1140 C.3       1 78R         0.0370
     24 O44        10.9160  -11.1960   15.0800 O.2       1 78R        -0.3965
     25 O45        17.6350   -4.9350   16.8500 O.2       1 78R        -0.3639
     26 O46         9.8440   -9.7050   18.8640 O.3       1 78R        -0.3769
     27 O47        18.5080   -6.8440   16.1620 O.3       1 78R        -0.2595
     28 N4         10.0780   -9.3770   16.2180 N.am      1 78R        -0.2651
     29 C19        10.2560   -8.5170   15.0340 C.3       1 78R         0.1332
     30 C18        11.6520   -7.8390   15.1110 C.2       1 78R         0.2043
     31 O43        11.8980   -7.0350   16.0260 O.2       1 78R        -0.3944
     32 C20         9.1200   -7.5080   14.8820 C.3       1 78R        -0.0063
     33 C21         9.3480   -6.6460   13.6290 C.3       1 78R        -0.0584
     34 C22         7.7380   -8.1670   14.7910 C.3       1 78R        -0.0584
     35 N3         12.5260   -8.2620   14.1770 N.am      1 78R        -0.2617
     36 C10        13.8780   -7.7630   14.2160 C.3       1 78R         0.1448
     37 C11        14.8470   -8.8110   13.6410 C.3       1 78R         0.0191
     38 C12        15.1340   -9.9870   14.5760 C.ar      1 78R        -0.0474
     39 C17        14.1530  -10.9730   14.8370 C.ar      1 78R        -0.0712
     40 C16        14.4680  -12.0580   15.6680 C.ar      1 78R        -0.0772
     41 C13        16.3980  -10.1000   15.1690 C.ar      1 78R        -0.0323
     42 C14        16.6560  -11.1990   15.9970 C.ar      1 78R         0.0809
     43 C15        15.6910  -12.1590   16.2930 C.ar      1 78R        -0.0403
     44 O42        17.8880  -11.3200   16.5890 O.3       1 78R        -0.3349
     45 C9         14.0190   -6.5240   13.3240 C.2       1 78R         0.2434
     46 O41        13.3910   -6.3970   12.2610 O.2       1 78R        -0.3893
     47 H1         15.3509   -6.5371   15.3631 H         1 78R         0.2307
     48 H2         15.4704   -4.8989   15.4704 H         1 78R         0.2307
     49 H3         18.6383   -4.7390   13.5528 H         1 78R         0.0347
     50 H4         17.4819   -3.6749   14.4229 H         1 78R         0.0347
     51 H5         15.0170   -3.4730   13.4854 H         1 78R         0.0573
     52 H6         14.6053   -4.3607   11.9790 H         1 78R         0.0573
     53 H7         17.3400   -6.7239   14.1139 H         1 78R         0.1123
     54 H8         16.8864   -5.3699   11.9170 H         1 78R         0.0290
     55 H9         17.0212   -3.5800   11.9853 H         1 78R         0.0290
     56 H10        10.9146  -12.4652   17.2863 H         1 78R         0.0561
     57 H11         8.5602  -12.5711   16.5254 H         1 78R         0.0257
     58 H12         8.1632  -11.1631   17.5678 H         1 78R         0.0257
     59 H13         8.6926  -12.7102   18.3114 H         1 78R         0.0257
     60 H14        10.7328  -11.4808   19.5065 H         1 78R         0.0626
     61 H15        12.1690   -9.2021   18.3195 H         1 78R         0.0321
     62 H16        12.5590  -10.7217   17.4446 H         1 78R         0.0321
     63 H17        13.4402  -11.7347   19.2927 H         1 78R         0.0467
     64 H18        12.4462  -10.7652   20.4323 H         1 78R         0.0467
     65 H19        20.0057   -7.5392   17.4218 H         1 78R         0.0777
     66 H20        19.4868   -5.8413   17.6950 H         1 78R         0.0777
     67 H21        16.8662   -8.2952   17.3265 H         1 78R         0.0514
     68 H22        15.9285   -8.4997   21.4612 H         1 78R         0.0524
     69 H23        17.9012   -7.1358   21.9426 H         1 78R         0.0588
     70 H24        19.4451   -6.3404   20.1658 H         1 78R         0.0522
     71 H25        14.9137   -9.4939   17.8684 H         1 78R         0.0428
     72 H26        14.4349   -9.6201   20.8612 H         1 78R         0.0736
     73 H27         9.1077   -8.2250   20.1018 H         1 78R         0.0524
     74 H28        10.8523   -8.6074   20.2936 H         1 78R         0.0524
     75 H29         9.6096   -9.7457   20.9154 H         1 78R         0.0524
     76 H30         9.7122   -9.0107   17.0736 H         1 78R         0.1883
     77 H31        10.2421   -9.1603   14.1418 H         1 78R         0.0802
     78 H32         9.1284   -6.8539   15.7664 H         1 78R         0.0343
     79 H33         8.5257   -5.9225   13.5272 H         1 78R         0.0234
     80 H34         9.3795   -7.2927   12.7398 H         1 78R         0.0234
     81 H35        10.3017   -6.1062   13.7238 H         1 78R         0.0234
     82 H36         7.5673   -8.7857   15.6843 H         1 78R         0.0234
     83 H37         7.6919   -8.7998   13.8924 H         1 78R         0.0234
     84 H38         6.9636   -7.3881   14.7311 H         1 78R         0.0234
     85 H39        12.2423   -8.9099   13.4700 H         1 78R         0.1885
     86 H40        14.1492   -7.5191   15.2538 H         1 78R         0.0825
     87 H41        15.8002   -8.3107   13.4150 H         1 78R         0.0472
     88 H42        14.4122   -9.2084   12.7120 H         1 78R         0.0472
     89 H43        13.1654  -10.8903   14.3979 H         1 78R         0.0464
     90 H44        13.7300  -12.8369   15.8222 H         1 78R         0.0572
     91 H45        17.1613   -9.3513   14.9903 H         1 78R         0.0478
     92 H46        15.8963  -12.9605   16.9934 H         1 78R         0.0485
     93 H47        18.4466  -10.6064   16.3039 H         1 78R         0.2479
@<TRIPOS>BOND
     1    1    2 1  
     2    5    1 1  
     3    2    4 1  
     4    2   45 am 
     5    5    3 1  
     6    3    6 1  
     7    6    4 1  
     8   13    5 1  
     9    8    7 1  
    10    7   24 2  
    11    7   28 am 
    12    8    9 1  
    13   10    8 1  
    14   11   10 1  
    15   10   26 1  
    16   12   11 1  
    17   22   12 1  
    18   13   25 2  
    19   27   13 1  
    20   15   14 1  
    21   14   27 1  
    22   16   15 ar 
    23   15   20 ar 
    24   17   16 ar 
    25   17   18 ar 
    26   21   17 1  
    27   18   19 ar 
    28   19   20 ar 
    29   21   22 2  
    30   26   23 1  
    31   28   29 1  
    32   29   30 1  
    33   29   32 1  
    34   30   31 2  
    35   30   35 am 
    36   32   33 1  
    37   32   34 1  
    38   35   36 1  
    39   36   37 1  
    40   36   45 1  
    41   37   38 1  
    42   38   39 ar 
    43   38   41 ar 
    44   39   40 ar 
    45   40   43 ar 
    46   41   42 ar 
    47   42   43 ar 
    48   42   44 1  
    49   45   46 2  
    50    1   47 1  
    51    1   48 1  
    52    3   49 1  
    53    3   50 1  
    54    4   51 1  
    55    4   52 1  
    56    5   53 1  
    57    6   54 1  
    58    6   55 1  
    59    8   56 1  
    60    9   57 1  
    61    9   58 1  
    62    9   59 1  
    63   10   60 1  
    64   11   61 1  
    65   11   62 1  
    66   12   63 1  
    67   12   64 1  
    68   14   65 1  
    69   14   66 1  
    70   16   67 1  
    71   18   68 1  
    72   19   69 1  
    73   20   70 1  
    74   21   71 1  
    75   22   72 1  
    76   23   73 1  
    77   23   74 1  
    78   23   75 1  
    79   28   76 1  
    80   29   77 1  
    81   32   78 1  
    82   33   79 1  
    83   33   80 1  
    84   33   81 1  
    85   34   82 1  
    86   34   83 1  
    87   34   84 1  
    88   35   85 1  
    89   36   86 1  
    90   37   87 1  
    91   37   88 1  
    92   39   89 1  
    93   40   90 1  
    94   41   91 1  
    95   43   92 1  
    96   44   93 1  
@<TRIPOS>SUBSTRUCTURE
     1 78R         1

