### 
### Created by X-TOOL on Mon Sep 10 21:13:31 2018
### 

@<TRIPOS>MOLECULE
5ta2_ligand
   96    99     1     0     0
SMALL
GAST_HUCK


@<TRIPOS>ATOM
      1 N1         14.9270   -5.4720   13.6050 N.am      1 78X        -0.2374
      2 N2         15.6280   -5.6400   14.8260 N.4       1 78X         0.3834
      3 C5         17.5580   -4.5110   13.7670 C.3       1 78X         0.0121
      4 C6         16.6970   -4.3090   12.5150 C.3       1 78X        -0.0204
      5 C7         15.2240   -4.2250   12.9030 C.3       1 78X         0.0730
      6 C8         17.0850   -5.6980   14.6150 C.3       1 78X         0.1028
      7 C23        10.4820  -10.6550   16.1900 C.2       1 78X         0.1835
      8 C24        10.3010  -11.4490   17.4860 C.3       1 78X         0.0722
      9 C25         8.8400  -11.9070   17.5820 C.3       1 78X        -0.0429
     10 C26        10.7130  -10.6510   18.7530 C.3       1 78X         0.0798
     11 C27        12.0860   -9.9630   18.6080 C.3       1 78X        -0.0124
     12 C28        13.2740  -10.8220   19.0590 C.3       1 78X        -0.0180
     13 C29        17.7100   -5.6000   15.9940 C.2       1 78X         0.2858
     14 C30        19.3250   -6.6120   17.4430 C.3       1 78X         0.1178
     15 C31        18.3970   -7.1780   18.5110 C.ar      1 78X        -0.0149
     16 C32        17.3060   -7.9950   18.1520 C.ar      1 78X        -0.0582
     17 C33        16.4370   -8.5350   19.1090 C.ar      1 78X        -0.0479
     18 C34        16.6740   -8.2460   20.4540 C.ar      1 78X        -0.0686
     19 C35        17.7480   -7.4410   20.8380 C.ar      1 78X        -0.0727
     20 C36        18.6100   -6.9130   19.8730 C.ar      1 78X        -0.0619
     21 C37        15.3020   -9.3830   18.6960 C.2       1 78X        -0.0685
     22 C38        14.4120   -9.9530   19.5280 C.2       1 78X        -0.0738
     23 C39         9.9210   -8.9130   20.2110 C.3       1 78X         0.0370
     24 C40        20.6270   -7.3890   17.2370 C.3       1 78X        -0.0242
     25 O44        10.9110  -11.1710   15.1620 O.2       1 78X        -0.3965
     26 O45        17.4280   -4.7640   16.8310 O.2       1 78X        -0.3639
     27 O46         9.7310   -9.6390   19.0020 O.3       1 78X        -0.3769
     28 O47        18.6340   -6.5860   16.1640 O.3       1 78X        -0.2564
     29 N3         12.5800   -8.1850   14.1450 N.am      1 78X        -0.2617
     30 C10        13.9630   -7.7010   14.1200 C.3       1 78X         0.1448
     31 C11        14.9120   -8.7800   13.5640 C.3       1 78X         0.0191
     32 C12        15.1970   -9.9540   14.4750 C.ar      1 78X        -0.0474
     33 C17        14.1590  -10.8270   14.8430 C.ar      1 78X        -0.0712
     34 C16        14.4060  -11.9130   15.6860 C.ar      1 78X        -0.0772
     35 C13        16.4900  -10.1990   14.9640 C.ar      1 78X        -0.0323
     36 C14        16.7200  -11.2950   15.7980 C.ar      1 78X         0.0809
     37 C15        15.6910  -12.1540   16.1620 C.ar      1 78X        -0.0403
     38 O42        17.9840  -11.5170   16.2570 O.3       1 78X        -0.3349
     39 C9         14.0660   -6.4780   13.2100 C.2       1 78X         0.2434
     40 O41        13.4320   -6.3930   12.1550 O.2       1 78X        -0.3893
     41 N4         10.1570   -9.3170   16.1570 N.am      1 78X        -0.2651
     42 C19        10.2960   -8.4150   15.0100 C.3       1 78X         0.1332
     43 C18        11.6830   -7.7770   15.1070 C.2       1 78X         0.2043
     44 O43        11.9450   -6.9880   16.0180 O.2       1 78X        -0.3944
     45 C20         9.1670   -7.3680   14.8900 C.3       1 78X        -0.0063
     46 C21         9.3730   -6.5590   13.6070 C.3       1 78X        -0.0584
     47 C22         7.7640   -7.9910   14.8550 C.3       1 78X        -0.0584
     48 H1         15.3265   -6.4983   15.2602 H         1 78X         0.2307
     49 H2         15.4167   -4.8638   15.4334 H         1 78X         0.2307
     50 H3         17.5112   -3.5983   14.3792 H         1 78X         0.0347
     51 H4         18.5976   -4.6909   13.4558 H         1 78X         0.0347
     52 H5         16.8455   -5.1568   11.8300 H         1 78X         0.0290
     53 H6         16.9955   -3.3763   12.0141 H         1 78X         0.0290
     54 H7         15.0502   -3.3626   13.5633 H         1 78X         0.0573
     55 H8         14.5958   -4.1317   12.0049 H         1 78X         0.0573
     56 H9         17.3653   -6.6422   14.1252 H         1 78X         0.1123
     57 H10        10.9430  -12.3405   17.4311 H         1 78X         0.0561
     58 H11         8.5716  -12.4689   16.6752 H         1 78X         0.0257
     59 H12         8.1855  -11.0279   17.6757 H         1 78X         0.0257
     60 H13         8.7153  -12.5527   18.4638 H         1 78X         0.0257
     61 H14        10.7528  -11.3435   19.6067 H         1 78X         0.0626
     62 H15        12.0763   -9.0441   19.2126 H         1 78X         0.0321
     63 H16        12.2311   -9.7036   17.5489 H         1 78X         0.0321
     64 H17        13.6150  -11.4386   18.2143 H         1 78X         0.0467
     65 H18        12.9546  -11.4751   19.8844 H         1 78X         0.0467
     66 H19        19.5833   -5.5838   17.7363 H         1 78X         0.0810
     67 H20        17.1342   -8.2120   17.1039 H         1 78X         0.0514
     68 H21        16.0141   -8.6528   21.2117 H         1 78X         0.0524
     69 H22        17.9137   -7.2250   21.8873 H         1 78X         0.0588
     70 H23        19.4473   -6.2957   20.1778 H         1 78X         0.0522
     71 H24        15.1745   -9.5621   17.6294 H         1 78X         0.0428
     72 H25        14.5197   -9.7771   20.5973 H         1 78X         0.0736
     73 H26         9.1241   -8.1622   20.3169 H         1 78X         0.0524
     74 H27        10.8985   -8.4091   20.1864 H         1 78X         0.0524
     75 H28         9.8872   -9.6064   21.0643 H         1 78X         0.0524
     76 H29        21.2232   -6.9034   16.4505 H         1 78X         0.0280
     77 H30        20.3944   -8.4212   16.9361 H         1 78X         0.0280
     78 H31        21.1994   -7.4010   18.1762 H         1 78X         0.0280
     79 H32        12.2788   -8.8304   13.4430 H         1 78X         0.1885
     80 H33        14.2697   -7.4318   15.1415 H         1 78X         0.0825
     81 H34        15.8716   -8.2952   13.3315 H         1 78X         0.0472
     82 H35        14.4665   -9.1740   12.6386 H         1 78X         0.0472
     83 H36        13.1562  -10.6558   14.4687 H         1 78X         0.0464
     84 H37        13.5929  -12.5710   15.9706 H         1 78X         0.0572
     85 H38        17.3071   -9.5395   14.6950 H         1 78X         0.0478
     86 H39        15.8866  -13.0016   16.8089 H         1 78X         0.0485
     87 H40        18.5649  -10.8455   15.9191 H         1 78X         0.2479
     88 H41         9.7898   -8.9217   16.9990 H         1 78X         0.1883
     89 H42        10.2622   -9.0247   14.0951 H         1 78X         0.0802
     90 H43         9.2263   -6.6943   15.7575 H         1 78X         0.0343
     91 H44         8.5727   -5.8102   13.5133 H         1 78X         0.0234
     92 H45         9.3465   -7.2345   12.7393 H         1 78X         0.0234
     93 H46        10.3478   -6.0508   13.6464 H         1 78X         0.0234
     94 H47         7.5999   -8.5767   15.7716 H         1 78X         0.0234
     95 H48         7.6771   -8.6498   13.9784 H         1 78X         0.0234
     96 H49         7.0099   -7.1928   14.7900 H         1 78X         0.0234
@<TRIPOS>BOND
     1    1    2 1  
     2    1    5 1  
     3   39    1 am 
     4    2    6 1  
     5    4    3 1  
     6    6    3 1  
     7    5    4 1  
     8    6   13 1  
     9    8    7 1  
    10    7   25 2  
    11    7   41 am 
    12    8    9 1  
    13   10    8 1  
    14   11   10 1  
    15   10   27 1  
    16   12   11 1  
    17   22   12 1  
    18   13   26 2  
    19   13   28 1  
    20   14   15 1  
    21   14   24 1  
    22   28   14 1  
    23   15   16 ar 
    24   15   20 ar 
    25   16   17 ar 
    26   17   18 ar 
    27   17   21 1  
    28   19   18 ar 
    29   20   19 ar 
    30   21   22 2  
    31   27   23 1  
    32   30   29 1  
    33   29   43 am 
    34   30   31 1  
    35   30   39 1  
    36   31   32 1  
    37   32   33 ar 
    38   32   35 ar 
    39   33   34 ar 
    40   34   37 ar 
    41   35   36 ar 
    42   36   37 ar 
    43   36   38 1  
    44   39   40 2  
    45   41   42 1  
    46   42   43 1  
    47   42   45 1  
    48   43   44 2  
    49   45   46 1  
    50   45   47 1  
    51    2   48 1  
    52    2   49 1  
    53    3   50 1  
    54    3   51 1  
    55    4   52 1  
    56    4   53 1  
    57    5   54 1  
    58    5   55 1  
    59    6   56 1  
    60    8   57 1  
    61    9   58 1  
    62    9   59 1  
    63    9   60 1  
    64   10   61 1  
    65   11   62 1  
    66   11   63 1  
    67   12   64 1  
    68   12   65 1  
    69   14   66 1  
    70   16   67 1  
    71   18   68 1  
    72   19   69 1  
    73   20   70 1  
    74   21   71 1  
    75   22   72 1  
    76   23   73 1  
    77   23   74 1  
    78   23   75 1  
    79   24   76 1  
    80   24   77 1  
    81   24   78 1  
    82   29   79 1  
    83   30   80 1  
    84   31   81 1  
    85   31   82 1  
    86   33   83 1  
    87   34   84 1  
    88   35   85 1  
    89   37   86 1  
    90   38   87 1  
    91   41   88 1  
    92   42   89 1  
    93   45   90 1  
    94   46   91 1  
    95   46   92 1  
    96   46   93 1  
    97   47   94 1  
    98   47   95 1  
    99   47   96 1  
@<TRIPOS>SUBSTRUCTURE
     1 78X         1

