### 
### Created by X-TOOL on Mon Sep 10 21:13:31 2018
### 

@<TRIPOS>MOLECULE
5ta4_ligand
   85    87     1     0     0
SMALL
GAST_HUCK


@<TRIPOS>ATOM
      1 N1          3.6970   17.0160    1.9790 N.am      1 838        -0.2376
      2 N2          4.0970   15.6990    1.6270 N.4       1 838         0.3834
      3 C5          2.2110   14.8470    3.0080 C.3       1 838         0.0121
      4 C6          1.8010   16.2890    3.3050 C.3       1 838        -0.0204
      5 C7          2.2480   17.1720    2.1460 C.3       1 838         0.0729
      6 C8          3.7100   14.7530    2.6940 C.3       1 838         0.1028
      7 C23        10.4410   19.2230    0.2060 C.2       1 838         0.1835
      8 C24        11.6800   18.5580   -0.4170 C.3       1 838         0.0722
      9 C25        12.4700   19.6410   -1.1640 C.3       1 838        -0.0429
     10 C26        11.3430   17.3140   -1.2900 C.3       1 838         0.0798
     11 C27        10.7680   16.0540   -0.5860 C.3       1 838        -0.0124
     12 C28         9.3930   16.2160    0.0950 C.3       1 838        -0.0180
     13 C29         4.0170   13.3590    2.1780 C.2       1 838         0.2858
     14 C30         5.2430   11.3770    2.7750 C.3       1 838         0.1178
     15 C31         6.2810   11.3870    1.6540 C.ar      1 838        -0.0149
     16 C32         7.0890   12.5330    1.3790 C.ar      1 838        -0.0582
     17 C33         8.0570   12.5410    0.3480 C.ar      1 838        -0.0479
     18 C34         8.2300   11.3800   -0.4210 C.ar      1 838        -0.0686
     19 C35         7.4470   10.2510   -0.1630 C.ar      1 838        -0.0727
     20 C36         6.4990   10.2550    0.8610 C.ar      1 838        -0.0619
     21 C37         8.8820   13.7330    0.0760 C.2       1 838        -0.0685
     22 C38         8.5510   14.9990    0.3730 C.2       1 838        -0.0738
     23 C39        10.7860   16.9580   -3.6380 C.3       1 838         0.0370
     24 C40         5.7340   10.8250    4.1060 C.3       1 838        -0.0242
     25 O44        10.3750   19.5020    1.3950 O.2       1 838        -0.3965
     26 O45         3.6270   12.9010    1.1190 O.2       1 838        -0.3639
     27 O46        10.6000   17.7180   -2.4530 O.3       1 838        -0.3769
     28 O47         4.8050   12.7240    3.0790 O.3       1 838        -0.2564
     29 N4          9.4060   19.4440   -0.6810 N.am      1 838        -0.2651
     30 C19         8.1260   20.0370   -0.3070 C.3       1 838         0.1332
     31 C18         7.1870   18.8950    0.0340 C.2       1 838         0.2041
     32 O43         6.7040   18.1680   -0.8310 O.2       1 838        -0.3944
     33 C20         7.5550   21.0420   -1.3160 C.3       1 838        -0.0063
     34 C21         6.3410   21.7710   -0.7300 C.3       1 838        -0.0584
     35 C22         8.6050   22.0690   -1.7470 C.3       1 838        -0.0584
     36 N3          6.9380   18.6760    1.3590 N.am      1 838        -0.2638
     37 C10         6.1280   17.5890    1.8960 C.3       1 838         0.1327
     38 C9          4.6720   17.9730    2.1070 C.2       1 838         0.2411
     39 O41         4.3810   19.1340    2.4260 O.2       1 838        -0.3895
     40 C11         6.7420   17.0400    3.1720 C.3       1 838        -0.0242
     41 H1          5.0974   15.6748    1.5058 H         1 838         0.2307
     42 H2          3.6475   15.4324    0.7650 H         1 838         0.2307
     43 H3          1.6390   14.4818    2.1423 H         1 838         0.0347
     44 H4          1.9878   14.2220    3.8852 H         1 838         0.0347
     45 H5          2.2822   16.6268    4.2347 H         1 838         0.0290
     46 H6          0.7081   16.3480    3.4153 H         1 838         0.0290
     47 H7          1.7323   16.8648    1.2242 H         1 838         0.0573
     48 H8          2.0102   18.2231    2.3663 H         1 838         0.0573
     49 H9          4.2894   14.9602    3.6058 H         1 838         0.1123
     50 H10        12.3124   18.1968    0.4074 H         1 838         0.0561
     51 H11        12.6693   20.4833   -0.4852 H         1 838         0.0257
     52 H12        11.8836   19.9947   -2.0248 H         1 838         0.0257
     53 H13        13.4234   19.2214   -1.5174 H         1 838         0.0257
     54 H14        12.3177   16.9760   -1.6718 H         1 838         0.0626
     55 H15        11.4886   15.7431    0.1848 H         1 838         0.0321
     56 H16        10.6753   15.2609   -1.3426 H         1 838         0.0321
     57 H17         8.7944   16.8781   -0.5479 H         1 838         0.0467
     58 H18         9.5720   16.7080    1.0624 H         1 838         0.0467
     59 H19         4.3878   10.7752    2.4337 H         1 838         0.0810
     60 H20         6.9557   13.4252    1.9801 H         1 838         0.0514
     61 H21         8.9693   11.3586   -1.2135 H         1 838         0.0524
     62 H22         7.5781    9.3602   -0.7667 H         1 838         0.0588
     63 H23         5.9173    9.3593    1.0466 H         1 838         0.0522
     64 H24         9.8440   13.5715   -0.4082 H         1 838         0.0428
     65 H25         7.5892   15.1604    0.8575 H         1 838         0.0736
     66 H26        10.1618   17.3744   -4.4424 H         1 838         0.0524
     67 H27        10.4963   15.9131   -3.4528 H         1 838         0.0524
     68 H28        11.8439   16.9978   -3.9369 H         1 838         0.0524
     69 H29         4.9170   10.8610    4.8417 H         1 838         0.0280
     70 H30         6.5781   11.4317    4.4656 H         1 838         0.0280
     71 H31         6.0616    9.7834    3.9726 H         1 838         0.0280
     72 H32         9.5416   19.1821   -1.6365 H         1 838         0.1883
     73 H33         8.2935   20.6078    0.6183 H         1 838         0.0802
     74 H34         7.2308   20.4840   -2.2068 H         1 838         0.0343
     75 H35         5.9496   22.4847   -1.4699 H         1 838         0.0234
     76 H36         6.6421   22.3130    0.1786 H         1 838         0.0234
     77 H37         5.5598   21.0386   -0.4782 H         1 838         0.0234
     78 H38         9.4771   21.5472   -2.1679 H         1 838         0.0234
     79 H39         8.9181   22.6615   -0.8747 H         1 838         0.0234
     80 H40         8.1745   22.7363   -2.5082 H         1 838         0.0234
     81 H41         7.3443   19.3130    2.0141 H         1 838         0.1883
     82 H42         6.1406   16.7802    1.1506 H         1 838         0.0799
     83 H43         6.1153   16.2227    3.5583 H         1 838         0.0277
     84 H44         6.8040   17.8411    3.9233 H         1 838         0.0277
     85 H45         7.7514   16.6585    2.9586 H         1 838         0.0277
@<TRIPOS>BOND
     1    2    1 1  
     2    1    5 1  
     3    1   38 am 
     4    6    2 1  
     5    3    4 1  
     6    6    3 1  
     7    4    5 1  
     8   13    6 1  
     9    8    7 1  
    10    7   25 2  
    11    7   29 am 
    12    8    9 1  
    13   10    8 1  
    14   11   10 1  
    15   10   27 1  
    16   12   11 1  
    17   22   12 1  
    18   13   26 2  
    19   28   13 1  
    20   15   14 1  
    21   14   24 1  
    22   14   28 1  
    23   16   15 ar 
    24   15   20 ar 
    25   17   16 ar 
    26   17   18 ar 
    27   21   17 1  
    28   18   19 ar 
    29   19   20 ar 
    30   21   22 2  
    31   27   23 1  
    32   29   30 1  
    33   30   31 1  
    34   30   33 1  
    35   31   32 2  
    36   31   36 am 
    37   33   34 1  
    38   33   35 1  
    39   36   37 1  
    40   37   38 1  
    41   37   40 1  
    42   38   39 2  
    43    2   41 1  
    44    2   42 1  
    45    3   43 1  
    46    3   44 1  
    47    4   45 1  
    48    4   46 1  
    49    5   47 1  
    50    5   48 1  
    51    6   49 1  
    52    8   50 1  
    53    9   51 1  
    54    9   52 1  
    55    9   53 1  
    56   10   54 1  
    57   11   55 1  
    58   11   56 1  
    59   12   57 1  
    60   12   58 1  
    61   14   59 1  
    62   16   60 1  
    63   18   61 1  
    64   19   62 1  
    65   20   63 1  
    66   21   64 1  
    67   22   65 1  
    68   23   66 1  
    69   23   67 1  
    70   23   68 1  
    71   24   69 1  
    72   24   70 1  
    73   24   71 1  
    74   29   72 1  
    75   30   73 1  
    76   33   74 1  
    77   34   75 1  
    78   34   76 1  
    79   34   77 1  
    80   35   78 1  
    81   35   79 1  
    82   35   80 1  
    83   36   81 1  
    84   37   82 1  
    85   40   83 1  
    86   40   84 1  
    87   40   85 1  
@<TRIPOS>SUBSTRUCTURE
     1 838         1

