### 
### Created by X-TOOL on Mon Sep 10 21:13:32 2018
### 

@<TRIPOS>MOLECULE
5ta6_ligand
   79    84     1     0     0
SMALL
GAST_HUCK


@<TRIPOS>ATOM
      1 C6         10.7610   46.5050   10.9780 C.3       1 79D         0.0456
      2 C7          9.9130   47.4910   11.8400 C.3       1 79D        -0.0293
      3 C8         10.9170   48.6580   12.0110 C.3       1 79D        -0.0509
      4 C10        12.1790   46.5820   11.5990 C.3       1 79D        -0.0293
      5 N12        11.4260   44.8380    8.8950 N.ar      1 79D        -0.2414
      6 C13        11.7090   44.1400    7.8070 C.ar      1 79D         0.1869
      7 C15        13.4150   45.7480    6.8540 C.ar      1 79D         0.0998
      8 C17        13.9960   47.9530    7.5830 C.ar      1 79D        -0.0625
      9 C20        14.4800   45.7790    5.9390 C.ar      1 79D         0.1204
     10 C22        15.8550   44.4420    4.4290 C.3       1 79D         0.0570
     11 C26        17.0130   51.2120    7.6660 C.3       1 79D         0.0509
     12 C28        16.9390   53.6890    8.1990 C.3       1 79D        -0.0300
     13 C1         11.4680   42.9050   12.7570 C.3       1 79D        -0.0607
     14 C2         10.4950   44.0070   13.1940 C.3       1 79D        -0.0163
     15 C3          9.5460   44.4890   12.0710 C.3       1 79D         0.1150
     16 N5         10.2430   45.1140   10.9180 N.pl3     1 79D        -0.2655
     17 C9         12.2580   47.9560   12.2970 C.3       1 79D        -0.0509
     18 C11        10.5370   44.3930    9.7790 C.ar      1 79D         0.1597
     19 N14        12.6400   44.5730    6.8630 N.pl3     1 79D        -0.2480
     20 C16        13.1750   46.8440    7.6760 C.ar      1 79D        -0.0400
     21 C18        15.0790   47.9990    6.6800 C.ar      1 79D         0.0288
     22 C19        15.3100   46.8950    5.8400 C.ar      1 79D        -0.0226
     23 O21        14.6460   44.6640    5.1650 O.3       1 79D        -0.3242
     24 C23        15.9480   49.2040    6.5960 C.2       1 79D         0.1939
     25 O24        16.4440   49.4770    5.5270 O.2       1 79D        -0.3902
     26 N25        16.1850   49.9920    7.6770 N.am      1 79D        -0.2846
     27 C27        16.1520   52.3710    8.1790 C.3       1 79D         0.0106
     28 N29        18.1370   53.5600    9.0460 N.4       1 79D         0.2332
     29 C30        18.8950   54.8210    9.0080 C.3       1 79D        -0.0431
     30 C31        18.9980   52.4190    8.6690 C.3       1 79D        -0.0300
     31 C32        18.2270   51.0820    8.5950 C.3       1 79D         0.0106
     32 N33        11.1250   42.9770    7.5560 N.ar      1 79D        -0.2750
     33 C34        10.2300   42.4580    8.3780 C.ar      1 79D         0.0363
     34 C35         9.9250   43.1520    9.5200 C.ar      1 79D         0.1625
     35 N36         8.9470   42.6890   10.4020 N.pl3     1 79D        -0.1817
     36 C37         8.0270   41.7070   10.2710 C.2       1 79D         0.1156
     37 N38         7.2830   41.6720   11.3400 N.2       1 79D        -0.3057
     38 C39         7.7060   42.6720   12.1700 C.2       1 79D         0.1406
     39 C40         7.1740   43.0010   13.4450 C.1       1 79D         0.0603
     40 N41         6.7340   43.2420   14.4510 N.1       1 79D        -0.3718
     41 C42         8.7230   43.3240   11.5940 C.2       1 79D         0.1448
     42 H1         10.7968   46.8813    9.9450 H         1 79D         0.0562
     43 H2          9.6369   47.0485   12.8085 H         1 79D         0.0288
     44 H3          9.0036   47.8127   11.3113 H         1 79D         0.0288
     45 H4         10.6264   49.3039   12.8526 H         1 79D         0.0266
     46 H5         10.9784   49.2590   11.0918 H         1 79D         0.0266
     47 H6         12.9457   46.5066   10.8138 H         1 79D         0.0288
     48 H7         12.3217   45.7724   12.3298 H         1 79D         0.0288
     49 H8         13.8025   48.8085    8.2200 H         1 79D         0.0549
     50 H9         15.7796   43.4932    3.8776 H         1 79D         0.0573
     51 H10        16.7049   44.3946    5.1257 H         1 79D         0.0573
     52 H11        16.0087   45.2677    3.7186 H         1 79D         0.0573
     53 H12        17.3547   51.4151    6.6403 H         1 79D         0.0559
     54 H13        16.2973   54.4881    8.5985 H         1 79D         0.0815
     55 H14        17.2459   53.9433    7.1738 H         1 79D         0.0815
     56 H15        12.1043   42.6192   13.6076 H         1 79D         0.0232
     57 H16        12.0987   43.2770   11.9361 H         1 79D         0.0232
     58 H17        10.8990   42.0283   12.4139 H         1 79D         0.0232
     59 H18        11.0825   44.8686   13.5441 H         1 79D         0.0315
     60 H19         9.8829   43.6199   14.0219 H         1 79D         0.0315
     61 H20         8.8714   45.2435   12.5018 H         1 79D         0.0806
     62 H21        12.3977   47.8263   13.3804 H         1 79D         0.0266
     63 H22        13.0921   48.5448   11.8876 H         1 79D         0.0266
     64 H23        12.7802   43.9444    6.0592 H         1 79D         0.2150
     65 H24        12.3528   46.8291    8.3823 H         1 79D         0.0517
     66 H25        16.1237   46.9115    5.1240 H         1 79D         0.0554
     67 H26        15.7666   49.7246    8.5450 H         1 79D         0.1844
     68 H27        15.8140   52.1408    9.2001 H         1 79D         0.0339
     69 H28        15.2783   52.4862    7.5207 H         1 79D         0.0339
     70 H29        17.8285   53.4057    9.9931 H         1 79D         0.2030
     71 H30        19.7910   54.7293    9.6394 H         1 79D         0.0777
     72 H31        18.2638   55.6397    9.3838 H         1 79D         0.0777
     73 H32        19.1968   55.0364    7.9724 H         1 79D         0.0777
     74 H33        19.7986   52.3214    9.4170 H         1 79D         0.0815
     75 H34        19.4404   52.6240    7.6829 H         1 79D         0.0815
     76 H35        18.8963   50.2992    8.2086 H         1 79D         0.0339
     77 H36        17.8836   50.8061    9.6029 H         1 79D         0.0339
     78 H37         9.7511   41.5113    8.1557 H         1 79D         0.0807
     79 H38         7.9242   41.0497    9.4089 H         1 79D         0.1223
@<TRIPOS>BOND
     1    1    2 1  
     2    1    4 1  
     3   16    1 1  
     4    2    3 1  
     5   17    3 1  
     6    4   17 1  
     7    6    5 ar 
     8    5   18 ar 
     9   19    6 1  
    10    6   32 ar 
    11    9    7 ar 
    12    7   19 1  
    13   20    7 ar 
    14    8   20 ar 
    15   21    8 ar 
    16   22    9 ar 
    17    9   23 1  
    18   23   10 1  
    19   26   11 1  
    20   11   27 1  
    21   11   31 1  
    22   27   12 1  
    23   12   28 1  
    24   14   13 1  
    25   15   14 1  
    26   16   15 1  
    27   15   41 1  
    28   18   16 1  
    29   18   34 ar 
    30   21   22 ar 
    31   24   21 1  
    32   24   25 2  
    33   24   26 am 
    34   28   29 1  
    35   28   30 1  
    36   30   31 1  
    37   32   33 ar 
    38   33   34 ar 
    39   34   35 1  
    40   35   36 1  
    41   35   41 1  
    42   36   37 2  
    43   37   38 1  
    44   38   39 1  
    45   38   41 2  
    46   39   40 3  
    47    1   42 1  
    48    2   43 1  
    49    2   44 1  
    50    3   45 1  
    51    3   46 1  
    52    4   47 1  
    53    4   48 1  
    54    8   49 1  
    55   10   50 1  
    56   10   51 1  
    57   10   52 1  
    58   11   53 1  
    59   12   54 1  
    60   12   55 1  
    61   13   56 1  
    62   13   57 1  
    63   13   58 1  
    64   14   59 1  
    65   14   60 1  
    66   15   61 1  
    67   17   62 1  
    68   17   63 1  
    69   19   64 1  
    70   20   65 1  
    71   22   66 1  
    72   26   67 1  
    73   27   68 1  
    74   27   69 1  
    75   28   70 1  
    76   29   71 1  
    77   29   72 1  
    78   29   73 1  
    79   30   74 1  
    80   30   75 1  
    81   31   76 1  
    82   31   77 1  
    83   33   78 1  
    84   36   79 1  
@<TRIPOS>SUBSTRUCTURE
     1 79D         1

