### 
### Created by X-TOOL on Mon Sep 10 21:13:27 2018
### 

@<TRIPOS>MOLECULE
5tb6_ligand
   36    38     1     0     0
SMALL
GAST_HUCK


@<TRIPOS>ATOM
      1 CAS         1.5990   14.6090   22.5940 C.3       1 77X        -0.0482
      2 CAR         0.2800   14.7420   23.3210 C.3       1 77X         0.0347
      3 CAP         0.3690   14.5840   24.8520 C.2       1 77X         0.1796
      4 OAQ         1.4400   14.7530   25.4640 O.2       1 77X        -0.3968
      5 NAH        -0.7480   14.1900   25.4920 N.am      1 77X        -0.2652
      6 CAG        -0.7520   13.9960   26.9860 C.3       1 77X         0.0437
      7 CAF        -1.0330   12.5260   27.3000 C.3       1 77X         0.0048
      8 CAI        -1.9870   13.9030   24.7110 C.3       1 77X         0.0567
      9 CAD        -2.5300   12.5620   25.1860 C.2       1 77X         0.0058
     10 CAC        -2.0780   11.9600   26.3520 C.2       1 77X         0.0209
     11 NAB        -2.7500   10.8020   26.4270 N.2       1 77X        -0.2297
     12 NAA        -3.5510   10.6710   25.4850 N.pl3     1 77X        -0.2301
     13 CAE        -3.4750   11.6830   24.6350 C.2       1 77X         0.0846
     14 CAJ        -4.2480   11.8200   23.4610 C.ar      1 77X         0.0010
     15 CAK        -4.5250   10.6940   22.6860 C.ar      1 77X        -0.0554
     16 CAL        -5.3020   10.8500   21.5510 C.ar      1 77X        -0.0640
     17 CAM        -5.8220   12.0820   21.1740 C.ar      1 77X        -0.0643
     18 CAN        -5.5660   13.2110   21.9320 C.ar      1 77X        -0.0640
     19 CAO        -4.7830   13.0450   23.0690 C.ar      1 77X        -0.0554
     20 H1          1.4365   14.7357   21.5135 H         1 77X         0.0254
     21 H2          2.0250   13.6132   22.7864 H         1 77X         0.0254
     22 H3          2.2951   15.3813   22.9531 H         1 77X         0.0254
     23 H4         -0.4027   13.9701   22.9361 H         1 77X         0.0500
     24 H5         -0.1325   15.7381   23.1029 H         1 77X         0.0500
     25 H6         -1.5340   14.6247   27.4368 H         1 77X         0.0543
     26 H7          0.2283   14.2793   27.3967 H         1 77X         0.0543
     27 H8         -1.4008   12.4422   28.3333 H         1 77X         0.0425
     28 H9         -0.1015   11.9505   27.1945 H         1 77X         0.0425
     29 H10        -1.7509   13.8532   23.6378 H         1 77X         0.0622
     30 H11        -2.7323   14.6928   24.8862 H         1 77X         0.0622
     31 H12        -4.1942    9.8735   25.3791 H         1 77X         0.2454
     32 H13        -4.1409    9.7197   22.9658 H         1 77X         0.0601
     33 H14        -5.5117    9.9823   20.9360 H         1 77X         0.0611
     34 H15        -6.4317   12.1592   20.2810 H         1 77X         0.0596
     35 H16        -5.9585   14.1818   21.6518 H         1 77X         0.0611
     36 H17        -4.5781   13.9147   23.6827 H         1 77X         0.0601
@<TRIPOS>BOND
     1    1    2 1  
     2    2    3 1  
     3    3    4 2  
     4    3    5 am 
     5    5    6 1  
     6    5    8 1  
     7    6    7 1  
     8    7   10 1  
     9    8    9 1  
    10    9   10 1  
    11    9   13 2  
    12   10   11 2  
    13   11   12 1  
    14   12   13 1  
    15   13   14 1  
    16   14   15 ar 
    17   14   19 ar 
    18   15   16 ar 
    19   16   17 ar 
    20   17   18 ar 
    21   18   19 ar 
    22    1   20 1  
    23    1   21 1  
    24    1   22 1  
    25    2   23 1  
    26    2   24 1  
    27    6   25 1  
    28    6   26 1  
    29    7   27 1  
    30    7   28 1  
    31    8   29 1  
    32    8   30 1  
    33   12   31 1  
    34   15   32 1  
    35   16   33 1  
    36   17   34 1  
    37   18   35 1  
    38   19   36 1  
@<TRIPOS>SUBSTRUCTURE
     1 77X         1

