### 
### Created by X-TOOL on Mon Sep 10 21:13:32 2018
### 

@<TRIPOS>MOLECULE
5tbe_ligand
   72    77     1     0     0
SMALL
GAST_HUCK


@<TRIPOS>ATOM
      1 CAW        20.4440   11.5210  -27.9970 C.3       1 78L         0.0428
      2 CAX        21.7350   11.9300  -28.7300 C.3       1 78L         0.0664
      3 OAY        22.7530   12.3640  -27.7900 O.3       1 78L        -0.3760
      4 CAZ        22.9920   11.4490  -26.7190 C.3       1 78L         0.0664
      5 CBA        21.6930   11.1080  -26.0030 C.3       1 78L         0.0428
      6 NAV        20.7080   10.5130  -26.9460 N.pl3     1 78L        -0.3337
      7 CAU        19.4600   10.1220  -26.2250 C.2       1 78L        -0.0099
      8 CAT        19.1350    9.0430  -26.1910 C.2       1 78L         0.0153
      9 NAR        19.7730    8.1280  -27.2080 N.am      1 78L        -0.2619
     10 CAQ        19.6310    6.7790  -27.4150 C.2       1 78L         0.2202
     11 OAS        20.3770    6.2650  -28.2570 O.2       1 78L        -0.3805
     12 CAM        18.8140    5.9240  -26.5930 C.ar      1 78L         0.0530
     13 CAL        19.1130    4.5120  -26.5340 C.ar      1 78L        -0.0299
     14 CAA        18.4070    3.5630  -25.7560 C.ar      1 78L         0.0379
     15 CAG        18.8090    2.1910  -25.7990 C.2       1 78L         0.1428
     16 OAP        19.1320    1.7010  -26.8980 O.2       1 78L        -0.3820
     17 CAN        17.7250    6.3230  -25.8060 C.ar      1 78L        -0.0440
     18 CAO        17.0170    5.3960  -25.0310 C.ar      1 78L        -0.0486
     19 CAB        17.3480    4.0290  -25.0180 C.ar      1 78L        -0.0178
     20 CAC        16.6040    3.1950  -24.1380 C.3       1 78L        -0.0030
     21 CAD        17.6060    2.7310  -22.9870 C.3       1 78L        -0.0070
     22 CAE        18.3400    1.5900  -23.4050 C.ar      1 78L        -0.0323
     23 CAH        18.5310    0.6330  -22.3850 C.ar      1 78L        -0.0328
     24 CAF        18.8610    1.3470  -24.6710 C.ar      1 78L         0.0217
     25 CAK        19.5310    0.1300  -24.9050 C.ar      1 78L        -0.0600
     26 CAJ        19.6840   -0.8340  -23.8950 C.ar      1 78L        -0.0406
     27 CAI        19.2010   -0.5920  -22.6030 C.ar      1 78L         0.0549
     28 NBB        19.3190   -1.4270  -21.5400 N.pl3     1 78L        -0.2783
     29 CBC        20.0820   -2.5500  -21.4100 C.ar      1 78L         0.0761
     30 CBD        19.4840   -3.6200  -20.7600 C.ar      1 78L        -0.0222
     31 CBH        21.4350   -2.6440  -21.8170 C.ar      1 78L         0.1357
     32 FBI        22.0590   -1.7650  -22.3870 F         1 78L        -0.2043
     33 CBG        22.1100   -3.8250  -21.6190 C.ar      1 78L        -0.0173
     34 CBF        21.4800   -4.9070  -21.0000 C.ar      1 78L         0.1373
     35 FBJ        22.2260   -6.1070  -20.8230 F         1 78L        -0.2042
     36 CBE        20.1480   -4.8270  -20.5690 C.ar      1 78L         0.0855
     37 NBK        19.6350   -5.9430  -19.9450 N.am      1 78L        -0.2387
     38 CBL        18.3200   -6.3300  -20.0640 C.2       1 78L         0.2326
     39 OBN        17.4520   -5.7080  -20.6990 O.2       1 78L        -0.3808
     40 CBM        17.9100   -7.4440  -19.3840 C.2       1 78L         0.1054
     41 SBR        16.6530   -8.4590  -19.9240 S.3       1 78L        -0.0255
     42 CBQ        16.7900   -9.4910  -18.5400 C.2       1 78L         0.0010
     43 CBP        17.7580   -9.0190  -17.7390 C.2       1 78L        -0.0665
     44 CBO        18.3520   -7.9140  -18.1920 C.2       1 78L        -0.0546
     45 H1         19.7380   11.0984  -28.7270 H         1 78L         0.0526
     46 H2         20.0001   12.4134  -27.5317 H         1 78L         0.0526
     47 H3         21.5097   12.7548  -29.4220 H         1 78L         0.0579
     48 H4         22.1144   11.0679  -29.2981 H         1 78L         0.0579
     49 H5         23.6900   11.9063  -26.0023 H         1 78L         0.0579
     50 H6         23.4340   10.5267  -27.1238 H         1 78L         0.0579
     51 H7         21.2684   12.0259  -25.5704 H         1 78L         0.0526
     52 H8         21.9032   10.3870  -25.1993 H         1 78L         0.0526
     53 H9         18.8602   10.8838  -25.7291 H         1 78L         0.0539
     54 H10        18.4048    8.6826  -25.4680 H         1 78L         0.0633
     55 H11        20.4053    8.5810  -27.8364 H         1 78L         0.2161
     56 H12        19.9422    4.1511  -27.1317 H         1 78L         0.0704
     57 H13        17.4262    7.3650  -25.7971 H         1 78L         0.0686
     58 H14        16.1891    5.7423  -24.4229 H         1 78L         0.0581
     59 H15        16.2192    2.3192  -24.6810 H         1 78L         0.0473
     60 H16        15.7631    3.7563  -23.7046 H         1 78L         0.0473
     61 H17        17.0305    2.4815  -22.0834 H         1 78L         0.0463
     62 H18        18.3050    3.5500  -22.7621 H         1 78L         0.0463
     63 H19        18.1480    0.8466  -21.3937 H         1 78L         0.0476
     64 H20        19.9389   -0.0675  -25.8897 H         1 78L         0.0621
     65 H21        20.1796   -1.7721  -24.1172 H         1 78L         0.0489
     66 H22        18.7533   -1.1779  -20.7161 H         1 78L         0.2077
     67 H23        18.4706   -3.5122  -20.3906 H         1 78L         0.0390
     68 H24        23.1394   -3.9173  -21.9459 H         1 78L         0.0523
     69 H25        20.2462   -6.4971  -19.3798 H         1 78L         0.2221
     70 H26        16.1884  -10.3787  -18.3504 H         1 78L         0.0801
     71 H27        18.0345   -9.4969  -16.8004 H         1 78L         0.0437
     72 H28        19.1463   -7.4180  -17.6362 H         1 78L         0.0515
@<TRIPOS>BOND
     1    1    2 1  
     2    1    6 1  
     3    2    3 1  
     4    3    4 1  
     5    4    5 1  
     6    5    6 1  
     7    6    7 1  
     8    7    8 2  
     9    8    9 1  
    10    9   10 am 
    11   10   11 2  
    12   10   12 1  
    13   12   13 ar 
    14   12   17 ar 
    15   13   14 ar 
    16   14   15 1  
    17   14   19 ar 
    18   15   16 2  
    19   15   24 1  
    20   17   18 ar 
    21   18   19 ar 
    22   19   20 1  
    23   20   21 1  
    24   21   22 1  
    25   22   23 ar 
    26   22   24 ar 
    27   23   27 ar 
    28   24   25 ar 
    29   25   26 ar 
    30   26   27 ar 
    31   27   28 1  
    32   28   29 1  
    33   29   30 ar 
    34   29   31 ar 
    35   30   36 ar 
    36   31   32 1  
    37   31   33 ar 
    38   33   34 ar 
    39   34   35 1  
    40   34   36 ar 
    41   36   37 1  
    42   37   38 am 
    43   38   39 2  
    44   38   40 1  
    45   40   41 1  
    46   40   44 2  
    47   41   42 1  
    48   42   43 2  
    49   43   44 1  
    50    1   45 1  
    51    1   46 1  
    52    2   47 1  
    53    2   48 1  
    54    4   49 1  
    55    4   50 1  
    56    5   51 1  
    57    5   52 1  
    58    7   53 1  
    59    8   54 1  
    60    9   55 1  
    61   13   56 1  
    62   17   57 1  
    63   18   58 1  
    64   20   59 1  
    65   20   60 1  
    66   21   61 1  
    67   21   62 1  
    68   23   63 1  
    69   25   64 1  
    70   26   65 1  
    71   28   66 1  
    72   30   67 1  
    73   33   68 1  
    74   37   69 1  
    75   42   70 1  
    76   43   71 1  
    77   44   72 1  
@<TRIPOS>SUBSTRUCTURE
     1 78L         1

