### 
### Created by X-TOOL on Fri Nov  2 10:20:15 2018
### 

@<TRIPOS>MOLECULE
5tbj_ligand
   59    62     1     0     0
SMALL
GAST_HUCK


@<TRIPOS>ATOM
      1 C1         50.8410   41.2690  126.1390 C.ar      1 LHD         0.1298
      2 C2         50.6920   40.0390  126.8070 C.ar      1 LHD         0.1045
      3 C3         50.5800   40.0830  128.1860 C.ar      1 LHD         0.1613
      4 N1         50.6050   41.1760  128.9580 N.ar      1 LHD        -0.2714
      5 C4         50.7610   42.2770  128.2190 C.ar      1 LHD         0.0533
      6 N2         50.8760   42.3890  126.8920 N.ar      1 LHD        -0.2698
      7 N3         50.4600   38.7760  128.5900 N.pl3     1 LHD        -0.1919
      8 C5         50.5120   38.0250  127.4500 C.2       1 LHD         0.1123
      9 N4         50.6490   38.7300  126.3520 N.2       1 LHD        -0.2958
     10 C6         50.2940   38.2800  129.9580 C.3       1 LHD         0.2009
     11 O1         51.4770   37.6010  130.3320 O.3       1 LHD        -0.3389
     12 C7         51.1500   36.4250  131.1090 C.3       1 LHD         0.0954
     13 C8         49.6400   36.4670  131.3210 C.3       1 LHD         0.1126
     14 C9         49.1540   37.2750  130.1160 C.3       1 LHD         0.1384
     15 O2         47.9140   37.9250  130.3750 O.3       1 LHD        -0.3836
     16 O3         49.3070   37.0890  132.5560 O.3       1 LHD        -0.3865
     17 N5         52.7440   32.9530  130.4760 N.4       1 LHD         0.2333
     18 C10        53.3100   31.8540  131.3050 C.3       1 LHD        -0.0159
     19 C11        52.2040   30.8700  131.5020 C.2       1 LHD         0.0670
     20 N6         50.9350   41.3870  124.8110 N.pl3     1 LHD        -0.3152
     21 C12        51.3230   30.8770  132.6410 C.cat     1 LHD         0.2644
     22 N7         50.3150   30.0090  132.7700 N.am      1 LHD        -0.1984
     23 C13        50.0810   29.0690  131.8160 C.2       1 LHD         0.2952
     24 N8         50.9160   29.0320  130.6990 N.am      1 LHD        -0.1976
     25 C14        51.9480   29.9220  130.5820 C.2       1 LHD         0.0317
     26 N9         51.5240   31.7760  133.6100 N.pl3     1 LHD        -0.2236
     27 C15        50.7230   28.0860  129.5910 C.3       1 LHD         0.1540
     28 O4         50.7280   26.7510  130.0110 O.3       1 LHD        -0.3555
     29 C16        51.8060   26.4110  130.8640 C.3       1 LHD         0.0394
     30 O5         49.1580   28.2580  131.9010 O.2       1 LHD        -0.3906
     31 C17        51.6740   35.1970  130.3930 C.3       1 LHD         0.0163
     32 C18        52.1900   34.0830  131.2810 C.3       1 LHD        -0.0305
     33 H1         50.7997   43.2088  128.7715 H         1 LHD         0.0996
     34 H2         50.4457   36.9380  127.4524 H         1 LHD         0.1349
     35 H3         50.1171   39.1356  130.6264 H         1 LHD         0.0996
     36 H4         51.6417   36.4790  132.0915 H         1 LHD         0.0626
     37 H5         49.2142   35.4529  131.3055 H         1 LHD         0.0647
     38 H6         49.0515   36.6402  129.2235 H         1 LHD         0.0676
     39 H7         48.0164   38.5188  131.1094 H         1 LHD         0.2101
     40 H8         48.3633   37.1769  132.6207 H         1 LHD         0.2100
     41 H9         52.0036   32.5741  129.9066 H         1 LHD         0.2020
     42 H10        53.4744   33.3128  129.8817 H         1 LHD         0.2020
     43 H11        53.6504   32.2446  132.2753 H         1 LHD         0.0884
     44 H12        54.1546   31.3793  130.7841 H         1 LHD         0.0884
     45 H13        51.0429   42.3176  124.3830 H         1 LHD         0.1820
     46 H14        50.8996   40.5473  124.2156 H         1 LHD         0.1820
     47 H15        49.7263   30.0514  133.5772 H         1 LHD         0.1927
     48 H16        52.5911   29.8607  129.7053 H         1 LHD         0.0808
     49 H17        52.2950   32.4544  133.5312 H         1 LHD         0.4598
     50 H18        50.9079   31.7901  134.4353 H         1 LHD         0.4598
     51 H19        51.5344   28.2281  128.8620 H         1 LHD         0.0898
     52 H20        49.7568   28.2997  129.1106 H         1 LHD         0.0898
     53 H21        51.7316   25.3497  131.1436 H         1 LHD         0.0524
     54 H22        51.7664   27.0326  131.7706 H         1 LHD         0.0524
     55 H23        52.7573   26.5864  130.3404 H         1 LHD         0.0524
     56 H24        52.4984   35.5150  129.7378 H         1 LHD         0.0343
     57 H25        50.8560   34.7888  129.7813 H         1 LHD         0.0343
     58 H26        52.9833   34.4819  131.9302 H         1 LHD         0.0814
     59 H27        51.3625   33.7080  131.9012 H         1 LHD         0.0814
@<TRIPOS>BOND
     1    2    1 ar 
     2    1    6 ar 
     3    1   20 1  
     4    3    2 ar 
     5    9    2 1  
     6    3    4 ar 
     7    7    3 1  
     8    4    5 ar 
     9    5    6 ar 
    10    7    8 1  
    11   10    7 1  
    12    8    9 2  
    13   11   10 1  
    14   14   10 1  
    15   12   11 1  
    16   12   13 1  
    17   31   12 1  
    18   13   14 1  
    19   13   16 1  
    20   14   15 1  
    21   17   18 1  
    22   32   17 1  
    23   18   19 1  
    24   19   21 1  
    25   19   25 2  
    26   21   22 ar 
    27   21   26 ar 
    28   22   23 am 
    29   24   23 am 
    30   23   30 2  
    31   25   24 1  
    32   24   27 1  
    33   27   28 1  
    34   28   29 1  
    35   31   32 1  
    36    5   33 1  
    37    8   34 1  
    38   10   35 1  
    39   12   36 1  
    40   13   37 1  
    41   14   38 1  
    42   15   39 1  
    43   16   40 1  
    44   17   41 1  
    45   17   42 1  
    46   18   43 1  
    47   18   44 1  
    48   20   45 1  
    49   20   46 1  
    50   22   47 1  
    51   25   48 1  
    52   26   49 1  
    53   26   50 1  
    54   27   51 1  
    55   27   52 1  
    56   29   53 1  
    57   29   54 1  
    58   29   55 1  
    59   31   56 1  
    60   31   57 1  
    61   32   58 1  
    62   32   59 1  
@<TRIPOS>SUBSTRUCTURE
     1 LHD         1

