### 
### Created by X-TOOL on Mon Sep 10 21:13:30 2018
### 

@<TRIPOS>MOLECULE
5tbm_ligand
   38    40     1     0     0
SMALL
GAST_HUCK


@<TRIPOS>ATOM
      1 N1         18.4410    1.9630   -8.6380 N.1       1 79A        -0.3283
      2 C17        18.9930    1.1240   -9.2640 C.1       1 79A         0.0969
      3 C6         19.6600    0.2230   -9.9320 C.ar      1 79A         0.0862
      4 C7         20.9310    0.4810  -10.4490 C.ar      1 79A         0.0018
      5 C8         21.5770   -0.5060  -11.1640 C.ar      1 79A         0.1229
      6 C9         20.9740   -1.7390  -11.4300 C.ar      1 79A         0.0131
      7 C10        19.7070   -1.9960  -10.8990 C.ar      1 79A         0.1356
      8 F1         19.0800   -3.1860  -11.0780 F         1 79A        -0.1840
      9 C5         19.0800   -1.0060  -10.1670 C.ar      1 79A        -0.0041
     10 O1         22.7890   -0.1240  -11.6490 O.3       1 79A        -0.2623
     11 C1         23.8520   -0.2850  -10.8040 C.ar      1 79A         0.1119
     12 C14        25.0140    0.1030  -11.3920 C.ar      1 79A         0.0028
     13 C15        25.2150    0.6460  -12.7980 C.3       1 79A         0.0451
     14 C11        26.7090    0.3960  -12.9980 C.3       1 79A         0.2889
     15 F3         27.1860    1.2990  -13.8460 F         1 79A        -0.1987
     16 F2         26.8660   -0.7880  -13.5470 F         1 79A        -0.1987
     17 C13        26.1910   -0.0630  -10.6900 C.ar      1 79A         0.0104
     18 C12        27.3040    0.3940  -11.5650 C.3       1 79A         0.1506
     19 O4         27.6340    1.7260  -11.1860 O.3       1 79A        -0.3746
     20 C4         26.1720   -0.5850   -9.3900 C.ar      1 79A         0.0751
     21 S1         27.5880   -0.7470   -8.5480 S.o2      1 79A        -0.0140
     22 C16        27.9060    0.8240   -8.2260 C.3       1 79A         0.0572
     23 O3         27.2230   -1.5850   -7.4420 O.2       1 79A        -0.1720
     24 O2         28.4630   -1.3900   -9.4780 O.2       1 79A        -0.1720
     25 C3         24.9940   -0.9350   -8.7570 C.ar      1 79A        -0.0581
     26 C2         23.7690   -0.7790   -9.5060 C.ar      1 79A        -0.0399
     27 H1         21.4036    1.4436  -10.2907 H         1 79A         0.0616
     28 H2         21.4796   -2.4816  -12.0366 H         1 79A         0.0608
     29 H3         18.0941   -1.2029   -9.7617 H         1 79A         0.0615
     30 H4         24.9739    1.7177  -12.8552 H         1 79A         0.0450
     31 H5         24.6114    0.0945  -13.5339 H         1 79A         0.0450
     32 H6         28.1814   -0.2655  -11.4922 H         1 79A         0.0802
     33 H7         28.3446    2.0424  -11.7315 H         1 79A         0.2130
     34 H8         28.8426    0.8987   -7.6540 H         1 79A         0.0465
     35 H9         27.0815    1.2517   -7.6368 H         1 79A         0.0465
     36 H10        28.0080    1.3786   -9.1705 H         1 79A         0.0465
     37 H11        24.9898   -1.3111   -7.7403 H         1 79A         0.0536
     38 H12        22.8118   -1.0395   -9.0691 H         1 79A         0.0478
@<TRIPOS>BOND
     1    1    2 3  
     2    2    3 1  
     3    3    4 ar 
     4    3    9 ar 
     5    4    5 ar 
     6    5    6 ar 
     7    5   10 1  
     8    6    7 ar 
     9    7    8 1  
    10    7    9 ar 
    11   10   11 1  
    12   11   12 ar 
    13   11   26 ar 
    14   12   13 1  
    15   12   17 ar 
    16   13   14 1  
    17   14   15 1  
    18   14   16 1  
    19   14   18 1  
    20   17   18 1  
    21   17   20 ar 
    22   18   19 1  
    23   20   21 1  
    24   20   25 ar 
    25   21   22 1  
    26   21   23 2  
    27   21   24 2  
    28   25   26 ar 
    29    4   27 1  
    30    6   28 1  
    31    9   29 1  
    32   13   30 1  
    33   13   31 1  
    34   18   32 1  
    35   19   33 1  
    36   22   34 1  
    37   22   35 1  
    38   22   36 1  
    39   25   37 1  
    40   26   38 1  
@<TRIPOS>SUBSTRUCTURE
     1 79A         1

