### 
### Created by X-TOOL on Mon Sep 10 21:13:33 2018
### 

@<TRIPOS>MOLECULE
5tbp_ligand
   45    47     1     0     0
SMALL
GAST_HUCK


@<TRIPOS>ATOM
      1 C11         8.8650   13.5240   24.8490 C.ar      1 7A4        -0.0285
      2 C13         9.5450   11.2700   24.3770 C.ar      1 7A4        -0.0451
      3 C16         6.6110   13.9760   25.9030 C.3       1 7A4        -0.0510
      4 C15         8.7030   15.0690   26.7650 C.3       1 7A4        -0.0510
      5 C14         7.9780   14.5270   25.5520 C.3       1 7A4        -0.0074
      6 C19        15.9340   12.6330   24.9860 C.ar      1 7A4         0.1224
      7 C22        15.9740    8.8040   21.9790 C.3       1 7A4         0.0169
      8 C23        16.3710    7.7380   22.9760 C.2       1 7A4         0.0416
      9 C20        16.1160   11.5310   24.1450 C.ar      1 7A4        -0.0375
     10 C01        12.7970    8.5490   21.2940 C.3       1 7A4        -0.0471
     11 C02        13.4180    9.5740   22.2040 C.2       1 7A4        -0.0677
     12 C03        14.8680    9.6830   22.4990 C.2       1 7A4        -0.0587
     13 C04        15.0300   10.9480   23.5220 C.ar      1 7A4        -0.0506
     14 C05        13.6930   11.4550   23.7180 C.ar      1 7A4        -0.0437
     15 C06        12.7970   10.6030   22.9090 C.2       1 7A4        -0.0291
     16 C07        11.4520   10.7660   22.8240 C.2       1 7A4        -0.0288
     17 C08        10.5470   11.7450   23.5420 C.ar      1 7A4         0.0006
     18 C09        10.6930   13.1080   23.3500 C.ar      1 7A4        -0.0451
     19 C10         9.8650   13.9960   24.0150 C.ar      1 7A4        -0.0470
     20 C12         8.7050   12.1580   25.0340 C.ar      1 7A4        -0.0470
     21 C17        13.5300   12.5520   24.5580 C.ar      1 7A4        -0.0709
     22 C18        14.6320   13.1440   25.1900 C.ar      1 7A4        -0.0375
     23 O24        16.1070    7.8870   24.1970 O.co2     1 7A4        -0.5670
     24 O25        16.9680    6.7010   22.5830 O.co2     1 7A4        -0.5670
     25 F21        16.9860   13.2010   25.5940 F         1 7A4        -0.1881
     26 H1          9.4183   10.2025   24.5162 H         1 7A4         0.0699
     27 H2          6.0210   14.7541   26.4094 H         1 7A4         0.0258
     28 H3          6.7253   13.1097   26.5711 H         1 7A4         0.0258
     29 H4          6.0941   13.6642   24.9834 H         1 7A4         0.0258
     30 H5          9.6867   15.4564   26.4614 H         1 7A4         0.0258
     31 H6          8.8377   14.2636   27.5019 H         1 7A4         0.0258
     32 H7          8.1116   15.8810   27.2132 H         1 7A4         0.0258
     33 H8          7.8153   15.3653   24.8587 H         1 7A4         0.0484
     34 H9         15.6334    8.3154   21.0542 H         1 7A4         0.0533
     35 H10        16.8517    9.4302   21.7611 H         1 7A4         0.0533
     36 H11        17.1112   11.1335   23.9817 H         1 7A4         0.0557
     37 H12        13.5806    7.8838   20.9023 H         1 7A4         0.0338
     38 H13        12.2956    9.0573   20.4572 H         1 7A4         0.0338
     39 H14        12.0610    7.9566   21.8572 H         1 7A4         0.0338
     40 H15        10.9474   10.0903   22.1350 H         1 7A4         0.0966
     41 H16        11.4572   13.4808   22.6776 H         1 7A4         0.0699
     42 H17         9.9996   15.0634   23.8827 H         1 7A4         0.0593
     43 H18         7.9262   11.7857   25.6897 H         1 7A4         0.0593
     44 H19        12.5375   12.9542   24.7259 H         1 7A4         0.0585
     45 H20        14.4849   13.9993   25.8395 H         1 7A4         0.0538
@<TRIPOS>BOND
     1    1    5 1  
     2    1   19 ar 
     3   20    1 ar 
     4   17    2 ar 
     5    2   20 ar 
     6    5    3 1  
     7    5    4 1  
     8    9    6 ar 
     9    6   22 ar 
    10    6   25 1  
    11    7    8 1  
    12   12    7 1  
    13    8   23 ar 
    14    8   24 ar 
    15   13    9 ar 
    16   11   10 1  
    17   11   12 2  
    18   15   11 1  
    19   13   12 1  
    20   14   13 ar 
    21   15   14 1  
    22   14   21 ar 
    23   16   15 2  
    24   16   17 1  
    25   17   18 ar 
    26   18   19 ar 
    27   21   22 ar 
    28    2   26 1  
    29    3   27 1  
    30    3   28 1  
    31    3   29 1  
    32    4   30 1  
    33    4   31 1  
    34    4   32 1  
    35    5   33 1  
    36    7   34 1  
    37    7   35 1  
    38    9   36 1  
    39   10   37 1  
    40   10   38 1  
    41   10   39 1  
    42   16   40 1  
    43   18   41 1  
    44   19   42 1  
    45   20   43 1  
    46   21   44 1  
    47   22   45 1  
@<TRIPOS>SUBSTRUCTURE
     1 7A4         1

