### 
### Created by X-TOOL on Mon Sep 10 21:13:34 2018
### 

@<TRIPOS>MOLECULE
5tc0_ligand
   48    51     1     0     0
SMALL
GAST_HUCK


@<TRIPOS>ATOM
      1 C6         10.5960   13.8070   18.7640 C.3       1 79Y         0.0531
      2 C7         10.3390   13.6460   17.2600 C.3       1 79Y         0.0673
      3 C13        14.1910   13.2310   15.6090 C.2       1 79Y         0.0028
      4 C15        15.4850   15.1390   14.6730 C.2       1 79Y         0.0993
      5 C17        16.4420   16.0590   14.0230 C.ar      1 79Y         0.0427
      6 C20        18.2780   17.7560   12.7840 C.ar      1 79Y        -0.0712
      7 C21        17.4220   18.2460   13.7740 C.ar      1 79Y        -0.0346
      8 C22        16.4810   17.4140   14.4060 C.ar      1 79Y         0.0867
      9 C24        15.6210   18.9590   16.1640 C.2       1 79Y         0.2824
     10 C26        14.6590   19.1070   17.2580 C.2       1 79Y         0.2171
     11 C28        13.0380   18.7190   18.6290 C.2       1 79Y        -0.0127
     12 C1         13.1160   13.9660   21.3170 C.3       1 79Y         0.0734
     13 S2         11.9990   15.2030   20.6230 S.o2      1 79Y         0.0388
     14 O3         10.7320   15.1500   21.2660 O.2       1 79Y        -0.1556
     15 O4         12.7220   16.4210   20.5450 O.2       1 79Y        -0.1556
     16 N5         11.7980   14.6180   19.0800 N.am      1 79Y        -0.2323
     17 O8         11.5820   13.5440   16.5420 O.3       1 79Y        -0.3630
     18 C9         12.4460   14.6840   16.6280 C.3       1 79Y         0.1089
     19 C11        12.8670   14.8930   18.0860 C.3       1 79Y         0.0637
     20 C12        13.7050   14.4560   15.8340 C.2       1 79Y         0.0246
     21 S14        15.6860   13.3980   14.6780 S.3       1 79Y        -0.0254
     22 N16        14.4020   15.4540   15.3370 N.2       1 79Y        -0.3121
     23 C18        17.3090   15.5700   13.0270 C.ar      1 79Y        -0.0584
     24 C19        18.2190   16.4130   12.4130 C.ar      1 79Y        -0.0719
     25 N23        15.6120   17.8110   15.4440 N.am      1 79Y        -0.2224
     26 O25        16.3800   19.8810   15.9520 O.2       1 79Y        -0.3627
     27 N27        13.6890   18.2660   17.5570 N.2       1 79Y        -0.3077
     28 C29        13.6210   19.8800   19.0260 C.2       1 79Y         0.0412
     29 N30        14.6590   20.1250   18.1760 N.pl3     1 79Y        -0.2509
     30 H1         10.7265   12.8069   19.2031 H         1 79Y         0.0501
     31 H2          9.7196   14.2944   19.2159 H         1 79Y         0.0501
     32 H3          9.7802   14.5196   16.8931 H         1 79Y         0.0578
     33 H4          9.7474   12.7344   17.0898 H         1 79Y         0.0578
     34 H5         13.7448   12.2946   15.9407 H         1 79Y         0.0571
     35 H6         18.9880   18.4200   12.3043 H         1 79Y         0.0608
     36 H7         17.4848   19.2895   14.0608 H         1 79Y         0.0515
     37 H8         12.1840   18.2396   19.1053 H         1 79Y         0.0483
     38 H9         12.5924   13.0018   21.3949 H         1 79Y         0.0482
     39 H10        13.4433   14.2873   22.3168 H         1 79Y         0.0482
     40 H11        13.9928   13.8551   20.6621 H         1 79Y         0.0482
     41 H12        11.9199   15.5738   16.2520 H         1 79Y         0.0750
     42 H13        13.7142   14.2244   18.2984 H         1 79Y         0.0523
     43 H14        13.1864   15.9388   18.2050 H         1 79Y         0.0523
     44 H15        17.2634   14.5259   12.7391 H         1 79Y         0.0615
     45 H16        18.8834   16.0307   11.6465 H         1 79Y         0.0505
     46 H17        14.8928   17.1575   15.6802 H         1 79Y         0.2306
     47 H18        13.3159   20.5004   19.8674 H         1 79Y         0.0919
     48 H19        15.3141   20.9188   18.2160 H         1 79Y         0.2420
@<TRIPOS>BOND
     1    2    1 1  
     2   16    1 1  
     3   17    2 1  
     4   20    3 2  
     5    3   21 1  
     6    4    5 1  
     7   21    4 1  
     8    4   22 2  
     9    5    8 ar 
    10    5   23 ar 
    11    7    6 ar 
    12    6   24 ar 
    13    8    7 ar 
    14    8   25 1  
    15    9   10 1  
    16   25    9 am 
    17    9   26 2  
    18   10   27 2  
    19   10   29 1  
    20   27   11 1  
    21   11   28 2  
    22   13   12 1  
    23   13   14 2  
    24   13   15 2  
    25   16   13 am 
    26   19   16 1  
    27   18   17 1  
    28   18   19 1  
    29   18   20 1  
    30   20   22 1  
    31   23   24 ar 
    32   28   29 1  
    33    1   30 1  
    34    1   31 1  
    35    2   32 1  
    36    2   33 1  
    37    3   34 1  
    38    6   35 1  
    39    7   36 1  
    40   11   37 1  
    41   12   38 1  
    42   12   39 1  
    43   12   40 1  
    44   18   41 1  
    45   19   42 1  
    46   19   43 1  
    47   23   44 1  
    48   24   45 1  
    49   25   46 1  
    50   28   47 1  
    51   29   48 1  
@<TRIPOS>SUBSTRUCTURE
     1 79Y         1

