### 
### Created by X-TOOL on Mon Sep 10 21:13:29 2018
### 

@<TRIPOS>MOLECULE
5tca_ligand
   46    49     1     0     0
SMALL
GAST_HUCK


@<TRIPOS>ATOM
      1 O2         38.8930   23.7340   75.4770 O.2       1 J55        -0.3792
      2 C2         37.6930   23.6730   75.7590 C.2       1 J55         0.2442
      3 N1         36.7320   24.4460   75.1970 N.am      1 J55        -0.2154
      4 C1         36.8600   25.3480   74.1310 C.ar      1 J55         0.1390
      5 N          35.7280   25.5150   73.4350 N.ar      1 J55        -0.2735
      6 C15        38.0560   25.9920   73.8050 C.ar      1 J55        -0.0135
      7 C16        38.0670   26.8150   72.6940 C.ar      1 J55        -0.0561
      8 C17        36.9180   26.9870   71.9450 C.ar      1 J55        -0.0388
      9 C          35.7900   26.3150   72.3790 C.ar      1 J55         0.0720
     10 BR         34.1610   26.5360   71.4020 Br        1 J55        -0.0244
     11 C3         37.1140   22.6600   76.8020 C.3       1 J55         0.1870
     12 N2         37.8700   21.3650   76.6840 N.am      1 J55        -0.2392
     13 C5         38.4670   20.9700   77.9720 C.3       1 J55         0.0467
     14 C4         38.8600   22.2190   78.6960 C.3       1 J55         0.0188
     15 S          37.4030   23.2700   78.4890 S.3       1 J55        -0.1091
     16 C6         38.0400   20.6930   75.5180 C.2       1 J55         0.2133
     17 O1         37.4550   21.0170   74.4940 O.2       1 J55        -0.3936
     18 C7         38.9880   19.4930   75.5350 C.3       1 J55         0.1604
     19 N3         39.0170   18.8950   74.2220 N.pl3     1 J55        -0.1554
     20 C11        39.8550   19.1900   73.2050 C.ar      1 J55         0.1688
     21 N6         40.9110   20.0100   73.1410 N.ar      1 J55        -0.2761
     22 C12        41.5350   20.0560   71.9560 C.ar      1 J55         0.0010
     23 C13        41.1390   19.3280   70.8470 C.ar      1 J55        -0.0435
     24 C14        40.0430   18.4820   70.9480 C.ar      1 J55        -0.0431
     25 C10        39.3600   18.3830   72.1600 C.ar      1 J55         0.0549
     26 C8         38.2330   17.6130   72.6330 C.2       1 J55         0.1436
     27 N4         38.0740   17.9730   73.9040 N.2       1 J55        -0.1642
     28 C9         37.4510   16.6300   71.9050 C.2       1 J55         0.2136
     29 O          37.5590   16.5110   70.6740 O.2       1 J55        -0.3858
     30 N5         36.6280   15.8870   72.6390 N.am      1 J55        -0.2998
     31 H1         35.8171   24.3627   75.5920 H         1 J55         0.2312
     32 H2         38.9480   25.8509   74.4046 H         1 J55         0.0595
     33 H3         38.9793   27.3268   72.4095 H         1 J55         0.0690
     34 H4         36.9020   27.6164   71.0626 H         1 J55         0.0581
     35 H5         36.0395   22.5052   76.6247 H         1 J55         0.0929
     36 H6         39.3544   20.3441   77.7969 H         1 J55         0.0532
     37 H7         37.7332   20.4074   78.5677 H         1 J55         0.0532
     38 H8         39.7493   22.6790   78.2404 H         1 J55         0.0398
     39 H9         39.0558   22.0167   79.7594 H         1 J55         0.0398
     40 H10        38.6334   18.7539   76.2685 H         1 J55         0.0872
     41 H11        39.9994   19.8266   75.8101 H         1 J55         0.0872
     42 H12        42.4008   20.7012   71.8601 H         1 J55         0.0801
     43 H13        41.6783   19.4175   69.9110 H         1 J55         0.0620
     44 H14        39.7202   17.9023   70.0908 H         1 J55         0.0724
     45 H15        36.0594   15.1902   72.2019 H         1 J55         0.1808
     46 H16        36.5777   16.0251   73.6281 H         1 J55         0.1808
@<TRIPOS>BOND
     1    1    2 2  
     2    2    3 am 
     3    2   11 1  
     4    3    4 1  
     5    4    5 ar 
     6    4    6 ar 
     7    5    9 ar 
     8    6    7 ar 
     9    7    8 ar 
    10    8    9 ar 
    11    9   10 1  
    12   11   12 1  
    13   11   15 1  
    14   12   13 1  
    15   12   16 am 
    16   13   14 1  
    17   14   15 1  
    18   16   17 2  
    19   16   18 1  
    20   18   19 1  
    21   19   20 1  
    22   19   27 1  
    23   20   21 ar 
    24   20   25 ar 
    25   21   22 ar 
    26   22   23 ar 
    27   23   24 ar 
    28   24   25 ar 
    29   25   26 1  
    30   26   27 2  
    31   26   28 1  
    32   28   29 2  
    33   28   30 am 
    34    3   31 1  
    35    6   32 1  
    36    7   33 1  
    37    8   34 1  
    38   11   35 1  
    39   13   36 1  
    40   13   37 1  
    41   14   38 1  
    42   14   39 1  
    43   18   40 1  
    44   18   41 1  
    45   22   42 1  
    46   23   43 1  
    47   24   44 1  
    48   30   45 1  
    49   30   46 1  
@<TRIPOS>SUBSTRUCTURE
     1 J55         1

