### 
### Created by X-TOOL on Mon Sep 10 21:13:30 2018
### 

@<TRIPOS>MOLECULE
5tcc_ligand
   43    46     1     0     0
SMALL
GAST_HUCK


@<TRIPOS>ATOM
      1 O1        -10.6510   23.5540   75.3090 O.2       1 J56        -0.3792
      2 C2        -11.8420   23.5540   75.6220 C.2       1 J56         0.2442
      3 N1        -12.7610   24.4200   75.1380 N.am      1 J56        -0.2154
      4 C1        -12.6340   25.2810   74.0370 C.ar      1 J56         0.1390
      5 N         -13.7860   25.4430   73.3780 N.ar      1 J56        -0.2735
      6 C15       -11.4270   25.8650   73.6210 C.ar      1 J56        -0.0135
      7 C16       -11.4410   26.6190   72.4620 C.ar      1 J56        -0.0561
      8 C17       -12.6200   26.7850   71.7550 C.ar      1 J56        -0.0388
      9 C         -13.7430   26.1660   72.2720 C.ar      1 J56         0.0720
     10 BR        -15.3840   26.3110   71.3200 Br        1 J56        -0.0244
     11 C3        -12.4070   22.4760   76.5840 C.3       1 J56         0.1870
     12 N2        -11.5960   21.2360   76.4010 N.am      1 J56        -0.2392
     13 C5        -10.8290   20.8850   77.6070 C.3       1 J56         0.0467
     14 C4        -10.6400   22.1120   78.4500 C.3       1 J56         0.0188
     15 S         -12.2160   22.9830   78.3230 S.3       1 J56        -0.1091
     16 C6        -11.5910   20.5690   75.2190 C.2       1 J56         0.2123
     17 O         -12.2410   20.9500   74.2590 O.2       1 J56        -0.3937
     18 C7        -10.7160   19.3230   75.1100 C.3       1 J56         0.1549
     19 N3        -10.5950   18.7000   73.8120 N.pl3     1 J56        -0.1804
     20 C10        -9.7190   19.0140   72.8160 C.ar      1 J56         0.0932
     21 C11        -8.6100   19.8520   72.7670 C.ar      1 J56        -0.0349
     22 C12        -7.9280   19.9770   71.5640 C.ar      1 J56        -0.0704
     23 C13        -8.3580   19.2930   70.4230 C.ar      1 J56        -0.0723
     24 C14        -9.4590   18.4500   70.4760 C.ar      1 J56        -0.0643
     25 C9        -10.1490   18.2920   71.6820 C.ar      1 J56         0.0094
     26 C8        -11.2760   17.5570   72.1320 C.2       1 J56         0.0219
     27 N4        -11.5360   17.7960   73.3960 N.2       1 J56        -0.2009
     28 H1        -13.6353   24.4505   75.6224 H         1 J56         0.2312
     29 H2        -10.5142   25.7293   74.1896 H         1 J56         0.0595
     30 H3        -10.5272   27.0810   72.1062 H         1 J56         0.0690
     31 H4        -12.6604   27.3700   70.8433 H         1 J56         0.0581
     32 H5        -13.4670   22.2879   76.3581 H         1 J56         0.0929
     33 H6         -9.8468   20.4856   77.3143 H         1 J56         0.0532
     34 H7        -11.3773   20.1248   78.1827 H         1 J56         0.0532
     35 H8         -9.8193   22.7314   78.0591 H         1 J56         0.0398
     36 H9        -10.4281   21.8391   79.4943 H         1 J56         0.0398
     37 H10       -11.1281   18.5706   75.7986 H         1 J56         0.0860
     38 H11        -9.7034   19.6028   75.4360 H         1 J56         0.0860
     39 H12        -8.2857   20.3949   73.6474 H         1 J56         0.0559
     40 H13        -7.0516   20.6126   71.5088 H         1 J56         0.0579
     41 H14        -7.8260   19.4225   69.4875 H         1 J56         0.0532
     42 H15        -9.7820   17.9176   69.5887 H         1 J56         0.0591
     43 H16       -11.8538   16.8785   71.5061 H         1 J56         0.0716
@<TRIPOS>BOND
     1    1    2 2  
     2    2    3 am 
     3    2   11 1  
     4    3    4 1  
     5    4    5 ar 
     6    4    6 ar 
     7    5    9 ar 
     8    6    7 ar 
     9    7    8 ar 
    10    8    9 ar 
    11    9   10 1  
    12   11   12 1  
    13   11   15 1  
    14   12   13 1  
    15   12   16 am 
    16   13   14 1  
    17   14   15 1  
    18   16   17 2  
    19   16   18 1  
    20   18   19 1  
    21   19   20 1  
    22   19   27 1  
    23   20   21 ar 
    24   20   25 ar 
    25   21   22 ar 
    26   22   23 ar 
    27   23   24 ar 
    28   24   25 ar 
    29   25   26 1  
    30   26   27 2  
    31    3   28 1  
    32    6   29 1  
    33    7   30 1  
    34    8   31 1  
    35   11   32 1  
    36   13   33 1  
    37   13   34 1  
    38   14   35 1  
    39   14   36 1  
    40   18   37 1  
    41   18   38 1  
    42   21   39 1  
    43   22   40 1  
    44   23   41 1  
    45   24   42 1  
    46   26   43 1  
@<TRIPOS>SUBSTRUCTURE
     1 J56         1

