### 
### Created by X-TOOL on Mon Sep 10 21:13:32 2018
### 

@<TRIPOS>MOLECULE
5tci_ligand
   37    39     1     0     0
SMALL
GAST_HUCK


@<TRIPOS>ATOM
      1 C19        68.2880  -10.3400   25.3590 C.3       1 79V         0.0894
      2 C17        70.9460  -11.0080   21.6710 C.1       1 79V         0.1467
      3 C16        69.8090  -10.5410   22.4840 C.3       1 79V         0.1191
      4 C14        69.2050  -11.1410   24.4930 C.3       1 79V         0.0235
      5 C10        67.3250  -11.5770   22.6330 C.ar      1 79V        -0.0265
      6 C11        66.6540  -12.7940   22.3170 C.ar      1 79V        -0.0589
      7 C12        65.2790  -12.8160   21.9580 C.ar      1 79V        -0.0610
      8 C13        68.8160  -11.6000   23.0370 C.3       1 79V         0.1057
      9 C01        60.7250  -11.0020   22.1470 C.ar      1 79V        -0.0661
     10 C02        60.2330  -11.6390   20.9870 C.ar      1 79V        -0.0643
     11 C03        61.1370  -12.2800   20.1020 C.ar      1 79V        -0.0282
     12 C04        62.5450  -12.2800   20.3730 C.ar      1 79V         0.1396
     13 C05        63.0510  -11.6330   21.5300 C.ar      1 79V         0.0122
     14 C06        62.1060  -11.0090   22.4010 C.ar      1 79V        -0.0571
     15 C07        64.5150  -11.6260   21.8760 C.ar      1 79V        -0.0241
     16 C08        65.1690  -10.4320   22.1950 C.ar      1 79V        -0.0610
     17 C09        66.5370  -10.3900   22.5530 C.ar      1 79V        -0.0589
     18 N15        70.2560  -10.2220   23.9040 N.4       1 79V         0.2558
     19 N18        71.8620  -11.4200   21.0690 N.1       1 79V        -0.2974
     20 O20        68.4870   -8.8460   25.1560 O.3       1 79V        -0.3893
     21 F21        63.3770  -12.8730   19.5420 F         1 79V        -0.1824
     22 H1         68.4864  -10.5864   26.4125 H         1 79V         0.0616
     23 H2         67.2477  -10.5981   25.1117 H         1 79V         0.0616
     24 H3         69.3077   -9.7128   21.9617 H         1 79V         0.1197
     25 H4         69.6011  -11.9752   25.0906 H         1 79V         0.0904
     26 H5         67.2062  -13.7262   22.3513 H         1 79V         0.0559
     27 H6         64.8037  -13.7659   21.7418 H         1 79V         0.0603
     28 H7         69.1656  -12.6211   22.8247 H         1 79V         0.0601
     29 H8         60.0440  -10.5128   22.8341 H         1 79V         0.0581
     30 H9         59.1701  -11.6381   20.7740 H         1 79V         0.0601
     31 H10        60.7605  -12.7739   19.2135 H         1 79V         0.0601
     32 H11        62.4709  -10.5197   23.2968 H         1 79V         0.0604
     33 H12        64.6076   -9.5051   22.1670 H         1 79V         0.0603
     34 H13        66.9976   -9.4334   22.7717 H         1 79V         0.0559
     35 H14        70.1360   -9.2541   24.1585 H         1 79V         0.2046
     36 H15        71.2017  -10.5074   24.1046 H         1 79V         0.2046
     37 H16        67.8901   -8.3686   25.7201 H         1 79V         0.2097
@<TRIPOS>BOND
     1    4    1 1  
     2    1   20 1  
     3    3    2 1  
     4    2   19 3  
     5    8    3 1  
     6    3   18 1  
     7    8    4 1  
     8    4   18 1  
     9    6    5 ar 
    10    5    8 1  
    11    5   17 ar 
    12    7    6 ar 
    13   15    7 ar 
    14    9   10 ar 
    15   14    9 ar 
    16   11   10 ar 
    17   12   11 ar 
    18   13   12 ar 
    19   12   21 1  
    20   13   14 ar 
    21   13   15 1  
    22   15   16 ar 
    23   16   17 ar 
    24    1   22 1  
    25    1   23 1  
    26    3   24 1  
    27    4   25 1  
    28    6   26 1  
    29    7   27 1  
    30    8   28 1  
    31    9   29 1  
    32   10   30 1  
    33   11   31 1  
    34   14   32 1  
    35   16   33 1  
    36   17   34 1  
    37   18   35 1  
    38   18   36 1  
    39   20   37 1  
@<TRIPOS>SUBSTRUCTURE
     1 79V         1

