### 
### Created by X-TOOL on Mon Sep 10 21:13:32 2018
### 

@<TRIPOS>MOLECULE
5tcj_ligand
   37    39     1     0     0
SMALL
GAST_HUCK


@<TRIPOS>ATOM
      1 C19        69.5520   -8.4850   24.4020 C.3       1 79V         0.0894
      2 C17        71.3970  -10.9450   21.1750 C.1       1 79V         0.1467
      3 C16        70.6980  -10.1260   22.1770 C.3       1 79V         0.1191
      4 C14        70.1330   -9.8780   24.2240 C.3       1 79V         0.0235
      5 C10        68.1180  -10.7570   22.6610 C.ar      1 79V        -0.0265
      6 C11        67.6730  -10.3390   21.3630 C.ar      1 79V        -0.0589
      7 C12        66.2870  -10.3430   21.0110 C.ar      1 79V        -0.0610
      8 C13        69.6050  -10.7950   23.0790 C.3       1 79V         0.1057
      9 C01        61.4110  -10.2880   22.0580 C.ar      1 79V        -0.0661
     10 C02        60.9920  -11.0340   20.9340 C.ar      1 79V        -0.0643
     11 C03        61.9550  -11.6790   20.1260 C.ar      1 79V        -0.0282
     12 C04        63.3470  -11.5850   20.4430 C.ar      1 79V         0.1396
     13 C05        63.7940  -10.8120   21.5800 C.ar      1 79V         0.0122
     14 C06        62.7890  -10.1930   22.3720 C.ar      1 79V        -0.0571
     15 C07        65.2820  -10.7570   21.9300 C.ar      1 79V        -0.0241
     16 C08        65.7300  -11.1880   23.2090 C.ar      1 79V        -0.0610
     17 C09        67.1030  -11.1880   23.5630 C.ar      1 79V        -0.0589
     18 N15        71.4950   -9.9090   23.4670 N.4       1 79V         0.2558
     19 N18        71.9360  -11.5990   20.3700 N.1       1 79V        -0.2974
     20 O20        70.2720   -7.3700   23.6850 O.3       1 79V        -0.3893
     21 F21        64.2290  -12.2030   19.6710 F         1 79V        -0.1824
     22 H1         69.5586   -8.2527   25.4772 H         1 79V         0.0616
     23 H2         68.5144   -8.5043   24.0374 H         1 79V         0.0616
     24 H3         70.3552   -9.2014   21.6896 H         1 79V         0.1197
     25 H4         70.1437  -10.3721   25.2067 H         1 79V         0.0904
     26 H5         68.4041  -10.0126   20.6322 H         1 79V         0.0559
     27 H6         65.9939  -10.0222   20.0179 H         1 79V         0.0603
     28 H7         69.8280  -11.8548   23.2716 H         1 79V         0.0601
     29 H8         60.6777   -9.7881   22.6805 H         1 79V         0.0581
     30 H9         59.9380  -11.1111   20.6928 H         1 79V         0.0601
     31 H10        61.6371  -12.2488   19.2603 H         1 79V         0.0601
     32 H11        63.0878   -9.6281   23.2476 H         1 79V         0.0604
     33 H12        64.9999  -11.5267   23.9351 H         1 79V         0.0603
     34 H13        67.3896  -11.5269   24.5520 H         1 79V         0.0559
     35 H14        72.0139   -9.0455   23.5002 H         1 79V         0.2046
     36 H15        72.0997  -10.6744   23.7212 H         1 79V         0.2046
     37 H16        70.2668   -7.5406   22.7504 H         1 79V         0.2097
@<TRIPOS>BOND
     1    4    1 1  
     2    1   20 1  
     3    3    2 1  
     4    2   19 3  
     5    8    3 1  
     6    3   18 1  
     7    8    4 1  
     8    4   18 1  
     9    6    5 ar 
    10    5    8 1  
    11    5   17 ar 
    12    7    6 ar 
    13   15    7 ar 
    14    9   10 ar 
    15   14    9 ar 
    16   11   10 ar 
    17   12   11 ar 
    18   13   12 ar 
    19   12   21 1  
    20   13   14 ar 
    21   13   15 1  
    22   15   16 ar 
    23   16   17 ar 
    24    1   22 1  
    25    1   23 1  
    26    3   24 1  
    27    4   25 1  
    28    6   26 1  
    29    7   27 1  
    30    8   28 1  
    31    9   29 1  
    32   10   30 1  
    33   11   31 1  
    34   14   32 1  
    35   16   33 1  
    36   17   34 1  
    37   18   35 1  
    38   18   36 1  
    39   20   37 1  
@<TRIPOS>SUBSTRUCTURE
     1 79V         1

