### 
### Created by X-TOOL on Mon Sep 10 21:13:34 2018
### 

@<TRIPOS>MOLECULE
5tco_ligand
   78    83     1     0     0
SMALL
GAST_HUCK


@<TRIPOS>ATOM
      1 CAY        22.6210   10.7030  -29.0180 C.3       1 79Q        -0.0078
      2 CAT        22.1180   10.8450  -30.3580 C.3       1 79Q         0.0878
      3 OBD        20.7920   11.5090  -30.3210 O.3       1 79Q        -0.3693
      4 CAU        19.7470   10.7680  -29.7340 C.3       1 79Q         0.0878
      5 CAZ        20.3550   10.0660  -28.4900 C.3       1 79Q        -0.0078
      6 NBR        21.5110   10.8510  -28.0920 N.4       1 79Q         0.2399
      7 CAX        22.0020   10.4410  -26.7470 C.3       1 79Q        -0.0112
      8 CAS        21.3440    9.1470  -26.1480 C.3       1 79Q         0.0702
      9 NBA        21.7670    7.9940  -27.0070 N.am      1 79Q        -0.2819
     10 CBE        21.3350    6.7060  -27.1200 C.2       1 79Q         0.2013
     11 OAA        21.9550    6.0000  -27.9060 O.2       1 79Q        -0.3877
     12 CBL        20.3480    6.0940  -26.2700 C.ar      1 79Q         0.0485
     13 CAR        20.3500    4.6790  -26.2080 C.ar      1 79Q        -0.0301
     14 CBQ        19.4410    3.9620  -25.4070 C.ar      1 79Q         0.0381
     15 CBG        19.5500    2.5520  -25.4070 C.2       1 79Q         0.1429
     16 OAC        19.8090    1.9850  -26.4710 O.2       1 79Q        -0.3819
     17 CAM        19.3990    6.7720  -25.4800 C.ar      1 79Q        -0.0441
     18 CAN        18.5000    6.0700  -24.6780 C.ar      1 79Q        -0.0484
     19 CBM        18.5280    4.6660  -24.6580 C.ar      1 79Q        -0.0176
     20 CAV        17.6420    4.0600  -23.8030 C.3       1 79Q        -0.0030
     21 CAW        18.5620    3.6020  -22.6480 C.3       1 79Q        -0.0069
     22 CBN        19.2160    2.3480  -22.9170 C.ar      1 79Q        -0.0322
     23 CAP        19.4180    1.5660  -21.7520 C.ar      1 79Q        -0.0326
     24 CBP        19.6300    1.8410  -24.1630 C.ar      1 79Q         0.0219
     25 CAO        20.2680    0.5660  -24.2140 C.ar      1 79Q        -0.0598
     26 CAK        20.4870   -0.2020  -23.0690 C.ar      1 79Q        -0.0404
     27 CBH        20.0540    0.2910  -21.8250 C.ar      1 79Q         0.0556
     28 NBC        20.2190   -0.3780  -20.6420 N.pl3     1 79Q        -0.2787
     29 CBI        20.9690   -1.4850  -20.4390 C.ar      1 79Q         0.0415
     30 CAQ        20.4400   -2.3820  -19.5280 C.ar      1 79Q        -0.0213
     31 CAJ        22.2350   -1.7730  -20.9700 C.ar      1 79Q        -0.0562
     32 CAL        22.9020   -2.9610  -20.6370 C.ar      1 79Q        -0.0510
     33 CBJ        22.3380   -3.8440  -19.7200 C.ar      1 79Q         0.1387
     34 FAD        22.9940   -4.9560  -19.4030 F         1 79Q        -0.2033
     35 CBO        21.0890   -3.5630  -19.1650 C.ar      1 79Q         0.0896
     36 NBB        20.5740   -4.4630  -18.2920 N.am      1 79Q        -0.2350
     37 CBF        19.2630   -4.8320  -18.3050 C.2       1 79Q         0.2313
     38 OAB        18.4730   -4.4830  -19.1600 O.2       1 79Q        -0.3735
     39 CBK        18.8420   -5.7570  -17.3060 C.ar      1 79Q         0.0558
     40 CAH        19.1490   -5.5680  -15.9360 C.ar      1 79Q        -0.0415
     41 CAF        18.7190   -6.4720  -14.9350 C.ar      1 79Q        -0.0562
     42 CAE        18.0160   -7.5880  -15.3140 C.ar      1 79Q        -0.0576
     43 CAG        17.7310   -7.8160  -16.6440 C.ar      1 79Q        -0.0562
     44 CAI        18.1330   -6.9120  -17.6470 C.ar      1 79Q        -0.0415
     45 H1         23.3753   11.4789  -28.8204 H         1 79Q         0.0837
     46 H2         23.0764    9.7092  -28.8957 H         1 79Q         0.0837
     47 H3         22.0177    9.8514  -30.8192 H         1 79Q         0.0613
     48 H4         22.8169   11.4548  -30.9493 H         1 79Q         0.0613
     49 H5         19.3649   10.0201  -30.4443 H         1 79Q         0.0613
     50 H6         18.9287   11.4378  -29.4312 H         1 79Q         0.0613
     51 H7         20.6623    9.0411  -28.7452 H         1 79Q         0.0837
     52 H8         19.6182   10.0354  -27.6738 H         1 79Q         0.0837
     53 H9         21.2370   11.8206  -28.0624 H         1 79Q         0.2036
     54 H10        21.8117   11.2706  -26.0502 H         1 79Q         0.0834
     55 H11        23.0854   10.2659  -26.8215 H         1 79Q         0.0834
     56 H12        20.2482    9.2423  -26.1587 H         1 79Q         0.0572
     57 H13        21.6886    8.9930  -25.1148 H         1 79Q         0.0572
     58 H14        22.5218    8.2151  -27.6246 H         1 79Q         0.1845
     59 H15        21.0757    4.1298  -26.7970 H         1 79Q         0.0705
     60 H16        19.3672    7.8554  -25.4958 H         1 79Q         0.0687
     61 H17        17.7805    6.6072  -24.0708 H         1 79Q         0.0582
     62 H18        17.1479    3.2024  -24.2830 H         1 79Q         0.0474
     63 H19        16.8808    4.7705  -23.4484 H         1 79Q         0.0474
     64 H20        17.9546    3.4929  -21.7374 H         1 79Q         0.0463
     65 H21        19.3312    4.3714  -22.4857 H         1 79Q         0.0463
     66 H22        19.0844    1.9422  -20.7917 H         1 79Q         0.0477
     67 H23        20.5935    0.1808  -25.1736 H         1 79Q         0.0622
     68 H24        20.9831   -1.1634  -23.1376 H         1 79Q         0.0490
     69 H25        19.7214    0.0002  -19.8233 H         1 79Q         0.2086
     70 H26        19.4802   -2.1578  -19.0768 H         1 79Q         0.0398
     71 H27        22.7041   -1.0680  -21.6467 H         1 79Q         0.0399
     72 H28        23.8575   -3.1919  -21.0940 H         1 79Q         0.0535
     73 H29        21.1811   -4.8725  -17.6110 H         1 79Q         0.2240
     74 H30        19.7326   -4.7023  -15.6444 H         1 79Q         0.0669
     75 H31        18.9406   -6.2864  -13.8902 H         1 79Q         0.0629
     76 H32        17.6825   -8.2950  -14.5630 H         1 79Q         0.0652
     77 H33        17.1858   -8.7102  -16.9237 H         1 79Q         0.0629
     78 H34        17.8920   -7.1126  -18.6847 H         1 79Q         0.0669
@<TRIPOS>BOND
     1    1    2 1  
     2    1    6 1  
     3    2    3 1  
     4    3    4 1  
     5    4    5 1  
     6    5    6 1  
     7    6    7 1  
     8    7    8 1  
     9    8    9 1  
    10    9   10 am 
    11   10   11 2  
    12   10   12 1  
    13   12   13 ar 
    14   12   17 ar 
    15   13   14 ar 
    16   14   15 1  
    17   14   19 ar 
    18   15   16 2  
    19   15   24 1  
    20   17   18 ar 
    21   18   19 ar 
    22   19   20 1  
    23   20   21 1  
    24   21   22 1  
    25   22   23 ar 
    26   22   24 ar 
    27   23   27 ar 
    28   24   25 ar 
    29   25   26 ar 
    30   26   27 ar 
    31   27   28 1  
    32   28   29 1  
    33   29   30 ar 
    34   29   31 ar 
    35   30   35 ar 
    36   31   32 ar 
    37   32   33 ar 
    38   33   34 1  
    39   33   35 ar 
    40   35   36 1  
    41   36   37 am 
    42   37   38 2  
    43   37   39 1  
    44   39   40 ar 
    45   39   44 ar 
    46   40   41 ar 
    47   41   42 ar 
    48   42   43 ar 
    49   43   44 ar 
    50    1   45 1  
    51    1   46 1  
    52    2   47 1  
    53    2   48 1  
    54    4   49 1  
    55    4   50 1  
    56    5   51 1  
    57    5   52 1  
    58    6   53 1  
    59    7   54 1  
    60    7   55 1  
    61    8   56 1  
    62    8   57 1  
    63    9   58 1  
    64   13   59 1  
    65   17   60 1  
    66   18   61 1  
    67   20   62 1  
    68   20   63 1  
    69   21   64 1  
    70   21   65 1  
    71   23   66 1  
    72   25   67 1  
    73   26   68 1  
    74   28   69 1  
    75   30   70 1  
    76   31   71 1  
    77   32   72 1  
    78   36   73 1  
    79   40   74 1  
    80   41   75 1  
    81   42   76 1  
    82   43   77 1  
    83   44   78 1  
@<TRIPOS>SUBSTRUCTURE
     1 79Q         1

