### 
### Created by X-TOOL on Mon Sep 10 21:13:31 2018
### 

@<TRIPOS>MOLECULE
5tcy_ligand
   49    50     1     0     0
SMALL
GAST_HUCK


@<TRIPOS>ATOM
      1 C1         -7.3290    7.6250    1.1590 C.ar      1 5LC        -0.0372
      2 C2         -8.3900    6.8710    1.6080 C.ar      1 5LC         0.1223
      3 C3         -9.5780    7.4620    1.9960 C.ar      1 5LC         0.1379
      4 C4         -9.7360    8.8230    1.8920 C.ar      1 5LC         0.0700
      5 C5         -8.6610    9.5870    1.3910 C.ar      1 5LC        -0.0617
      6 C6         -7.4680    8.9890    1.0360 C.ar      1 5LC        -0.0763
      7 C7        -11.0900    9.4750    2.1900 C.2       1 5LC         0.1964
      8 N8        -12.1480    8.6420    2.2280 N.am      1 5LC        -0.2882
      9 O9        -11.1640   10.7040    2.2940 O.2       1 5LC        -0.3912
     10 C10       -13.5290    8.9640    2.5410 C.3       1 5LC         0.0301
     11 C11       -14.5910    8.2300    1.7170 C.3       1 5LC        -0.0328
     12 C12       -14.5870    6.6950    1.7110 C.3       1 5LC        -0.0494
     13 N14       -13.4210    4.0340    0.1710 N.am      1 5LC        -0.2882
     14 C15       -12.9790    3.0860   -0.6250 C.2       1 5LC         0.1964
     15 C16       -11.7450    2.3000   -0.1920 C.ar      1 5LC         0.0700
     16 O17       -13.5620    2.8020   -1.6660 O.2       1 5LC        -0.3912
     17 C18       -10.9730    2.7970    0.8320 C.ar      1 5LC         0.1379
     18 C19        -9.8640    2.1210    1.3080 C.ar      1 5LC         0.1223
     19 C20        -9.4850    0.9210    0.7320 C.ar      1 5LC        -0.0372
     20 C21       -10.2520    0.4040   -0.3250 C.ar      1 5LC        -0.0763
     21 C22       -11.3720    1.0800   -0.8020 C.ar      1 5LC        -0.0617
     22 O23       -11.2790    3.9890    1.4440 O.3       1 5LC        -0.3312
     23 O24        -9.2110    2.6920    2.3770 O.3       1 5LC        -0.3357
     24 C23       -14.7510    6.1590    0.3020 C.3       1 5LC        -0.0328
     25 O25       -10.5690    6.6480    2.4980 O.3       1 5LC        -0.3312
     26 C13       -14.7280    4.6840    0.0300 C.3       1 5LC         0.0301
     27 O26        -8.3100    5.5370    1.7700 O.3       1 5LC        -0.3357
     28 H1         -6.3899    7.1474    0.9039 H         1 5LC         0.0543
     29 H2         -8.7732   10.6598    1.2831 H         1 5LC         0.0544
     30 H3         -6.6464    9.5897    0.6629 H         1 5LC         0.0508
     31 H4        -11.9591    7.6835    2.0143 H         1 5LC         0.1840
     32 H5        -13.6672   10.0438    2.3834 H         1 5LC         0.0519
     33 H6        -13.6992    8.7234    3.6008 H         1 5LC         0.0519
     34 H7        -14.4755    8.5583    0.6735 H         1 5LC         0.0285
     35 H8        -15.5730    8.5499    2.0955 H         1 5LC         0.0285
     36 H9        -15.4170    6.3302    2.3339 H         1 5LC         0.0267
     37 H10       -13.6330    6.3357    2.1242 H         1 5LC         0.0267
     38 H11       -12.8286    4.3307    0.9200 H         1 5LC         0.1840
     39 H12        -8.6111    0.3892    1.0905 H         1 5LC         0.0543
     40 H13        -9.9668   -0.5387   -0.7778 H         1 5LC         0.0508
     41 H14       -11.9484    0.6777   -1.6272 H         1 5LC         0.0544
     42 H15       -11.4456    3.8363    2.3668 H         1 5LC         0.2472
     43 H16        -9.6379    3.5087    2.6079 H         1 5LC         0.2443
     44 H17       -13.9408    6.6003   -0.2970 H         1 5LC         0.0285
     45 H18       -15.7204    6.5294   -0.0629 H         1 5LC         0.0285
     46 H19       -10.2713    5.7459    2.4887 H         1 5LC         0.2472
     47 H20       -15.4241    4.1998    0.7307 H         1 5LC         0.0519
     48 H21       -15.0758    4.5246   -1.0013 H         1 5LC         0.0519
     49 H22        -8.4222    5.3234    2.6888 H         1 5LC         0.2443
@<TRIPOS>BOND
     1    2    1 ar 
     2    6    1 ar 
     3    3    2 ar 
     4    2   27 1  
     5    4    3 ar 
     6    3   25 1  
     7    4    5 ar 
     8    7    4 1  
     9    5    6 ar 
    10    8    7 am 
    11    7    9 2  
    12   10    8 1  
    13   11   10 1  
    14   12   11 1  
    15   24   12 1  
    16   13   14 am 
    17   26   13 1  
    18   14   15 1  
    19   14   16 2  
    20   15   17 ar 
    21   15   21 ar 
    22   17   18 ar 
    23   17   22 1  
    24   18   19 ar 
    25   18   23 1  
    26   20   19 ar 
    27   21   20 ar 
    28   24   26 1  
    29    1   28 1  
    30    5   29 1  
    31    6   30 1  
    32    8   31 1  
    33   10   32 1  
    34   10   33 1  
    35   11   34 1  
    36   11   35 1  
    37   12   36 1  
    38   12   37 1  
    39   13   38 1  
    40   19   39 1  
    41   20   40 1  
    42   21   41 1  
    43   22   42 1  
    44   23   43 1  
    45   24   44 1  
    46   24   45 1  
    47   25   46 1  
    48   26   47 1  
    49   26   48 1  
    50   27   49 1  
@<TRIPOS>SUBSTRUCTURE
     1 5LC         1

