### 
### Created by X-TOOL on Mon Sep 10 21:13:34 2018
### 

@<TRIPOS>MOLECULE
5td2_ligand
   61    65     1     0     0
SMALL
GAST_HUCK


@<TRIPOS>ATOM
      1 C6         11.0600   13.3960   18.9690 C.3       1 7AE         0.0531
      2 C7         10.6960   13.1510   17.4940 C.3       1 7AE         0.0673
      3 C13        14.3800   12.6250   15.4630 C.2       1 7AE         0.0028
      4 C15        15.7390   14.5410   14.6520 C.2       1 7AE         0.0962
      5 C17        16.6980   15.4890   14.0510 C.ar      1 7AE         0.0317
      6 C20        18.5520   17.1610   12.8390 C.ar      1 7AE        -0.0515
      7 C21        17.6780   17.6810   13.7840 C.ar      1 7AE        -0.0438
      8 C22        16.7310   16.8610   14.3980 C.ar      1 7AE         0.0749
      9 C24        15.8770   18.4460   16.1210 C.2       1 7AE         0.2792
     10 C26        14.9000   18.6400   17.1880 C.2       1 7AE         0.2163
     11 C28        13.2030   18.3920   18.4800 C.2       1 7AE        -0.0128
     12 C1         13.5160   13.7030   21.5290 C.3       1 7AE         0.0734
     13 S2         12.5560   14.9460   20.6370 S.o2      1 7AE         0.0388
     14 O3         11.2770   15.0730   21.2400 O.2       1 7AE        -0.1556
     15 O4         13.3830   16.0900   20.4250 O.2       1 7AE        -0.1556
     16 N5         12.2750   14.2300   19.1600 N.am      1 7AE        -0.2323
     17 O8         11.8840   12.9570   16.7140 O.3       1 7AE        -0.3630
     18 C9         12.7590   14.0960   16.6750 C.3       1 7AE         0.1090
     19 C11        13.2810   14.4080   18.0850 C.3       1 7AE         0.0637
     20 C12        13.9660   13.8440   15.8120 C.2       1 7AE         0.0246
     21 S14        15.8330   12.7970   14.4740 S.3       1 7AE        -0.0257
     22 N16        14.6970   14.8390   15.3720 N.2       1 7AE        -0.3123
     23 C18        17.5760   14.9750   13.0990 C.ar      1 7AE        -0.0409
     24 C19        18.5000   15.8010   12.4880 C.ar      1 7AE         0.0305
     25 N23        15.8470   17.3020   15.3990 N.am      1 7AE        -0.2291
     26 O25        16.6780   19.3310   15.9420 O.2       1 7AE        -0.3645
     27 N27        13.8190   17.9240   17.3950 N.2       1 7AE        -0.3078
     28 C29        13.9290   19.4200   18.9920 C.2       1 7AE         0.0412
     29 N30        15.0130   19.5720   18.1860 N.pl3     1 7AE        -0.2510
     30 N32        19.3640   15.2210   11.5480 N.pl3     1 7AE        -0.3114
     31 C33        18.8740   15.0470   10.1610 C.3       1 7AE         0.0476
     32 C34        19.7250   13.9100    9.5690 C.3       1 7AE         0.0668
     33 O35        21.1300   14.2080    9.7380 O.3       1 7AE        -0.3760
     34 C36        21.6280   14.4470   11.0700 C.3       1 7AE         0.0668
     35 C37        20.7940   15.5730   11.6860 C.3       1 7AE         0.0476
     36 H1         11.2300   12.4215   19.4500 H         1 7AE         0.0501
     37 H2         10.2129   13.9021   19.4551 H         1 7AE         0.0501
     38 H3         10.1456   14.0211   17.1066 H         1 7AE         0.0578
     39 H4         10.0631   12.2543   17.4204 H         1 7AE         0.0578
     40 H5         13.9040   11.6856   15.7402 H         1 7AE         0.0571
     41 H6         19.2812   17.8098   12.3675 H         1 7AE         0.0522
     42 H7         17.7318   18.7313   14.0466 H         1 7AE         0.0491
     43 H8         12.2685   18.0119   18.8901 H         1 7AE         0.0483
     44 H9         12.8931   12.8129   21.7013 H         1 7AE         0.0482
     45 H10        13.8417   14.1152   22.4954 H         1 7AE         0.0482
     46 H11        14.3977   13.4238   20.9335 H         1 7AE         0.0482
     47 H12        12.2013   14.9595   16.2834 H         1 7AE         0.0750
     48 H13        14.1303   13.7408   18.2936 H         1 7AE         0.0523
     49 H14        13.6230   15.4533   18.1025 H         1 7AE         0.0523
     50 H15        17.5341   13.9240   12.8369 H         1 7AE         0.0504
     51 H16        15.0896   16.6829   15.6064 H         1 7AE         0.2267
     52 H17        13.6890   20.0081   19.8766 H         1 7AE         0.0919
     53 H18        15.7736   20.2566   18.3031 H         1 7AE         0.2420
     54 H19        19.0136   15.9731    9.5841 H         1 7AE         0.0531
     55 H20        17.8091   14.7715   10.1603 H         1 7AE         0.0531
     56 H21        19.5005   13.8063    8.4972 H         1 7AE         0.0579
     57 H22        19.4870   12.9688   10.0862 H         1 7AE         0.0579
     58 H23        22.6857   14.7458   11.0261 H         1 7AE         0.0579
     59 H24        21.5296   13.5341   11.6757 H         1 7AE         0.0579
     60 H25        21.0485   15.6847   12.7503 H         1 7AE         0.0531
     61 H26        20.9971   16.5171   11.1593 H         1 7AE         0.0531
@<TRIPOS>BOND
     1    2    1 1  
     2   16    1 1  
     3   17    2 1  
     4   20    3 2  
     5    3   21 1  
     6    4    5 1  
     7   21    4 1  
     8    4   22 2  
     9    5    8 ar 
    10    5   23 ar 
    11    7    6 ar 
    12    6   24 ar 
    13    8    7 ar 
    14    8   25 1  
    15    9   10 1  
    16   25    9 am 
    17    9   26 2  
    18   10   27 2  
    19   10   29 1  
    20   27   11 1  
    21   11   28 2  
    22   13   12 1  
    23   13   14 2  
    24   13   15 2  
    25   16   13 am 
    26   19   16 1  
    27   18   17 1  
    28   18   19 1  
    29   18   20 1  
    30   20   22 1  
    31   23   24 ar 
    32   24   30 1  
    33   28   29 1  
    34   30   31 1  
    35   30   35 1  
    36   31   32 1  
    37   32   33 1  
    38   33   34 1  
    39   34   35 1  
    40    1   36 1  
    41    1   37 1  
    42    2   38 1  
    43    2   39 1  
    44    3   40 1  
    45    6   41 1  
    46    7   42 1  
    47   11   43 1  
    48   12   44 1  
    49   12   45 1  
    50   12   46 1  
    51   18   47 1  
    52   19   48 1  
    53   19   49 1  
    54   23   50 1  
    55   25   51 1  
    56   28   52 1  
    57   29   53 1  
    58   31   54 1  
    59   31   55 1  
    60   32   56 1  
    61   32   57 1  
    62   34   58 1  
    63   34   59 1  
    64   35   60 1  
    65   35   61 1  
@<TRIPOS>SUBSTRUCTURE
     1 7AE         1

