### 
### Created by X-TOOL on Mon Sep 10 21:13:32 2018
### 

@<TRIPOS>MOLECULE
5td7_ligand
   40    39     1     0     0
SMALL
GAST_HUCK


@<TRIPOS>ATOM
      1 C2         48.5030   -9.8370  116.5520 C.3       1 FKS        -0.0305
      2 C3         47.3030   -8.8600  116.3130 C.3       1 FKS         0.0275
      3 C4         47.7120   -7.4100  115.8770 C.3       1 FKS        -0.0288
      4 C6         46.8360   -5.1260  115.4060 C.3       1 FKS        -0.0337
      5 C7         45.5440   -4.2630  115.1720 C.3       1 FKS        -0.0126
      6 C8         45.7290   -2.7280  115.3670 C.3       1 FKS        -0.0481
      7 C9         44.4350   -1.8770  115.1250 C.3       1 FKS        -0.0477
      8 C10        44.5960   -0.3490  115.3810 C.3       1 FKS         0.0101
      9 C11        43.6220    0.5930  114.5520 C.3       1 FKS         0.2629
     10 C12        43.8480    2.1470  115.0210 C.3       1 FKS         0.4438
     11 F15        42.9240    2.9550  114.4130 F         1 FKS        -0.1654
     12 F16        43.6500    2.2630  116.3480 F         1 FKS        -0.1654
     13 F17        45.0760    2.6010  114.7140 F         1 FKS        -0.1654
     14 N5         46.5200   -6.5860  115.4980 N.4       1 FKS         0.2271
     15 N1         48.0820  -11.1120  117.1750 N.4       1 FKS         0.2187
     16 O13        42.2610    0.3450  114.8710 O.3       1 FKS        -0.3581
     17 O14        43.8810    0.4820  113.1540 O.3       1 FKS        -0.3581
     18 H1         49.2317   -9.3453  117.2132 H         1 FKS         0.0815
     19 H2         48.9766  -10.0572  115.5839 H         1 FKS         0.0815
     20 H3         46.7296   -8.7869  117.2489 H         1 FKS         0.0369
     21 H4         46.6656   -9.2873  115.5249 H         1 FKS         0.0369
     22 H5         48.3888   -7.4758  115.0124 H         1 FKS         0.0816
     23 H6         48.2321   -6.9201  116.7133 H         1 FKS         0.0816
     24 H7         47.3134   -4.8053  116.3437 H         1 FKS         0.0814
     25 H8         47.5292   -4.9639  114.5674 H         1 FKS         0.0814
     26 H9         44.7731   -4.6055  115.8780 H         1 FKS         0.0317
     27 H10        45.2006   -4.4364  114.1415 H         1 FKS         0.0317
     28 H11        46.5019   -2.3839  114.6641 H         1 FKS         0.0267
     29 H12        46.0671   -2.5518  116.3988 H         1 FKS         0.0267
     30 H13        43.6480   -2.2543  115.7945 H         1 FKS         0.0267
     31 H14        44.1248   -2.0171  114.0790 H         1 FKS         0.0267
     32 H15        45.6302   -0.0710  115.1298 H         1 FKS         0.0320
     33 H16        44.4161   -0.1643  116.4503 H         1 FKS         0.0320
     34 H17        45.8021   -6.7178  116.1932 H         1 FKS         0.2013
     35 H18        46.1819   -6.9003  114.6019 H         1 FKS         0.2013
     36 H19        48.8875  -11.7034  117.3073 H         1 FKS         0.1994
     37 H20        47.4191  -11.5767  116.5745 H         1 FKS         0.1994
     38 H21        47.6528  -10.9243  118.0675 H         1 FKS         0.1994
     39 H22        42.1362    0.4298  115.8090 H         1 FKS         0.2130
     40 H23        43.6657   -0.3960  112.8619 H         1 FKS         0.2130
@<TRIPOS>BOND
     1    2    1 1  
     2    1   15 1  
     3    3    2 1  
     4   14    3 1  
     5    4    5 1  
     6    4   14 1  
     7    5    6 1  
     8    6    7 1  
     9    7    8 1  
    10    8    9 1  
    11    9   10 1  
    12    9   16 1  
    13    9   17 1  
    14   10   11 1  
    15   10   12 1  
    16   10   13 1  
    17    1   18 1  
    18    1   19 1  
    19    2   20 1  
    20    2   21 1  
    21    3   22 1  
    22    3   23 1  
    23    4   24 1  
    24    4   25 1  
    25    5   26 1  
    26    5   27 1  
    27    6   28 1  
    28    6   29 1  
    29    7   30 1  
    30    7   31 1  
    31    8   32 1  
    32    8   33 1  
    33   14   34 1  
    34   14   35 1  
    35   15   36 1  
    36   15   37 1  
    37   15   38 1  
    38   16   39 1  
    39   17   40 1  
@<TRIPOS>SUBSTRUCTURE
     1 FKS         1

