### 
### Created by X-TOOL on Mon Sep 10 21:13:30 2018
### 

@<TRIPOS>MOLECULE
5tdb_ligand
   52    51     1     0     0
SMALL
GAST_HUCK


@<TRIPOS>ATOM
      1 C1          8.0990    5.7880    8.0290 C.3       1 DA2         0.0535
      2 C2          8.4810    6.7250    5.7890 C.3       1 DA2         0.0535
      3 N          13.3940    1.4070   10.2700 N.4       1 DA2         0.2379
      4 CA         13.8670    1.4830    8.8890 C.3       1 DA2         0.0651
      5 CB         13.9980    2.9400    8.4190 C.3       1 DA2         0.0110
      6 CG         12.7420    3.7800    8.6360 C.3       1 DA2        -0.0125
      7 CD         11.6470    3.3140    7.6900 C.3       1 DA2         0.0629
      8 NE         10.4840    4.2030    7.7450 N.pl3     1 DA2        -0.2721
      9 CZ         10.1080    5.0510    6.6690 C.cat     1 DA2         0.2920
     10 NH2        10.8240    5.0910    5.6390 N.pl3     1 DA2        -0.2847
     11 NH1         8.9040    5.8210    6.8360 N.pl3     1 DA2        -0.2650
     12 C          15.2770    0.9060    8.8130 C.2       1 DA2         0.2262
     13 O          15.9940    0.8790    9.8380 O.2       1 DA2        -0.3908
     14 N          15.6850    0.4630    7.6260 N.am      1 ILE        -0.2665
     15 CA         17.1040    0.2100    7.3800 C.3       1 ILE         0.0970
     16 C          17.7360    1.3410    6.5820 C.2       1 ILE         0.0604
     17 O          17.0360    2.2010    6.0480 O.co2     1 ILE        -0.5666
     18 CB         17.3500   -1.1370    6.6950 C.3       1 ILE        -0.0092
     19 CG1        16.4800   -1.2840    5.4450 C.3       1 ILE        -0.0497
     20 CG2        17.1090   -2.2630    7.6690 C.3       1 ILE        -0.0588
     21 CD1        16.8190   -2.5200    4.6140 C.3       1 ILE        -0.0649
     22 OXT        18.9580    1.4150    6.4570 O.co2     1 ILE        -0.5666
     23 H1          7.2371    6.4608    7.9085 H         1 DA2         0.0653
     24 H2          8.7028    6.1159    8.8880 H         1 DA2         0.0653
     25 H3          7.7418    4.7621    8.2021 H         1 DA2         0.0653
     26 H4          9.1765    6.6536    4.9398 H         1 DA2         0.0653
     27 H5          8.4768    7.7555    6.1738 H         1 DA2         0.0653
     28 H6          7.4681    6.4534    5.4571 H         1 DA2         0.0653
     29 H7         12.4621    1.7869   10.3273 H         1 DA2         0.2015
     30 H8         14.0102    1.9372   10.8659 H         1 DA2         0.2015
     31 H9         13.3834    0.4445   10.5691 H         1 DA2         0.2015
     32 H10        13.1807    0.9287    8.2319 H         1 DA2         0.1098
     33 H11        14.2298    2.9367    7.3437 H         1 DA2         0.0347
     34 H12        14.8262    3.4080    8.9712 H         1 DA2         0.0347
     35 H13        12.9704    4.8378    8.4387 H         1 DA2         0.0302
     36 H14        12.4006    3.6662    9.6754 H         1 DA2         0.0302
     37 H15        11.3355    2.2982    7.9747 H         1 DA2         0.0689
     38 H16        12.0412    3.3025    6.6631 H         1 DA2         0.0689
     39 H17         9.9132    4.2137    8.6023 H         1 DA2         0.2642
     40 H18        11.6755    4.5143    5.5810 H         1 DA2         0.2615
     41 H19        10.5602    5.7005    4.8517 H         1 DA2         0.2615
     42 H20        15.0177    0.3024    6.8987 H         1 ILE         0.1877
     43 H21        17.6030    0.1753    8.3597 H         1 ILE         0.0729
     44 H22        18.4035   -1.1757    6.3809 H         1 ILE         0.0338
     45 H23        16.6187   -0.3921    4.8164 H         1 ILE         0.0267
     46 H24        15.4277   -1.3519    5.7582 H         1 ILE         0.0267
     47 H25        17.7488   -2.1261    8.5533 H         1 ILE         0.0234
     48 H26        17.3495   -3.2223    7.1874 H         1 ILE         0.0234
     49 H27        16.0530   -2.2619    7.9768 H         1 ILE         0.0234
     50 H28        16.1589   -2.5633    3.7351 H         1 ILE         0.0230
     51 H29        16.6756   -3.4233    5.2251 H         1 ILE         0.0230
     52 H30        17.8666   -2.4635    4.2833 H         1 ILE         0.0230
@<TRIPOS>BOND
     1   11    1 1  
     2   11    2 1  
     3    4    3 1  
     4    5    4 1  
     5    4   12 1  
     6    6    5 1  
     7    7    6 1  
     8    8    7 1  
     9    9    8 ar 
    10    9   10 ar 
    11    9   11 ar 
    12   12   13 2  
    13   12   14 am 
    14   14   15 1  
    15   15   16 1  
    16   15   18 1  
    17   16   17 ar 
    18   16   22 ar 
    19   18   19 1  
    20   18   20 1  
    21   19   21 1  
    22    1   23 1  
    23    1   24 1  
    24    1   25 1  
    25    2   26 1  
    26    2   27 1  
    27    2   28 1  
    28    3   29 1  
    29    3   30 1  
    30    3   31 1  
    31    4   32 1  
    32    5   33 1  
    33    5   34 1  
    34    6   35 1  
    35    6   36 1  
    36    7   37 1  
    37    7   38 1  
    38    8   39 1  
    39   10   40 1  
    40   10   41 1  
    41   14   42 1  
    42   15   43 1  
    43   18   44 1  
    44   19   45 1  
    45   19   46 1  
    46   20   47 1  
    47   20   48 1  
    48   20   49 1  
    49   21   50 1  
    50   21   51 1  
    51   21   52 1  
@<TRIPOS>SUBSTRUCTURE
     1 DA2         1

