### 
### Created by X-TOOL on Fri Nov  2 10:13:30 2018
### 

@<TRIPOS>MOLECULE
5teh_ligand
   67    70     1     0     0
SMALL
GAST_HUCK


@<TRIPOS>ATOM
      1 O1         -5.4250  -42.8800    4.9030 O.2       1 S56        -0.3942
      2 C21        -5.1540  -41.7450    4.5020 C.2       1 S56         0.2080
      3 N4         -4.9840  -41.4540    3.2040 N.am      1 S56        -0.2823
      4 C22        -4.0850  -42.1980    2.3190 C.3       1 S56         0.0365
      5 C24        -2.6620  -42.1110    2.8410 C.3       1 S56        -0.0423
      6 C23        -4.5680  -43.6320    2.1720 C.3       1 S56        -0.0423
      7 C19        -5.0790  -40.5540    5.4630 C.3       1 S56         0.1849
      8 C20        -3.7500  -40.4150    6.0810 C.1       1 S56         0.1176
      9 N3         -2.7200  -40.2600    6.5540 N.1       1 S56        -0.3003
     10 C18        -6.1430  -40.6790    6.5840 C.3       1 S56         0.0541
     11 C17        -7.2150  -39.4820    6.4530 C.2       1 S56         0.0690
     12 N5         -8.2930  -39.5250    5.5830 N.pl3     1 S56        -0.2376
     13 C25        -8.3310  -40.3030    4.3340 C.3       1 S56         0.0800
     14 C26        -9.6280  -40.2810    3.5160 C.3       1 S56         0.0743
     15 O2        -10.7460  -40.5900    4.3770 O.3       1 S56        -0.3803
     16 C27       -11.9920  -40.2850    3.7570 C.3       1 S56         0.0366
     17 C2         -9.1240  -38.4610    5.9340 C.ar      1 S56         0.1373
     18 N2        -10.4120  -38.3160    5.5660 N.ar      1 S56        -0.2794
     19 C1        -10.9660  -37.2080    6.0820 C.ar      1 S56         0.0476
     20 N1        -10.4080  -36.2750    6.8610 N.ar      1 S56        -0.2766
     21 C4         -7.1430  -38.2300    7.0420 C.2       1 S56        -0.0089
     22 C3         -8.3920  -37.5690    6.7560 C.ar      1 S56         0.0453
     23 C          -9.1100  -36.4240    7.2060 C.ar      1 S56         0.1125
     24 N          -8.5640  -35.4550    7.9590 N.pl3     1 S56        -0.3176
     25 C5         -5.9720  -37.6400    7.7350 C.ar      1 S56        -0.0548
     26 C16        -6.0750  -37.2120    9.0520 C.ar      1 S56        -0.0733
     27 C15        -4.9770  -36.6970    9.7230 C.ar      1 S56        -0.0354
     28 C8         -3.7500  -36.6140    9.0760 C.ar      1 S56         0.1095
     29 C7         -3.6300  -37.0350    7.7590 C.ar      1 S56        -0.0354
     30 C6         -4.7410  -37.5300    7.0920 C.ar      1 S56        -0.0733
     31 O          -2.7230  -36.1370    9.8950 O.3       1 S56        -0.2619
     32 C9         -1.6940  -35.3260    9.4200 C.ar      1 S56         0.1146
     33 C14        -0.5670  -35.2710   10.2330 C.ar      1 S56        -0.0288
     34 C13         0.4790  -34.4320    9.8890 C.ar      1 S56        -0.0698
     35 C12         0.4020  -33.6480    8.7550 C.ar      1 S56        -0.0724
     36 C11        -0.7320  -33.6890    7.9670 C.ar      1 S56        -0.0698
     37 C10        -1.7770  -34.5450    8.2760 C.ar      1 S56        -0.0288
     38 H1         -5.4988  -40.6877    2.8196 H         1 S56         0.1854
     39 H2         -4.1099  -41.7297    1.3240 H         1 S56         0.0550
     40 H3         -1.9915  -42.6713    2.1728 H         1 S56         0.0252
     41 H4         -2.6154  -42.5414    3.8522 H         1 S56         0.0252
     42 H5         -2.3481  -41.0573    2.8761 H         1 S56         0.0252
     43 H6         -3.8867  -44.1819    1.5061 H         1 S56         0.0252
     44 H7         -5.5813  -43.6356    1.7439 H         1 S56         0.0252
     45 H8         -4.5854  -44.1161    3.1596 H         1 S56         0.0252
     46 H9         -5.2865  -39.6415    4.8849 H         1 S56         0.0866
     47 H10        -5.6488  -40.6212    7.5650 H         1 S56         0.0536
     48 H11        -6.6607  -41.6450    6.4905 H         1 S56         0.0536
     49 H12        -8.1255  -41.3517    4.5945 H         1 S56         0.0631
     50 H13        -7.5281  -39.9220    3.6858 H         1 S56         0.0631
     51 H14        -9.5670  -41.0290    2.7118 H         1 S56         0.0587
     52 H15        -9.7681  -39.2819    3.0777 H         1 S56         0.0587
     53 H16       -12.8141  -40.5344    4.4440 H         1 S56         0.0524
     54 H17       -12.0954  -40.8727    2.8329 H         1 S56         0.0524
     55 H18       -12.0286  -39.2125    3.5155 H         1 S56         0.0524
     56 H19       -12.0088  -37.0471    5.8333 H         1 S56         0.0955
     57 H20        -7.5778  -35.5218    8.2485 H         1 S56         0.1813
     58 H21        -9.1315  -34.6451    8.2470 H         1 S56         0.1813
     59 H22        -7.0285  -37.2817    9.5630 H         1 S56         0.0526
     60 H23        -5.0750  -36.3602   10.7487 H         1 S56         0.0537
     61 H24        -2.6726  -36.9773    7.2539 H         1 S56         0.0537
     62 H25        -4.6501  -37.8355    6.0559 H         1 S56         0.0526
     63 H26        -0.5082  -35.8797   11.1281 H         1 S56         0.0551
     64 H27         1.3639  -34.3903   10.5137 H         1 S56         0.0590
     65 H28         1.2292  -33.0020    8.4837 H         1 S56         0.0527
     66 H29        -0.8051  -33.0450    7.0981 H         1 S56         0.0590
     67 H30        -2.6475  -34.6037    7.6327 H         1 S56         0.0551
@<TRIPOS>BOND
     1    1    2 2  
     2    2    3 am 
     3    2    7 1  
     4    3    4 1  
     5    4    5 1  
     6    4    6 1  
     7    7    8 1  
     8    7   10 1  
     9    8    9 3  
    10   10   11 1  
    11   11   12 1  
    12   11   21 2  
    13   12   13 1  
    14   12   17 1  
    15   13   14 1  
    16   14   15 1  
    17   15   16 1  
    18   17   18 ar 
    19   17   22 ar 
    20   18   19 ar 
    21   19   20 ar 
    22   20   23 ar 
    23   21   22 1  
    24   21   25 1  
    25   22   23 ar 
    26   23   24 1  
    27   25   26 ar 
    28   25   30 ar 
    29   26   27 ar 
    30   27   28 ar 
    31   28   29 ar 
    32   28   31 1  
    33   29   30 ar 
    34   31   32 1  
    35   32   33 ar 
    36   32   37 ar 
    37   33   34 ar 
    38   34   35 ar 
    39   35   36 ar 
    40   36   37 ar 
    41    3   38 1  
    42    4   39 1  
    43    5   40 1  
    44    5   41 1  
    45    5   42 1  
    46    6   43 1  
    47    6   44 1  
    48    6   45 1  
    49    7   46 1  
    50   10   47 1  
    51   10   48 1  
    52   13   49 1  
    53   13   50 1  
    54   14   51 1  
    55   14   52 1  
    56   16   53 1  
    57   16   54 1  
    58   16   55 1  
    59   19   56 1  
    60   24   57 1  
    61   24   58 1  
    62   26   59 1  
    63   27   60 1  
    64   29   61 1  
    65   30   62 1  
    66   33   63 1  
    67   34   64 1  
    68   35   65 1  
    69   36   66 1  
    70   37   67 1  
@<TRIPOS>SUBSTRUCTURE
     1 S56         1

