### 
### Created by X-TOOL on Mon Sep 10 21:13:32 2018
### 

@<TRIPOS>MOLECULE
5tex_ligand
   57    61     1     0     0
SMALL
GAST_HUCK


@<TRIPOS>ATOM
      1 CAY        75.6060   32.0930    7.3000 C.3       1 7AU         0.0678
      2 CAZ        75.0230   31.9270    8.6860 C.3       1 7AU        -0.0133
      3 NBA        74.0340   32.9540    9.0080 N.4       1 7AU         0.2298
      4 CBB        74.7640   34.2230    9.1410 C.3       1 7AU        -0.0133
      5 CBC        75.8400   34.4250    8.0690 C.3       1 7AU         0.0678
      6 NAX        75.6700   33.4990    6.9500 N.pl3     1 7AU        -0.2966
      7 CAU        75.5130   33.9230    5.6990 C.ar      1 7AU         0.0444
      8 CAV        76.0040   35.1450    5.3230 C.ar      1 7AU        -0.0407
      9 CAW        75.8520   35.6040    4.0370 C.ar      1 7AU        -0.0604
     10 CAT        74.8630   33.1570    4.7690 C.ar      1 7AU        -0.0407
     11 CAS        74.7120   33.6240    3.4820 C.ar      1 7AU        -0.0604
     12 CAR        75.2200   34.8400    3.1100 C.ar      1 7AU        -0.0009
     13 CAH        75.0470   35.2640    1.8810 C.2       1 7AU         0.0763
     14 NAG        75.3280   34.5430    0.8490 N.pl3     1 7AU        -0.2473
     15 CBD        75.8660   33.2400    0.7470 C.3       1 7AU         0.0426
     16 CAF        75.0190   35.2300   -0.1870 C.ar      1 7AU         0.1392
     17 NAD        75.1440   34.8590   -1.4430 N.ar      1 7AU        -0.2859
     18 CAC        74.7790   35.7010   -2.4360 C.ar      1 7AU        -0.0059
     19 CAB        74.2610   36.9210   -2.1250 C.ar      1 7AU        -0.0373
     20 CAA        74.1470   37.2640   -0.7990 C.ar      1 7AU         0.0486
     21 CL1        73.5470   38.7000   -0.5960 Cl        1 7AU        -0.0643
     22 CAE        74.5240   36.4120    0.1650 C.ar      1 7AU         0.0249
     23 CAI        74.5390   36.4100    1.4970 C.2       1 7AU        -0.0037
     24 CAJ        74.1870   37.3540    2.3750 C.ar      1 7AU        -0.0443
     25 CAK        74.5850   38.6700    2.2750 C.ar      1 7AU        -0.0695
     26 CAL        74.2300   39.6190    3.2220 C.ar      1 7AU        -0.0634
     27 CAO        73.4440   37.0290    3.4690 C.ar      1 7AU        -0.0695
     28 CAN        73.0890   37.9510    4.4150 C.ar      1 7AU        -0.0634
     29 CAM        73.4790   39.2420    4.3100 C.ar      1 7AU        -0.0226
     30 CAP        73.0600   40.0810    5.2910 C.3       1 7AU         0.0760
     31 OAQ        73.9130   41.1660    5.4120 O.3       1 7AU        -0.3832
     32 H1         74.9709   31.5659    6.5728 H         1 7AU         0.0570
     33 H2         76.6197   31.6665    7.2785 H         1 7AU         0.0570
     34 H3         75.8399   31.9824    9.4205 H         1 7AU         0.0834
     35 H4         74.5397   30.9409    8.7488 H         1 7AU         0.0834
     36 H5         73.5698   32.7288    9.8739 H         1 7AU         0.2015
     37 H6         73.3520   33.0223    8.2689 H         1 7AU         0.2015
     38 H7         75.2482   34.2442   10.1285 H         1 7AU         0.0834
     39 H8         74.0416   35.0494    9.0690 H         1 7AU         0.0834
     40 H9         76.8290   34.2597    8.5212 H         1 7AU         0.0570
     41 H10        75.7773   35.4561    7.6909 H         1 7AU         0.0570
     42 H11        76.5206   35.7596    6.0514 H         1 7AU         0.0528
     43 H12        76.2378   36.5789    3.7619 H         1 7AU         0.0604
     44 H13        74.4683   32.1858    5.0447 H         1 7AU         0.0528
     45 H14        74.1834   33.0203    2.7532 H         1 7AU         0.0604
     46 H15        76.0548   32.8414    1.7547 H         1 7AU         0.0564
     47 H16        76.8104   33.2762    0.1842 H         1 7AU         0.0564
     48 H17        75.1515   32.5883    0.2228 H         1 7AU         0.0564
     49 H18        74.8980   35.4067   -3.4725 H         1 7AU         0.0744
     50 H19        73.9461   37.6054   -2.9044 H         1 7AU         0.0603
     51 H20        75.1939   38.9723    1.4306 H         1 7AU         0.0551
     52 H21        74.5424   40.6504    3.1051 H         1 7AU         0.0546
     53 H22        73.1220   36.0016    3.5948 H         1 7AU         0.0551
     54 H23        72.4862   37.6425    5.2614 H         1 7AU         0.0546
     55 H24        73.0347   39.5348    6.2455 H         1 7AU         0.0713
     56 H25        72.0498   40.4425    5.0485 H         1 7AU         0.0713
     57 H26        74.7864   40.8586    5.6249 H         1 7AU         0.2125
@<TRIPOS>BOND
     1    1    2 1  
     2    1    6 1  
     3    2    3 1  
     4    3    4 1  
     5    4    5 1  
     6    5    6 1  
     7    6    7 1  
     8    7    8 ar 
     9    7   10 ar 
    10    8    9 ar 
    11    9   12 ar 
    12   10   11 ar 
    13   11   12 ar 
    14   12   13 1  
    15   13   14 1  
    16   13   23 2  
    17   14   15 1  
    18   14   16 1  
    19   16   17 ar 
    20   16   22 ar 
    21   17   18 ar 
    22   18   19 ar 
    23   19   20 ar 
    24   20   21 1  
    25   20   22 ar 
    26   22   23 1  
    27   23   24 1  
    28   24   25 ar 
    29   24   27 ar 
    30   25   26 ar 
    31   26   29 ar 
    32   27   28 ar 
    33   28   29 ar 
    34   29   30 1  
    35   30   31 1  
    36    1   32 1  
    37    1   33 1  
    38    2   34 1  
    39    2   35 1  
    40    3   36 1  
    41    3   37 1  
    42    4   38 1  
    43    4   39 1  
    44    5   40 1  
    45    5   41 1  
    46    8   42 1  
    47    9   43 1  
    48   10   44 1  
    49   11   45 1  
    50   15   46 1  
    51   15   47 1  
    52   15   48 1  
    53   18   49 1  
    54   19   50 1  
    55   25   51 1  
    56   26   52 1  
    57   27   53 1  
    58   28   54 1  
    59   30   55 1  
    60   30   56 1  
    61   31   57 1  
@<TRIPOS>SUBSTRUCTURE
     1 7AU         1

