### 
### Created by X-TOOL on Mon Sep 10 21:13:32 2018
### 

@<TRIPOS>MOLECULE
5tfx_ligand
   33    35     1     0     0
SMALL
GAST_HUCK


@<TRIPOS>ATOM
      1 C20        -2.2580   11.8120   80.2460 C.ar      1 7B1        -0.0575
      2 C19        -3.5320   11.3990   80.5390 C.ar      1 7B1        -0.0561
      3 C21        -1.1820   10.9550   80.3710 C.ar      1 7B1        -0.0561
      4 C18        -3.7470   10.1060   80.9720 C.ar      1 7B1        -0.0413
      5 C22        -1.3920    9.6650   80.7980 C.ar      1 7B1        -0.0413
      6 C9         -0.2190    3.5870   84.7090 C.ar      1 7B1        -0.0320
      7 C10        -0.8430    2.6200   85.4370 C.ar      1 7B1        -0.0505
      8 C16        -3.0260    3.5860   85.0560 C.ar      1 7B1        -0.0408
      9 C17        -2.6870    9.2620   81.0930 C.ar      1 7B1         0.0583
     10 C6         -2.3750    4.5360   84.3010 C.ar      1 7B1         0.0256
     11 C7         -1.0080    4.5350   84.1460 C.ar      1 7B1         0.1367
     12 C11        -2.2150    2.6120   85.6010 C.ar      1 7B1         0.0899
     13 C2         -2.9790    7.9050   81.5750 C.2       1 7B1         0.2457
     14 C4         -1.9130    6.2750   82.9390 C.2       1 7B1         0.3034
     15 N14        -2.3760   -0.1330   86.0280 N.am      1 7B1        -0.2620
     16 N5         -2.9690    5.6200   83.6540 N.2       1 7B1        -0.2978
     17 N3         -1.9160    7.4510   82.2210 N.am      1 7B1        -0.1724
     18 O8         -0.6080    5.5510   83.4010 O.3       1 7B1        -0.1965
     19 O1         -3.9990    7.2740   81.4670 O.2       1 7B1        -0.3678
     20 O13        -2.3230    1.4910   87.9470 O.2       1 7B1        -0.1518
     21 O15        -4.3270    1.4180   86.4850 O.2       1 7B1        -0.1518
     22 S12        -2.8800    1.3070   86.6170 S.o2      1 7B1         0.0599
     23 H1         -2.0921   12.8293   79.9102 H         1 7B1         0.0653
     24 H2         -4.3655   12.0837   80.4313 H         1 7B1         0.0629
     25 H3         -0.1807   11.2965   80.1345 H         1 7B1         0.0629
     26 H4         -4.7482    9.7673   81.2127 H         1 7B1         0.0670
     27 H5         -0.5619    8.9758   80.9023 H         1 7B1         0.0670
     28 H6          0.8579    3.5983   84.5854 H         1 7B1         0.0548
     29 H7         -0.2499    1.8387   85.8984 H         1 7B1         0.0534
     30 H8         -4.0987    3.6023   85.2110 H         1 7B1         0.0535
     31 H9         -2.6550   -0.9820   86.4767 H         1 7B1         0.1634
     32 H10        -1.7888   -0.1645   85.2191 H         1 7B1         0.1634
     33 H11        -1.0734    7.9884   82.1860 H         1 7B1         0.2427
@<TRIPOS>BOND
     1    2    1 ar 
     2    3    1 ar 
     3    4    2 ar 
     4    5    3 ar 
     5    9    4 ar 
     6    9    5 ar 
     7    6    7 ar 
     8   11    6 ar 
     9   12    7 ar 
    10   10    8 ar 
    11    8   12 ar 
    12   13    9 1  
    13   10   11 ar 
    14   16   10 1  
    15   11   18 1  
    16   12   22 1  
    17   17   13 am 
    18   13   19 2  
    19   14   16 2  
    20   14   17 1  
    21   14   18 1  
    22   22   15 am 
    23   22   20 2  
    24   22   21 2  
    25    1   23 1  
    26    2   24 1  
    27    3   25 1  
    28    4   26 1  
    29    5   27 1  
    30    6   28 1  
    31    7   29 1  
    32    8   30 1  
    33   15   31 1  
    34   15   32 1  
    35   17   33 1  
@<TRIPOS>SUBSTRUCTURE
     1 7B1         1

