### 
### Created by X-TOOL on Mon Sep 10 21:13:30 2018
### 

@<TRIPOS>MOLECULE
5tg1_ligand
   69    70     1     0     0
SMALL
GAST_HUCK


@<TRIPOS>ATOM
      1 O01        74.8950  -51.3260  133.3710 O.2       1 V56        -0.3773
      2 C02        75.0670  -52.4950  133.5210 C.2       1 V56         0.3242
      3 N17        71.7720  -50.8800  130.6310 N.am      1 V56        -0.2870
      4 C18        70.7030  -51.7820  130.1920 C.3       1 V56         0.0309
      5 C19        71.0500  -53.1500  130.7900 C.3       1 V56        -0.0327
      6 C20        71.0570  -53.0290  132.3000 C.3       1 V56        -0.0510
      7 C21        71.6730  -54.2500  133.0510 C.3       1 V56        -0.0485
      8 C22        71.8390  -53.8710  134.5390 C.3       1 V56        -0.0122
      9 O25        74.1280  -53.4010  134.0900 O.3       1 V56        -0.2473
     10 C26        72.9580  -52.8360  134.6670 C.3       1 V56         0.1220
     11 C27        73.2400  -52.4300  136.1170 C.ar      1 V56        -0.0095
     12 C28        73.3690  -53.3500  137.1340 C.ar      1 V56        -0.0574
     13 C29        73.6170  -52.9070  138.4360 C.ar      1 V56        -0.0680
     14 C30        73.7280  -51.5540  138.6880 C.ar      1 V56        -0.0548
     15 C31        73.5940  -50.6510  137.6450 C.ar      1 V56         0.0339
     16 CL32       73.7260  -48.9020  137.8970 Cl        1 V56        -0.0725
     17 C33        73.3460  -51.0810  136.3670 C.ar      1 V56        -0.0437
     18 N03        76.2980  -53.1350  133.1030 N.am      1 V56        -0.2411
     19 C04        77.1460  -52.4170  132.1990 C.3       1 V56         0.1329
     20 C09        76.3800  -52.1170  130.9080 C.2       1 V56         0.2019
     21 O24        75.5780  -52.8460  130.3960 O.2       1 V56        -0.3945
     22 C05        78.3630  -53.2430  131.8850 C.3       1 V56        -0.0101
     23 C06        79.2000  -53.5570  133.1440 C.3       1 V56        -0.0425
     24 C07        80.3450  -54.5310  132.7850 C.3       1 V56        -0.0625
     25 C08        79.7220  -52.3200  133.8880 C.3       1 V56        -0.0625
     26 N10        76.6980  -50.8470  130.3130 N.am      1 V56        -0.2797
     27 C11        76.0270  -50.4370  129.0780 C.3       1 V56         0.0672
     28 C14        75.0430  -49.2980  129.3760 C.3       1 V56        -0.0108
     29 C15        73.9630  -49.7000  130.3660 C.3       1 V56         0.0394
     30 C16        72.8990  -50.6300  129.7600 C.2       1 V56         0.1760
     31 O23        72.9740  -51.1140  128.6770 O.2       1 V56        -0.3971
     32 C12        77.1170  -49.9970  128.0660 C.3       1 V56         0.0673
     33 O13        77.8680  -51.1490  127.7470 O.3       1 V56        -0.3927
     34 H1         71.7222  -50.4401  131.5277 H         1 V56         0.1850
     35 H2         70.6745  -51.8386  129.0938 H         1 V56         0.0520
     36 H3         69.7289  -51.4347  130.5667 H         1 V56         0.0520
     37 H4         72.0431  -53.4669  130.4390 H         1 V56         0.0285
     38 H5         70.2982  -53.8911  130.4810 H         1 V56         0.0285
     39 H6         70.0174  -52.9080  132.6385 H         1 V56         0.0266
     40 H7         71.6368  -52.1338  132.5690 H         1 V56         0.0266
     41 H8         72.6539  -54.4965  132.6184 H         1 V56         0.0268
     42 H9         71.0038  -55.1183  132.9609 H         1 V56         0.0268
     43 H10        72.0975  -54.7676  135.1214 H         1 V56         0.0316
     44 H11        70.8982  -53.4458  134.9186 H         1 V56         0.0316
     45 H12        72.6717  -51.9345  134.1056 H         1 V56         0.0812
     46 H13        73.2788  -54.4100  136.9259 H         1 V56         0.0559
     47 H14        73.7217  -53.6220  139.2440 H         1 V56         0.0599
     48 H15        73.9187  -51.2003  139.6948 H         1 V56         0.0565
     49 H16        73.2344  -50.3649  135.5609 H         1 V56         0.0563
     50 H17        76.5466  -54.0454  133.4338 H         1 V56         0.1899
     51 H18        77.4584  -51.4711  132.6655 H         1 V56         0.0799
     52 H19        78.9914  -52.6897  131.1716 H         1 V56         0.0315
     53 H20        78.0393  -54.1908  131.4302 H         1 V56         0.0315
     54 H21        78.5329  -54.0810  133.8443 H         1 V56         0.0298
     55 H22        80.9364  -54.7498  133.6863 H         1 V56         0.0232
     56 H23        80.9927  -54.0710  132.0242 H         1 V56         0.0232
     57 H24        79.9209  -55.4655  132.3890 H         1 V56         0.0232
     58 H25        78.8804  -51.6528  134.1256 H         1 V56         0.0232
     59 H26        80.4441  -51.7871  133.2519 H         1 V56         0.0232
     60 H27        80.2155  -52.6336  134.8197 H         1 V56         0.0232
     61 H28        77.3740  -50.2469  130.7406 H         1 V56         0.1855
     62 H29        75.4692  -51.2887  128.6615 H         1 V56         0.0580
     63 H30        74.5619  -48.9934  128.4349 H         1 V56         0.0313
     64 H31        75.6038  -48.4485  129.7929 H         1 V56         0.0313
     65 H32        73.4647  -48.7888  130.7285 H         1 V56         0.0503
     66 H33        74.4394  -50.2184  131.2112 H         1 V56         0.0503
     67 H34        77.7678  -49.2343  128.5185 H         1 V56         0.0580
     68 H35        76.6482  -49.5877  127.1590 H         1 V56         0.0580
     69 H36        78.2627  -51.4973  128.5378 H         1 V56         0.2095
@<TRIPOS>BOND
     1    2    1 2  
     2    9    2 1  
     3    2   18 am 
     4    4    3 1  
     5    3   30 am 
     6    5    4 1  
     7    6    5 1  
     8    7    6 1  
     9    8    7 1  
    10   10    8 1  
    11    9   10 1  
    12   10   11 1  
    13   11   12 ar 
    14   11   17 ar 
    15   12   13 ar 
    16   13   14 ar 
    17   14   15 ar 
    18   15   16 1  
    19   15   17 ar 
    20   18   19 1  
    21   19   20 1  
    22   19   22 1  
    23   20   21 2  
    24   20   26 am 
    25   22   23 1  
    26   23   24 1  
    27   23   25 1  
    28   26   27 1  
    29   27   28 1  
    30   27   32 1  
    31   28   29 1  
    32   29   30 1  
    33   30   31 2  
    34   32   33 1  
    35    3   34 1  
    36    4   35 1  
    37    4   36 1  
    38    5   37 1  
    39    5   38 1  
    40    6   39 1  
    41    6   40 1  
    42    7   41 1  
    43    7   42 1  
    44    8   43 1  
    45    8   44 1  
    46   10   45 1  
    47   12   46 1  
    48   13   47 1  
    49   14   48 1  
    50   17   49 1  
    51   18   50 1  
    52   19   51 1  
    53   22   52 1  
    54   22   53 1  
    55   23   54 1  
    56   24   55 1  
    57   24   56 1  
    58   24   57 1  
    59   25   58 1  
    60   25   59 1  
    61   25   60 1  
    62   26   61 1  
    63   27   62 1  
    64   28   63 1  
    65   28   64 1  
    66   29   65 1  
    67   29   66 1  
    68   32   67 1  
    69   32   68 1  
    70   33   69 1  
@<TRIPOS>SUBSTRUCTURE
     1 V56         1

