### 
### Created by X-TOOL on Mon Sep 10 21:13:31 2018
### 

@<TRIPOS>MOLECULE
5tg2_ligand
   74    74     1     0     0
SMALL
GAST_HUCK


@<TRIPOS>ATOM
      1 C01        59.4130  -50.9490   24.2820 C.3       1 V69        -0.0653
      2 C02        60.1440  -52.1570   24.8600 C.3       1 V69        -0.0559
      3 C03        59.4050  -53.4520   24.5640 C.3       1 V69        -0.0532
      4 C04        59.8190  -54.0820   23.2550 C.3       1 V69        -0.0504
      5 C05        58.9900  -55.3330   22.9830 C.3       1 V69        -0.0223
      6 C06        58.9490  -55.6250   21.5060 C.3       1 V69         0.0882
      7 C08        61.0130  -55.2910   20.3750 C.2       1 V69         0.3221
      8 C24        57.9820  -56.7450   21.1650 C.3       1 V69        -0.0223
      9 C25        57.9360  -56.9780   19.6610 C.3       1 V69        -0.0503
     10 C26        57.1150  -55.8850   18.9850 C.3       1 V69        -0.0511
     11 C27        57.2330  -55.8980   17.4610 C.3       1 V69        -0.0327
     12 C28        56.8820  -54.5310   16.8880 C.3       1 V69         0.0309
     13 N29        57.8850  -53.6150   17.3860 N.am      1 V69        -0.2870
     14 O07        60.2220  -56.0880   21.1800 O.3       1 V69        -0.2605
     15 O23        60.7110  -54.1820   20.0800 O.2       1 V69        -0.3774
     16 N09        62.2350  -55.9180   19.9440 N.am      1 V69        -0.2412
     17 C10        63.1220  -55.1890   19.0770 C.3       1 V69         0.1329
     18 C15        62.4050  -54.8250   17.7880 C.2       1 V69         0.2019
     19 O22        61.5170  -55.4960   17.3460 O.2       1 V69        -0.3945
     20 C11        64.3540  -56.0430   18.8170 C.3       1 V69        -0.0101
     21 C12        65.2320  -56.2500   20.0480 C.3       1 V69        -0.0425
     22 C13        66.3810  -57.2030   19.7400 C.3       1 V69        -0.0625
     23 C14        65.7780  -54.9610   20.6370 C.3       1 V69        -0.0625
     24 N16        62.8500  -53.6300   17.0900 N.am      1 V69        -0.2797
     25 C17        62.1720  -53.2510   15.8750 C.3       1 V69         0.0672
     26 C18        61.2300  -52.0680   16.1350 C.3       1 V69        -0.0108
     27 C19        60.0720  -52.3630   17.0920 C.3       1 V69         0.0394
     28 C30        59.0120  -53.3080   16.5380 C.2       1 V69         0.1760
     29 O31        59.0750  -53.7900   15.4490 O.2       1 V69        -0.3971
     30 C20        63.2020  -52.8380   14.8270 C.3       1 V69         0.0673
     31 O21        63.9810  -53.9840   14.5290 O.3       1 V69        -0.3927
     32 H1         59.9761  -50.0334   24.5157 H         1 V69         0.0230
     33 H2         58.4073  -50.8835   24.7228 H         1 V69         0.0230
     34 H3         59.3286  -51.0591   23.1908 H         1 V69         0.0230
     35 H4         60.2285  -52.0353   25.9500 H         1 V69         0.0263
     36 H5         61.1498  -52.2109   24.4179 H         1 V69         0.0263
     37 H6         58.3265  -53.2391   24.5249 H         1 V69         0.0265
     38 H7         59.6087  -54.1653   25.3762 H         1 V69         0.0265
     39 H8         60.8832  -54.3559   23.3048 H         1 V69         0.0266
     40 H9         59.6640  -53.3599   22.4398 H         1 V69         0.0266
     41 H10        57.9650  -55.1754   23.3498 H         1 V69         0.0293
     42 H11        59.4404  -56.1877   23.5090 H         1 V69         0.0293
     43 H12        58.6920  -54.7160   20.9424 H         1 V69         0.0647
     44 H13        56.9764  -56.4741   21.5192 H         1 V69         0.0293
     45 H14        58.3097  -57.6691   21.6635 H         1 V69         0.0293
     46 H15        57.4756  -57.9563   19.4585 H         1 V69         0.0266
     47 H16        58.9600  -56.9644   19.2595 H         1 V69         0.0266
     48 H17        57.4619  -54.9085   19.3540 H         1 V69         0.0266
     49 H18        56.0578  -56.0245   19.2548 H         1 V69         0.0266
     50 H19        56.5435  -56.6505   17.0508 H         1 V69         0.0285
     51 H20        58.2651  -56.1543   17.1798 H         1 V69         0.0285
     52 H21        55.8818  -54.2215   17.2254 H         1 V69         0.0520
     53 H22        56.9052  -54.5609   15.7887 H         1 V69         0.0520
     54 H23        57.7997  -53.2052   18.2942 H         1 V69         0.1850
     55 H24        62.4635  -56.8447   20.2422 H         1 V69         0.1899
     56 H25        63.4337  -54.2604   19.5774 H         1 V69         0.0799
     57 H26        64.9578  -55.5528   18.0391 H         1 V69         0.0315
     58 H27        64.0231  -57.0285   18.4576 H         1 V69         0.0315
     59 H28        64.6020  -56.7191   20.8180 H         1 V69         0.0298
     60 H29        66.9984  -57.3361   20.6406 H         1 V69         0.0232
     61 H30        66.9979  -56.7843   18.9312 H         1 V69         0.0232
     62 H31        65.9760  -58.1763   19.4260 H         1 V69         0.0232
     63 H32        64.9452  -54.2770   20.8574 H         1 V69         0.0232
     64 H33        66.4598  -54.4879   19.9150 H         1 V69         0.0232
     65 H34        66.3243  -55.1845   21.5652 H         1 V69         0.0232
     66 H35        63.6088  -53.0834   17.4442 H         1 V69         0.1855
     67 H36        61.5896  -54.1065   15.5024 H         1 V69         0.0580
     68 H37        60.8044  -51.7521   15.1711 H         1 V69         0.0313
     69 H38        61.8238  -51.2458   16.5608 H         1 V69         0.0313
     70 H39        59.5836  -51.4098   17.3428 H         1 V69         0.0503
     71 H40        60.4885  -52.8131   18.0052 H         1 V69         0.0503
     72 H41        63.8446  -52.0388   15.2249 H         1 V69         0.0580
     73 H42        62.6935  -52.4817   13.9190 H         1 V69         0.0580
     74 H43        64.4116  -54.2872   15.3197 H         1 V69         0.2095
@<TRIPOS>BOND
     1    1    2 1  
     2    2    3 1  
     3    3    4 1  
     4    4    5 1  
     5    5    6 1  
     6    6    8 1  
     7    6   14 1  
     8   14    7 1  
     9    7   15 2  
    10    7   16 am 
    11    8    9 1  
    12    9   10 1  
    13   10   11 1  
    14   11   12 1  
    15   12   13 1  
    16   13   28 am 
    17   16   17 1  
    18   17   18 1  
    19   17   20 1  
    20   18   19 2  
    21   18   24 am 
    22   20   21 1  
    23   21   22 1  
    24   21   23 1  
    25   24   25 1  
    26   25   26 1  
    27   25   30 1  
    28   26   27 1  
    29   27   28 1  
    30   28   29 2  
    31   30   31 1  
    32    1   32 1  
    33    1   33 1  
    34    1   34 1  
    35    2   35 1  
    36    2   36 1  
    37    3   37 1  
    38    3   38 1  
    39    4   39 1  
    40    4   40 1  
    41    5   41 1  
    42    5   42 1  
    43    6   43 1  
    44    8   44 1  
    45    8   45 1  
    46    9   46 1  
    47    9   47 1  
    48   10   48 1  
    49   10   49 1  
    50   11   50 1  
    51   11   51 1  
    52   12   52 1  
    53   12   53 1  
    54   13   54 1  
    55   16   55 1  
    56   17   56 1  
    57   20   57 1  
    58   20   58 1  
    59   21   59 1  
    60   22   60 1  
    61   22   61 1  
    62   22   62 1  
    63   23   63 1  
    64   23   64 1  
    65   23   65 1  
    66   24   66 1  
    67   25   67 1  
    68   26   68 1  
    69   26   69 1  
    70   27   70 1  
    71   27   71 1  
    72   30   72 1  
    73   30   73 1  
    74   31   74 1  
@<TRIPOS>SUBSTRUCTURE
     1 V69         1

