### 
### Created by X-TOOL on Mon Sep 10 21:13:32 2018
### 

@<TRIPOS>MOLECULE
5th4_ligand
   15    15     1     0     0
SMALL
GAST_HUCK


@<TRIPOS>ATOM
      1 C4         -5.0380    3.3240   14.1170 C.2       1 BEW        -0.0675
      2 C5         -5.8340    3.7430   15.1310 C.2       1 BEW        -0.0773
      3 C6         -6.2410    2.8730   16.0690 C.3       1 BEW         0.0366
      4 N2         -5.0600    1.1070   15.0120 N.am      1 BEW        -0.1517
      5 O8         -4.6820   -0.1670   14.9460 O.3       1 BEW        -0.2580
      6 C3         -4.6430    1.9990   14.0500 C.3       1 BEW         0.0879
      7 C1         -5.8370    1.5150   15.9990 C.2       1 BEW         0.0946
      8 S7         -6.3620    0.3940   17.2070 S.2       1 BEW        -0.2846
      9 H1         -4.7094    4.0295   13.3553 H         1 BEW         0.0491
     10 H2         -6.1435    4.7857   15.1848 H         1 BEW         0.0474
     11 H3         -7.3408    2.8785   16.0516 H         1 BEW         0.0637
     12 H4         -5.8876    3.2601   17.0361 H         1 BEW         0.0637
     13 H5         -4.9905   -0.5459   14.1313 H         1 BEW         0.2538
     14 H6         -3.5432    1.9942   14.0680 H         1 BEW         0.0711
     15 H7         -4.9957    1.6110   13.0830 H         1 BEW         0.0711
@<TRIPOS>BOND
     1    1    2 2  
     2    6    1 1  
     3    2    3 1  
     4    3    7 1  
     5    4    5 1  
     6    4    6 1  
     7    4    7 am 
     8    7    8 2  
     9    1    9 1  
    10    2   10 1  
    11    3   11 1  
    12    3   12 1  
    13    5   13 1  
    14    6   14 1  
    15    6   15 1  
@<TRIPOS>SUBSTRUCTURE
     1 BEW         1

