### 
### Created by X-TOOL on Wed Jan  1 15:39:34 2020
### 

@<TRIPOS>MOLECULE
5th7_ligand
   57    59     1     0     0
SMALL
GAST_HUCK


@<TRIPOS>ATOM
      1 C4        -25.9250   -2.0420  149.8500 C.ar      1 7BY         0.0078
      2 C5        -26.5720   -2.4440  148.6550 C.ar      1 7BY         0.0266
      3 C6        -25.8050   -2.2920  147.4450 C.ar      1 7BY         0.1241
      4 N1        -24.5790   -1.7830  147.4600 N.ar      1 7BY        -0.2471
      5 N3        -24.6430   -1.5470  149.8590 N.ar      1 7BY        -0.3043
      6 CAY       -22.1820   -0.5390  147.3350 C.3       1 7BY         0.0331
      7 CAZ       -20.9070    0.1710  147.7440 C.3       1 7BY        -0.0304
      8 CBA       -20.6670   -0.1610  149.1780 C.3       1 7BY        -0.0304
      9 CBB       -22.0560   -0.3520  149.7500 C.3       1 7BY         0.0331
     10 NAX       -22.8150   -0.8770  148.6120 N.pl3     1 7BY        -0.2823
     11 C2        -24.0510   -1.4210  148.6470 C.ar      1 7BY         0.1559
     12 CAO       -26.6290   -2.1260  151.0740 C.ar      1 7BY        -0.0244
     13 CAP       -27.9260   -2.5670  151.1050 C.ar      1 7BY         0.1276
     14 OAQ       -28.7240   -2.5980  152.2180 O.3       1 7BY        -0.3173
     15 CAR       -28.1450   -2.2250  153.4770 C.3       1 7BY         0.0599
     16 CAS       -28.5680   -2.9790  149.9130 C.ar      1 7BY         0.1272
     17 OAT       -29.8640   -3.3870  150.0720 O.3       1 7BY        -0.3230
     18 CAU       -30.5400   -3.9450  148.9360 C.3       1 7BY         0.0572
     19 CAV       -27.9060   -2.9240  148.7200 C.ar      1 7BY        -0.0226
     20 NAI       -26.3640   -2.6290  146.2220 N.pl3     1 7BY        -0.2969
     21 CAH       -25.6410   -2.5310  144.9620 C.3       1 7BY         0.0339
     22 CAG       -25.9010   -1.2150  144.2570 C.3       1 7BY        -0.0116
     23 CAF       -27.3560   -1.0230  143.9290 C.3       1 7BY         0.0328
     24 NAE       -27.6500    0.2410  143.2640 N.am      1 7BY        -0.2869
     25 CAC       -28.8800    0.7550  143.2560 C.2       1 7BY         0.1757
     26 OAD       -29.7960    0.2650  143.9160 O.2       1 7BY        -0.3971
     27 CAB       -29.0850    1.9580  142.3730 C.3       1 7BY         0.0344
     28 CAA       -30.3400    1.8530  141.4950 C.3       1 7BY        -0.0482
     29 H1        -21.9572   -1.4469  146.7560 H         1 7BY         0.0526
     30 H2        -22.8273    0.1245  146.7407 H         1 7BY         0.0526
     31 H3        -21.0235    1.2580  147.6218 H         1 7BY         0.0286
     32 H4        -20.0651   -0.1791  147.1287 H         1 7BY         0.0286
     33 H5        -20.1447    0.6623  149.6874 H         1 7BY         0.0286
     34 H6        -20.0758   -1.0839  149.2716 H         1 7BY         0.0286
     35 H7        -22.4751    0.6041  150.0968 H         1 7BY         0.0526
     36 H8        -22.0448   -1.0709  150.5825 H         1 7BY         0.0526
     37 H9        -26.1376   -1.8387  151.9965 H         1 7BY         0.0461
     38 H10       -28.9063   -2.3006  154.2674 H         1 7BY         0.0579
     39 H11       -27.7779   -1.1897  153.4194 H         1 7BY         0.0579
     40 H12       -27.3072   -2.8988  153.7093 H         1 7BY         0.0579
     41 H13       -31.5657   -4.2231  149.2199 H         1 7BY         0.0573
     42 H14       -30.0000   -4.8389  148.5906 H         1 7BY         0.0573
     43 H15       -30.5726   -3.2007  148.1267 H         1 7BY         0.0573
     44 H16       -28.4040   -3.2500  147.8141 H         1 7BY         0.0541
     45 H17       -27.3375   -2.9648  146.2038 H         1 7BY         0.1898
     46 H18       -25.9592   -3.3541  144.3054 H         1 7BY         0.0532
     47 H19       -24.5632   -2.6185  145.1636 H         1 7BY         0.0532
     48 H20       -25.3215   -1.1935  143.3223 H         1 7BY         0.0305
     49 H21       -25.5738   -0.3927  144.9102 H         1 7BY         0.0305
     50 H22       -27.9305   -1.0631  144.8662 H         1 7BY         0.0520
     51 H23       -27.6735   -1.8436  143.2689 H         1 7BY         0.0520
     52 H24       -26.9118    0.7337  142.8032 H         1 7BY         0.1850
     53 H25       -28.2076    2.0655  141.7183 H         1 7BY         0.0500
     54 H26       -29.1777    2.8491  143.0112 H         1 7BY         0.0500
     55 H27       -30.4320    2.7584  140.8772 H         1 7BY         0.0254
     56 H28       -31.2286    1.7546  142.1358 H         1 7BY         0.0254
     57 H29       -30.2586    0.9709  140.8429 H         1 7BY         0.0254
@<TRIPOS>BOND
     1    1    2 ar 
     2    5    1 ar 
     3    1   12 ar 
     4    3    2 ar 
     5    2   19 ar 
     6    4    3 ar 
     7    3   20 1  
     8   11    4 ar 
     9   11    5 ar 
    10    6    7 1  
    11   10    6 1  
    12    8    7 1  
    13    9    8 1  
    14   10    9 1  
    15   10   11 1  
    16   12   13 ar 
    17   13   14 1  
    18   13   16 ar 
    19   14   15 1  
    20   16   17 1  
    21   16   19 ar 
    22   17   18 1  
    23   20   21 1  
    24   21   22 1  
    25   22   23 1  
    26   23   24 1  
    27   24   25 am 
    28   25   26 2  
    29   25   27 1  
    30   27   28 1  
    31    6   29 1  
    32    6   30 1  
    33    7   31 1  
    34    7   32 1  
    35    8   33 1  
    36    8   34 1  
    37    9   35 1  
    38    9   36 1  
    39   12   37 1  
    40   15   38 1  
    41   15   39 1  
    42   15   40 1  
    43   18   41 1  
    44   18   42 1  
    45   18   43 1  
    46   19   44 1  
    47   20   45 1  
    48   21   46 1  
    49   21   47 1  
    50   22   48 1  
    51   22   49 1  
    52   23   50 1  
    53   23   51 1  
    54   24   52 1  
    55   27   53 1  
    56   27   54 1  
    57   28   55 1  
    58   28   56 1  
    59   28   57 1  
@<TRIPOS>SUBSTRUCTURE
     1 7BY         1

