### 
### Created by X-TOOL on Mon Sep 10 21:13:31 2018
### 

@<TRIPOS>MOLECULE
5thi_ligand
   15    15     1     0     0
SMALL
GAST_HUCK


@<TRIPOS>ATOM
      1 CA1        -6.4460    1.1980   16.5900 C.2       1 0TR         0.1541
      2 OA1        -7.3570    0.3280   16.5990 O.2       1 0TR        -0.4263
      3 CA2        -5.2070    0.7210   16.1060 C.2       1 0TR         0.1623
      4 OA2        -5.2410   -0.5600   15.7510 O.3       1 0TR        -0.3055
      5 CA3        -4.0550    1.4800   15.9980 C.2       1 0TR        -0.0035
      6 CB3        -3.8390    2.8180   16.3170 C.2       1 0TR        -0.0518
      7 CA5        -6.0050    3.6380   17.1600 C.2       1 0TR        -0.0525
      8 CA6        -6.7560    2.4740   17.0400 C.2       1 0TR        -0.0115
      9 CAE        -4.6900    3.7970   16.8350 C.2       1 0TR        -0.0539
     10 H1         -5.8839   -0.6795   15.0619 H         1 0TR         0.2627
     11 H2         -3.1876    0.9519   15.6047 H         1 0TR         0.0607
     12 H3         -2.8236    3.1635   16.1287 H         1 0TR         0.0728
     13 H4         -6.5199    4.5129   17.5541 H         1 0TR         0.0722
     14 H5         -7.7903    2.5852   17.3623 H         1 0TR         0.0610
     15 H6         -4.2610    4.7851   16.9952 H         1 0TR         0.0591
@<TRIPOS>BOND
     1    1    2 2  
     2    1    3 1  
     3    1    8 1  
     4    3    4 1  
     5    3    5 2  
     6    5    6 1  
     7    6    9 2  
     8    8    7 2  
     9    7    9 1  
    10    4   10 1  
    11    5   11 1  
    12    6   12 1  
    13    7   13 1  
    14    8   14 1  
    15    9   15 1  
@<TRIPOS>SUBSTRUCTURE
     1 0TR         1

