### 
### Created by X-TOOL on Tue Oct 16 15:17:43 2018
### 

@<TRIPOS>MOLECULE
5thj_ligand
   15    15     1     0     0
SMALL
GAST_HUCK


@<TRIPOS>ATOM
      1 CA1        -6.2110    1.4210   15.6700 C.2       1 MOL         0.1541
      2 OA1        -7.0180    0.6220   16.2160 O.2       1 MOL        -0.4263
      3 CA2        -5.0040    0.8580   14.9730 C.2       1 MOL         0.1623
      4 OA2        -4.8870   -0.4670   14.9900 O.3       1 MOL        -0.3055
      5 CA3        -4.0240    1.5630   14.3290 C.2       1 MOL        -0.0035
      6 CB3        -3.7920    2.9390   14.0960 C.2       1 MOL        -0.0518
      7 CA5        -5.7880    3.9230   15.2460 C.2       1 MOL        -0.0525
      8 CA6        -6.5080    2.8040   15.7590 C.2       1 MOL        -0.0115
      9 CAE        -4.5790    4.0130   14.5040 C.2       1 MOL        -0.0539
     10 H1         -5.6429   -0.8560   14.5660 H         1 MOL         0.2627
     11 H2         -3.2526    0.9241   13.9016 H         1 MOL         0.0607
     12 H3         -2.8939    3.1871   13.5323 H         1 MOL         0.0728
     13 H4         -6.2492    4.8854   15.4625 H         1 MOL         0.0722
     14 H5         -7.4214    3.0484   16.2992 H         1 MOL         0.0610
     15 H6         -4.2379    5.0103   14.2303 H         1 MOL         0.0591
@<TRIPOS>BOND
     1    1    2 2  
     2    1    3 1  
     3    1    8 1  
     4    3    4 1  
     5    3    5 2  
     6    5    6 1  
     7    6    9 2  
     8    8    7 2  
     9    7    9 1  
    10    4   10 1  
    11    5   11 1  
    12    6   12 1  
    13    7   13 1  
    14    8   14 1  
    15    9   15 1  
@<TRIPOS>SUBSTRUCTURE
     1 MOL         1

