### 
### Created by X-TOOL on Mon Sep 10 21:13:31 2018
### 

@<TRIPOS>MOLECULE
5thn_ligand
   17    17     1     0     0
SMALL
GAST_HUCK


@<TRIPOS>ATOM
      1 SAH        -6.1220    0.2980   17.0570 S.3       1 7CZ        -0.0901
      2 CAF        -5.7520    1.6260   16.0600 C.2       1 7CZ         0.0459
      3 CAG        -6.2410    2.9380   16.3880 C.2       1 7CZ        -0.0619
      4 CAD        -6.1030    4.2170   15.7630 C.2       1 7CZ        -0.0959
      5 CAC        -5.4260    4.4990   14.6330 C.2       1 7CZ        -0.0963
      6 CAB        -4.7480    3.6170   13.8750 C.2       1 7CZ        -0.0866
      7 CAA        -4.5390    2.2470   13.9960 C.2       1 7CZ        -0.0460
      8 CAE        -4.9690    1.3810   14.9370 C.3       1 7CZ         0.1295
      9 OAI        -4.5680    0.1080   14.7300 O.3       1 7CZ        -0.3661
     10 H1         -5.6995   -0.5344   16.6765 H         1 7CZ         0.1335
     11 H2         -6.8384    2.9627   17.2982 H         1 7CZ         0.0296
     12 H3         -6.5988    5.0533   16.2536 H         1 7CZ         0.0519
     13 H4         -5.4273    5.5365   14.3021 H         1 7CZ         0.0382
     14 H5         -4.2729    4.0602   13.0010 H         1 7CZ         0.0422
     15 H6         -3.9330    1.8038   13.2071 H         1 7CZ         0.0646
     16 H7         -4.0756    1.6053   15.5382 H         1 7CZ         0.0919
     17 H8         -4.9005   -0.1955   13.8935 H         1 7CZ         0.2155
@<TRIPOS>BOND
     1    1    2 1  
     2    2    3 2  
     3    2    8 1  
     4    3    4 1  
     5    4    5 2  
     6    5    6 1  
     7    6    7 2  
     8    7    8 1  
     9    8    9 1  
    10    1   10 1  
    11    3   11 1  
    12    4   12 1  
    13    5   13 1  
    14    6   14 1  
    15    7   15 1  
    16    8   16 1  
    17    9   17 1  
@<TRIPOS>SUBSTRUCTURE
     1 7CZ         1

