### 
### Created by X-TOOL on Mon Sep 10 21:13:31 2018
### 

@<TRIPOS>MOLECULE
5tho_ligand
   81    83     1     0     0
SMALL
GAST_HUCK


@<TRIPOS>ATOM
      1 C32        75.1300  -28.2410  198.4690 C.2       1 7C7         0.1803
      2 O41        75.5240  -29.3880  198.5960 O.2       1 7C7        -0.3967
      3 C33        76.0590  -27.0430  198.6360 C.3       1 7C7         0.0470
      4 C34        77.1860  -26.8860  197.5940 C.3       1 7C7        -0.0022
      5 C35        78.3170  -26.0000  198.0480 C.ar      1 7C7        -0.0408
      6 C36        78.6010  -24.8360  197.3450 C.ar      1 7C7        -0.0602
      7 C37        79.6270  -23.9810  197.7190 C.ar      1 7C7        -0.0686
      8 C38        80.4110  -24.2680  198.8240 C.ar      1 7C7        -0.0687
      9 C39        80.1460  -25.4200  199.5450 C.ar      1 7C7        -0.0686
     10 C40        79.1140  -26.2710  199.1610 C.ar      1 7C7        -0.0602
     11 O01        73.5970  -29.3030  195.7130 O.2       1 7C7        -0.3942
     12 C02        73.1950  -29.8940  196.7040 C.2       1 7C7         0.2063
     13 C22        72.8100  -29.0590  197.9920 C.3       1 7C7         0.1475
     14 C23        71.3470  -28.5440  197.7300 C.3       1 7C7         0.0777
     15 C24        70.5420  -27.8710  198.8280 C.2       1 7C7         0.1830
     16 N25        69.6990  -26.7590  198.6090 N.am      1 7C7        -0.2736
     17 C26        68.9060  -26.1210  199.6740 C.3       1 7C7         0.0310
     18 C27        69.6870  -25.1250  200.5300 C.3       1 7C7        -0.0446
     19 C28        69.5400  -26.1620  197.2570 C.3       1 7C7         0.0310
     20 C29        68.3770  -26.7990  196.4850 C.3       1 7C7        -0.0446
     21 O30        70.6170  -28.3100  199.9780 O.2       1 7C7        -0.3966
     22 N31        73.7910  -28.0400  198.1780 N.am      1 7C7        -0.2634
     23 O20        75.2630  -33.5720  195.0760 O.3       1 7C7        -0.3783
     24 N03        73.0870  -31.2710  196.6480 N.am      1 7C7        -0.2614
     25 C04        73.3810  -32.1330  195.5000 C.3       1 7C7         0.1542
     26 C05        72.0090  -32.5530  194.8780 C.2       1 7C7         0.2059
     27 O18        71.0420  -32.6160  195.6310 O.2       1 7C7        -0.3943
     28 C19        74.1870  -33.3750  195.9670 C.3       1 7C7         0.0874
     29 C21        75.0420  -34.6360  194.1600 C.3       1 7C7         0.0367
     30 C11        68.3840  -30.2700  190.4410 C.ar      1 7C7        -0.0631
     31 C10        69.0810  -31.2960  189.8810 C.ar      1 7C7        -0.0706
     32 C12        68.3350  -30.1360  191.8520 C.ar      1 7C7        -0.0242
     33 C14        68.9070  -30.8700  194.0590 C.ar      1 7C7        -0.0547
     34 C13        69.0090  -31.0750  192.6610 C.ar      1 7C7        -0.0102
     35 C15        68.2060  -29.8300  194.6060 C.ar      1 7C7        -0.0625
     36 N06        71.8250  -32.8310  193.5060 N.am      1 7C7        -0.2728
     37 C07        70.5090  -33.2220  192.8910 C.3       1 7C7         0.0668
     38 C08        69.7530  -32.1600  192.0610 C.ar      1 7C7        -0.0103
     39 C09        69.7630  -32.2380  190.6940 C.ar      1 7C7        -0.0588
     40 C16        67.5390  -28.9010  193.7860 C.ar      1 7C7        -0.0629
     41 C17        67.6100  -29.0560  192.4320 C.ar      1 7C7        -0.0569
     42 H1         76.5305  -27.1230  199.6266 H         1 7C7         0.0525
     43 H2         75.4405  -26.1342  198.5966 H         1 7C7         0.0525
     44 H3         76.7541  -26.4549  196.6788 H         1 7C7         0.0451
     45 H4         77.5944  -27.8830  197.3724 H         1 7C7         0.0451
     46 H5         78.0016  -24.5881  196.4765 H         1 7C7         0.0557
     47 H6         79.8164  -23.0825  197.1428 H         1 7C7         0.0599
     48 H7         81.2158  -23.6042  199.1185 H         1 7C7         0.0559
     49 H8         80.7466  -25.6607  200.4147 H         1 7C7         0.0599
     50 H9         78.9245  -27.1669  199.7410 H         1 7C7         0.0557
     51 H10        72.8080  -29.7054  198.8820 H         1 7C7         0.0826
     52 H11        70.7623  -29.4174  197.4053 H         1 7C7         0.0551
     53 H12        71.4143  -27.8203  196.9044 H         1 7C7         0.0551
     54 H13        68.5167  -26.9106  200.3335 H         1 7C7         0.0519
     55 H14        68.0660  -25.5875  199.2052 H         1 7C7         0.0519
     56 H15        69.0218  -24.6989  201.2955 H         1 7C7         0.0249
     57 H16        70.0753  -24.3180  199.8913 H         1 7C7         0.0249
     58 H17        70.5260  -25.6411  201.0195 H         1 7C7         0.0249
     59 H18        70.4697  -26.3142  196.6892 H         1 7C7         0.0519
     60 H19        69.3480  -25.0842  197.3642 H         1 7C7         0.0519
     61 H20        68.2946  -26.3300  195.4934 H         1 7C7         0.0249
     62 H21        67.4405  -26.6469  197.0415 H         1 7C7         0.0249
     63 H22        68.5622  -27.8768  196.3665 H         1 7C7         0.0249
     64 H23        73.4832  -27.0926  198.0901 H         1 7C7         0.1884
     65 H24        72.7746  -31.7282  197.4807 H         1 7C7         0.1884
     66 H25        73.9714  -31.5787  194.7556 H         1 7C7         0.0824
     67 H26        74.5729  -33.2061  196.9831 H         1 7C7         0.0608
     68 H27        73.5362  -34.2618  195.9646 H         1 7C7         0.0608
     69 H28        75.9141  -34.7362  193.4971 H         1 7C7         0.0524
     70 H29        74.1466  -34.4217  193.5581 H         1 7C7         0.0524
     71 H30        74.8944  -35.5737  194.7158 H         1 7C7         0.0524
     72 H31        67.8671  -29.5564  189.8096 H         1 7C7         0.0542
     73 H32        69.1155  -31.3947  188.8021 H         1 7C7         0.0595
     74 H33        69.4054  -31.5665  194.7235 H         1 7C7         0.0628
     75 H34        68.1639  -29.7204  195.6836 H         1 7C7         0.0601
     76 H35        72.6209  -32.7636  192.9043 H         1 7C7         0.1881
     77 H36        69.8437  -33.5312  193.7106 H         1 7C7         0.0696
     78 H37        70.6990  -34.0800  192.2294 H         1 7C7         0.0696
     79 H38        70.3089  -33.0445  190.2180 H         1 7C7         0.0530
     80 H39        66.9807  -28.0797  194.2206 H         1 7C7         0.0616
     81 H40        67.1061  -28.3452  191.7871 H         1 7C7         0.0609
@<TRIPOS>BOND
     1    1    2 2  
     2    1    3 1  
     3   22    1 am 
     4    3    4 1  
     5    4    5 1  
     6    5    6 ar 
     7    5   10 ar 
     8    6    7 ar 
     9    7    8 ar 
    10    9    8 ar 
    11   10    9 ar 
    12   12   11 2  
    13   12   13 1  
    14   24   12 am 
    15   13   14 1  
    16   13   22 1  
    17   14   15 1  
    18   15   16 am 
    19   15   21 2  
    20   16   17 1  
    21   16   19 1  
    22   17   18 1  
    23   19   20 1  
    24   28   23 1  
    25   23   29 1  
    26   25   24 1  
    27   26   25 1  
    28   25   28 1  
    29   26   27 2  
    30   36   26 am 
    31   30   31 ar 
    32   32   30 ar 
    33   31   39 ar 
    34   34   32 ar 
    35   32   41 ar 
    36   34   33 ar 
    37   33   35 ar 
    38   38   34 ar 
    39   35   40 ar 
    40   37   36 1  
    41   37   38 1  
    42   38   39 ar 
    43   40   41 ar 
    44    3   42 1  
    45    3   43 1  
    46    4   44 1  
    47    4   45 1  
    48    6   46 1  
    49    7   47 1  
    50    8   48 1  
    51    9   49 1  
    52   10   50 1  
    53   13   51 1  
    54   14   52 1  
    55   14   53 1  
    56   17   54 1  
    57   17   55 1  
    58   18   56 1  
    59   18   57 1  
    60   18   58 1  
    61   19   59 1  
    62   19   60 1  
    63   20   61 1  
    64   20   62 1  
    65   20   63 1  
    66   22   64 1  
    67   24   65 1  
    68   25   66 1  
    69   28   67 1  
    70   28   68 1  
    71   29   69 1  
    72   29   70 1  
    73   29   71 1  
    74   30   72 1  
    75   31   73 1  
    76   33   74 1  
    77   35   75 1  
    78   36   76 1  
    79   37   77 1  
    80   37   78 1  
    81   39   79 1  
    82   40   80 1  
    83   41   81 1  
@<TRIPOS>SUBSTRUCTURE
     1 7C7         1

