### 
### Created by X-TOOL on Mon Sep 10 21:13:31 2018
### 

@<TRIPOS>MOLECULE
5ti0_ligand
   17    17     1     0     0
SMALL
GAST_HUCK


@<TRIPOS>ATOM
      1 SAH        -6.2320    0.3190   17.1540 S.3       1 7CZ        -0.0901
      2 CAF        -5.8620    1.6780   16.2020 C.2       1 7CZ         0.0459
      3 CAG        -6.2740    2.9800   16.6200 C.2       1 7CZ        -0.0619
      4 CAD        -6.0580    4.2390   15.9580 C.2       1 7CZ        -0.0959
      5 CAC        -5.4030    4.5240   14.7550 C.2       1 7CZ        -0.0963
      6 CAB        -4.7910    3.5940   13.9040 C.2       1 7CZ        -0.0866
      7 CAA        -4.6690    2.2300   14.0030 C.2       1 7CZ        -0.0460
      8 CAE        -5.1350    1.4110   14.9990 C.3       1 7CZ         0.1295
      9 OAI        -4.8080    0.1300   14.7240 O.3       1 7CZ        -0.3661
     10 H1         -5.8676   -0.5097   16.7106 H         1 7CZ         0.1335
     11 H2         -6.8217    3.0257   17.5601 H         1 7CZ         0.0296
     12 H3         -6.4685    5.1057   16.4740 H         1 7CZ         0.0519
     13 H4         -5.3651    5.5690   14.4507 H         1 7CZ         0.0382
     14 H5         -4.3354    4.0259   13.0142 H         1 7CZ         0.0422
     15 H6         -4.1365    1.7380   13.1904 H         1 7CZ         0.0646
     16 H7         -6.0997    1.3327   14.4763 H         1 7CZ         0.0919
     17 H8         -5.1992   -0.1249   13.8966 H         1 7CZ         0.2155
@<TRIPOS>BOND
     1    1    2 1  
     2    2    3 2  
     3    2    8 1  
     4    3    4 1  
     5    4    5 2  
     6    5    6 1  
     7    6    7 2  
     8    7    8 1  
     9    8    9 1  
    10    1   10 1  
    11    3   11 1  
    12    4   12 1  
    13    5   13 1  
    14    6   14 1  
    15    7   15 1  
    16    8   16 1  
    17    9   17 1  
@<TRIPOS>SUBSTRUCTURE
     1 7CZ         1

