### 
### Created by X-TOOL on Mon Sep 10 21:13:30 2018
### 

@<TRIPOS>MOLECULE
5ti2_ligand
   38    40     1     0     0
SMALL
GAST_HUCK


@<TRIPOS>ATOM
      1 C10        50.3120   -3.5750    1.6430 C.3       1 7CJ         0.0456
      2 C13        50.9700   -6.5280   -1.6240 C.ar      1 7CJ        -0.0581
      3 C15        49.8200   -8.3380   -2.7900 C.ar      1 7CJ        -0.0605
      4 C17        46.4610   -7.7730   -4.9920 C.ar      1 7CJ        -0.0386
      5 C20        45.7820   -5.0770   -4.7300 C.ar      1 7CJ         0.1343
      6 C22        45.7010   -5.9020   -3.6110 C.ar      1 7CJ        -0.0011
      7 O01        45.5020   -7.4200   -1.0550 O.2       1 7CJ        -0.1447
      8 S02        45.9410   -8.2900   -2.3410 S.o2      1 7CJ         0.0882
      9 N03        47.5340   -8.9110   -2.0480 N.am      1 7CJ        -0.1910
     10 C04        48.6760   -8.1510   -1.9880 C.ar      1 7CJ         0.0487
     11 C05        48.7110   -7.1480   -1.0090 C.ar      1 7CJ        -0.0269
     12 C06        49.8370   -6.3190   -0.8020 C.ar      1 7CJ         0.0528
     13 N07        49.7500   -5.3430    0.1760 N.am      1 7CJ        -0.2239
     14 C08        48.5250   -5.1040    0.9290 C.3       1 7CJ         0.0572
     15 C09        48.8330   -3.9310    1.8800 C.3       1 7CJ        -0.0100
     16 C11        50.7390   -4.4910    0.5850 C.2       1 7CJ         0.2057
     17 O12        51.9030   -4.4260    0.1490 O.2       1 7CJ        -0.3847
     18 C14        50.9690   -7.5330   -2.6080 C.ar      1 7CJ        -0.0905
     19 C16        46.0380   -7.2480   -3.7510 C.ar      1 7CJ         0.1123
     20 C18        46.5420   -6.9290   -6.1160 C.ar      1 7CJ        -0.0618
     21 C19        46.1960   -5.5740   -5.9810 C.ar      1 7CJ        -0.0281
     22 F21        45.4540   -3.8420   -4.5820 F         1 7CJ        -0.1833
     23 O23        44.9150   -9.4730   -2.6650 O.2       1 7CJ        -0.1447
     24 H1         50.9024   -3.7336    2.5575 H         1 7CJ         0.0508
     25 H2         50.4138   -2.5292    1.3175 H         1 7CJ         0.0508
     26 H3         51.8485   -5.9065   -1.4937 H         1 7CJ         0.0367
     27 H4         49.8193   -9.1067   -3.5543 H         1 7CJ         0.0362
     28 H5         46.7222   -8.8215   -5.0788 H         1 7CJ         0.0602
     29 H6         45.3832   -5.5069   -2.6529 H         1 7CJ         0.0624
     30 H7         47.6277   -9.8973   -1.9125 H         1 7CJ         0.2157
     31 H8         47.8373   -7.0020   -0.3842 H         1 7CJ         0.0353
     32 H9         48.2490   -6.0000    1.5043 H         1 7CJ         0.0587
     33 H10        47.7033   -4.8381    0.2478 H         1 7CJ         0.0587
     34 H11        48.1897   -3.0698    1.6466 H         1 7CJ         0.0314
     35 H12        48.6749   -4.2341    2.9255 H         1 7CJ         0.0314
     36 H13        51.8462   -7.6903   -3.2252 H         1 7CJ         0.0536
     37 H14        46.8672   -7.3197   -7.0734 H         1 7CJ         0.0608
     38 H15        46.2476   -4.9124   -6.8381 H         1 7CJ         0.0604
@<TRIPOS>BOND
     1    1   15 1  
     2   16    1 1  
     3   12    2 ar 
     4    2   18 ar 
     5   10    3 ar 
     6   18    3 ar 
     7   19    4 ar 
     8    4   20 ar 
     9    6    5 ar 
    10    5   21 ar 
    11    5   22 1  
    12   19    6 ar 
    13    8    7 2  
    14    9    8 am 
    15    8   19 1  
    16    8   23 2  
    17   10    9 1  
    18   11   10 ar 
    19   12   11 ar 
    20   13   12 1  
    21   13   14 1  
    22   13   16 am 
    23   14   15 1  
    24   16   17 2  
    25   20   21 ar 
    26    1   24 1  
    27    1   25 1  
    28    2   26 1  
    29    3   27 1  
    30    4   28 1  
    31    6   29 1  
    32    9   30 1  
    33   11   31 1  
    34   14   32 1  
    35   14   33 1  
    36   15   34 1  
    37   15   35 1  
    38   18   36 1  
    39   20   37 1  
    40   21   38 1  
@<TRIPOS>SUBSTRUCTURE
     1 7CJ         1

