### 
### Created by X-TOOL on Mon Sep 10 21:13:30 2018
### 

@<TRIPOS>MOLECULE
5ti3_ligand
   38    40     1     0     0
SMALL
GAST_HUCK


@<TRIPOS>ATOM
      1 C10        45.8200   37.6500   74.6640 C.ar      1 7CG        -0.0222
      2 C13        48.7260   36.6150   77.4700 C.ar      1 7CG        -0.0269
      3 C17        48.6830   39.8910   80.2280 C.3       1 7CG        -0.0100
      4 C21        50.9510   37.3140   76.8180 C.ar      1 7CG        -0.0581
      5 C22        50.9690   36.3070   75.8350 C.ar      1 7CG        -0.0905
      6 O01        45.7410   36.3900   77.3030 O.2       1 7CG        -0.1441
      7 S02        46.1010   35.3850   76.0920 S.o2      1 7CG         0.0908
      8 C03        46.2020   36.3140   74.5840 C.ar      1 7CG         0.1265
      9 C04        46.6630   35.8320   73.3250 C.ar      1 7CG         0.0430
     10 BR1        47.2330   34.0940   73.0340 Br        1 7CG        -0.0452
     11 C06        46.7160   36.6480   72.1780 C.ar      1 7CG        -0.0475
     12 C07        46.3060   37.9740   72.2730 C.ar      1 7CG        -0.0493
     13 C08        45.8680   38.4310   73.5190 C.ar      1 7CG         0.0178
     14 BR2        45.3160   40.1510   73.7150 Br        1 7CG        -0.0472
     15 N11        47.6780   34.7410   76.3270 N.am      1 7CG        -0.1905
     16 C12        48.7290   35.5870   76.5100 C.ar      1 7CG         0.0487
     17 C14        49.8120   37.4850   77.6490 C.ar      1 7CG         0.0528
     18 N15        49.7000   38.4430   78.6320 N.am      1 7CG        -0.2239
     19 C16        48.4820   38.6220   79.3700 C.3       1 7CG         0.0572
     20 C18        50.1980   40.1790   80.1470 C.3       1 7CG         0.0456
     21 C19        50.6610   39.2990   79.0600 C.2       1 7CG         0.2057
     22 O20        51.8280   39.3740   78.6190 O.2       1 7CG        -0.3847
     23 C23        49.8530   35.4470   75.6810 C.ar      1 7CG        -0.0605
     24 O24        45.0340   34.1860   76.0080 O.2       1 7CG        -0.1441
     25 H1         45.4903   38.0732   75.6060 H         1 7CG         0.0671
     26 H2         47.8501   36.7400   78.0962 H         1 7CG         0.0353
     27 H3         48.3774   39.7087   81.2688 H         1 7CG         0.0314
     28 H4         48.1052   40.7325   79.8182 H         1 7CG         0.0314
     29 H5         51.8109   37.9624   76.9415 H         1 7CG         0.0367
     30 H6         51.8364   36.1891   75.1956 H         1 7CG         0.0536
     31 H7         47.0711   36.2485   71.2349 H         1 7CG         0.0651
     32 H8         46.3256   38.6301   71.4103 H         1 7CG         0.0651
     33 H9         47.8223   33.7515   76.3292 H         1 7CG         0.2158
     34 H10        47.6349   38.7570   78.6814 H         1 7CG         0.0587
     35 H11        48.2950   37.7508   80.0150 H         1 7CG         0.0587
     36 H12        50.6966   39.9278   81.0948 H         1 7CG         0.0508
     37 H13        50.3844   41.2353   79.9033 H         1 7CG         0.0508
     38 H14        49.8676   34.6766   74.9185 H         1 7CG         0.0362
@<TRIPOS>BOND
     1    8    1 ar 
     2    1   13 ar 
     3    2   16 ar 
     4   17    2 ar 
     5   19    3 1  
     6    3   20 1  
     7    4    5 ar 
     8   17    4 ar 
     9    5   23 ar 
    10    7    6 2  
    11    7    8 1  
    12   15    7 am 
    13    7   24 2  
    14    8    9 ar 
    15    9   10 1  
    16    9   11 ar 
    17   11   12 ar 
    18   13   12 ar 
    19   13   14 1  
    20   16   15 1  
    21   16   23 ar 
    22   18   17 1  
    23   18   19 1  
    24   18   21 am 
    25   20   21 1  
    26   21   22 2  
    27    1   25 1  
    28    2   26 1  
    29    3   27 1  
    30    3   28 1  
    31    4   29 1  
    32    5   30 1  
    33   11   31 1  
    34   12   32 1  
    35   15   33 1  
    36   19   34 1  
    37   19   35 1  
    38   20   36 1  
    39   20   37 1  
    40   23   38 1  
@<TRIPOS>SUBSTRUCTURE
     1 7CG         1

