### 
### Created by X-TOOL on Mon Sep 10 21:13:30 2018
### 

@<TRIPOS>MOLECULE
5ti4_ligand
   38    40     1     0     0
SMALL
GAST_HUCK


@<TRIPOS>ATOM
      1 C13       -11.4460   -7.2140    0.9560 C.ar      1 7CM        -0.0269
      2 C17       -11.4800   -3.9070   -1.7600 C.3       1 7CM        -0.0100
      3 C21       -13.6710   -6.5670    1.6280 C.ar      1 7CM        -0.0581
      4 C22       -13.6690   -7.5740    2.6140 C.ar      1 7CM        -0.0905
      5 O01        -8.2640   -7.6520    0.9290 O.2       1 7CM        -0.1452
      6 S02        -8.7300   -8.4180    2.2630 S.o2      1 7CM         0.0873
      7 C03        -8.7080   -7.1310    3.4740 C.ar      1 7CM         0.1105
      8 C04        -8.2230   -5.8880    3.0260 C.ar      1 7CM        -0.0363
      9 C05        -8.1530   -4.7920    3.8880 C.ar      1 7CM        -0.0257
     10 C06        -9.1340   -7.2930    4.8040 C.ar      1 7CM        -0.0225
     11 C07        -9.0680   -6.1790    5.6770 C.ar      1 7CM         0.0753
     12 CL1        -9.5820   -6.3190    7.2840 Cl        1 7CM        -0.0721
     13 C09        -8.5710   -4.9420    5.2060 C.ar      1 7CM         0.1467
     14 F10        -8.4820   -3.8960    5.9620 F         1 7CM        -0.1826
     15 N11       -10.3320   -9.0420    2.0840 N.am      1 7CM        -0.1913
     16 C12       -11.4190   -8.2310    1.9340 C.ar      1 7CM         0.0486
     17 C14       -12.5550   -6.3740    0.7730 C.ar      1 7CM         0.0528
     18 N15       -12.4760   -5.4060   -0.2150 N.am      1 7CM        -0.2239
     19 C16       -11.2550   -5.2010   -0.9550 C.3       1 7CM         0.0572
     20 C18       -13.0050   -3.6810   -1.7110 C.3       1 7CM         0.0456
     21 C19       -13.4620   -4.5620   -0.6330 C.2       1 7CM         0.2057
     22 O20       -14.6360   -4.5020   -0.1830 O.2       1 7CM        -0.3847
     23 C23       -12.5400   -8.4040    2.7650 C.ar      1 7CM        -0.0605
     24 O24        -7.7150   -9.6070    2.5910 O.2       1 7CM        -0.1452
     25 H1        -10.5773   -7.0765    0.3223 H         1 7CM         0.0353
     26 H2        -11.1386   -4.0308   -2.7983 H         1 7CM         0.0314
     27 H3        -10.9470   -3.0635   -1.2969 H         1 7CM         0.0314
     28 H4        -14.5405   -5.9286    1.5208 H         1 7CM         0.0367
     29 H5        -14.5331   -7.7097    3.2543 H         1 7CM         0.0536
     30 H6         -7.8992   -5.7801    1.9971 H         1 7CM         0.0628
     31 H7         -7.7783   -3.8380    3.5352 H         1 7CM         0.0604
     32 H8         -9.5049   -8.2495    5.1540 H         1 7CM         0.0632
     33 H9        -10.4670  -10.0328    2.0906 H         1 7CM         0.2157
     34 H10       -10.4034   -5.0846   -0.2685 H         1 7CM         0.0587
     35 H11       -11.0677   -6.0480   -1.6314 H         1 7CM         0.0587
     36 H12       -13.4720   -3.9593   -2.6672 H         1 7CM         0.0508
     37 H13       -13.2370   -2.6305   -1.4816 H         1 7CM         0.0508
     38 H14       -12.5358   -9.1780    3.5240 H         1 7CM         0.0362
@<TRIPOS>BOND
     1    1   16 ar 
     2   17    1 ar 
     3   19    2 1  
     4    2   20 1  
     5    3    4 ar 
     6   17    3 ar 
     7    4   23 ar 
     8    6    5 2  
     9    6    7 1  
    10   15    6 am 
    11    6   24 2  
    12    7    8 ar 
    13    7   10 ar 
    14    8    9 ar 
    15    9   13 ar 
    16   10   11 ar 
    17   11   12 1  
    18   11   13 ar 
    19   13   14 1  
    20   16   15 1  
    21   16   23 ar 
    22   18   17 1  
    23   18   19 1  
    24   18   21 am 
    25   20   21 1  
    26   21   22 2  
    27    1   25 1  
    28    2   26 1  
    29    2   27 1  
    30    3   28 1  
    31    4   29 1  
    32    8   30 1  
    33    9   31 1  
    34   10   32 1  
    35   15   33 1  
    36   19   34 1  
    37   19   35 1  
    38   20   36 1  
    39   20   37 1  
    40   23   38 1  
@<TRIPOS>SUBSTRUCTURE
     1 7CM         1

