### 
### Created by X-TOOL on Mon Sep 10 21:13:31 2018
### 

@<TRIPOS>MOLECULE
5ti5_ligand
   38    40     1     0     0
SMALL
GAST_HUCK


@<TRIPOS>ATOM
      1 C10       -12.6190   -3.9520   -1.7380 C.3       1 7CN         0.0456
      2 C13       -13.3150   -6.9670    1.4410 C.ar      1 7CN        -0.0581
      3 C15       -12.3330   -8.9230    2.5010 C.ar      1 7CN        -0.0605
      4 C17        -9.3540   -9.0840    4.8480 C.ar      1 7CN        -0.0317
      5 C20        -8.6160   -6.4040    5.1340 C.ar      1 7CN         0.0149
      6 C22        -8.4400   -7.0230    3.8950 C.ar      1 7CN        -0.0249
      7 O01        -7.9800   -8.0770    1.1950 O.2       1 7CN        -0.1446
      8 S02        -8.5900   -9.1570    2.2100 S.o2      1 7CN         0.0897
      9 N03       -10.1470   -9.6450    1.7040 N.am      1 7CN        -0.1909
     10 C04       -11.2030   -8.7960    1.6720 C.ar      1 7CN         0.0487
     11 C05       -11.1440   -7.7500    0.7270 C.ar      1 7CN        -0.0269
     12 C06       -12.1950   -6.8140    0.5870 C.ar      1 7CN         0.0528
     13 N07       -12.0760   -5.7920   -0.3420 N.am      1 7CN        -0.2239
     14 C08       -10.8480   -5.5020   -1.0150 C.3       1 7CN         0.0572
     15 C09       -11.1150   -4.2430   -1.8710 C.3       1 7CN        -0.0100
     16 C11       -13.0570   -4.9280   -0.7380 C.2       1 7CN         0.2057
     17 O12       -14.2440   -4.9150   -0.3380 O.2       1 7CN        -0.3847
     18 C14       -13.3890   -8.0110    2.3770 C.ar      1 7CN        -0.0905
     19 C16        -8.8090   -8.3680    3.7640 C.ar      1 7CN         0.1168
     20 C18        -9.5290   -8.4510    6.0900 C.ar      1 7CN        -0.0571
     21 C19        -9.1550   -7.1010    6.2350 C.ar      1 7CN        -0.0520
     22 BR1        -8.1040   -4.6350    5.2710 Br        1 7CN        -0.0498
     23 O23        -7.6070  -10.4090    2.3390 O.2       1 7CN        -0.1446
     24 H1        -13.1378   -4.1073   -2.6955 H         1 7CN         0.0508
     25 H2        -12.7932   -2.9235   -1.3891 H         1 7CN         0.0508
     26 H3        -14.1346   -6.2611    1.3701 H         1 7CN         0.0367
     27 H4        -12.3860   -9.7221    3.2315 H         1 7CN         0.0362
     28 H5         -9.6382  -10.1227    4.7239 H         1 7CN         0.0661
     29 H6         -8.0278   -6.4761    3.0548 H         1 7CN         0.0664
     30 H7        -10.2846  -10.5940    1.4204 H         1 7CN         0.2157
     31 H8        -10.2702   -7.6614    0.0916 H         1 7CN         0.0353
     32 H9        -10.5564   -6.3457   -1.6577 H         1 7CN         0.0587
     33 H10       -10.0497   -5.3046   -0.2844 H         1 7CN         0.0587
     34 H11       -10.5264   -3.3932   -1.4950 H         1 7CN         0.0314
     35 H12       -10.8539   -4.4332   -2.9225 H         1 7CN         0.0314
     36 H13       -14.2663   -8.1116    3.0058 H         1 7CN         0.0536
     37 H14        -9.9477   -8.9962    6.9282 H         1 7CN         0.0625
     38 H15        -9.2808   -6.6002    7.1881 H         1 7CN         0.0644
@<TRIPOS>BOND
     1    1   15 1  
     2   16    1 1  
     3   12    2 ar 
     4    2   18 ar 
     5   10    3 ar 
     6   18    3 ar 
     7   19    4 ar 
     8    4   20 ar 
     9    6    5 ar 
    10    5   21 ar 
    11    5   22 1  
    12   19    6 ar 
    13    8    7 2  
    14    9    8 am 
    15    8   19 1  
    16    8   23 2  
    17   10    9 1  
    18   11   10 ar 
    19   12   11 ar 
    20   13   12 1  
    21   13   14 1  
    22   13   16 am 
    23   14   15 1  
    24   16   17 2  
    25   20   21 ar 
    26    1   24 1  
    27    1   25 1  
    28    2   26 1  
    29    3   27 1  
    30    4   28 1  
    31    6   29 1  
    32    9   30 1  
    33   11   31 1  
    34   14   32 1  
    35   14   33 1  
    36   15   34 1  
    37   15   35 1  
    38   18   36 1  
    39   20   37 1  
    40   21   38 1  
@<TRIPOS>SUBSTRUCTURE
     1 7CN         1

