### 
### Created by X-TOOL on Mon Sep 10 21:13:30 2018
### 

@<TRIPOS>MOLECULE
5ti6_ligand
   38    40     1     0     0
SMALL
GAST_HUCK


@<TRIPOS>ATOM
      1 C13        48.9490   36.6570   77.6350 C.ar      1 7CO        -0.0269
      2 C17        48.9400   39.9290   80.3330 C.3       1 7CO        -0.0100
      3 C21        51.1900   37.2930   76.9670 C.ar      1 7CO        -0.0581
      4 C22        51.2000   36.2680   76.0000 C.ar      1 7CO        -0.0905
      5 O01        45.7330   36.2800   77.7280 O.2       1 7CO        -0.1458
      6 S02        46.1960   35.4170   76.4570 S.o2      1 7CO         0.0905
      7 C03        46.3160   36.5260   75.0900 C.ar      1 7CO         0.1801
      8 C04        46.0650   37.9070   75.2130 C.ar      1 7CO         0.1577
      9 F05        45.7140   38.4450   76.3500 F         1 7CO        -0.1824
     10 C06        46.2050   38.7300   74.0780 C.ar      1 7CO        -0.0303
     11 C07        46.5830   38.1770   72.8500 C.ar      1 7CO        -0.0654
     12 C08        46.8350   36.8100   72.7340 C.ar      1 7CO        -0.0303
     13 C09        46.7090   35.9830   73.8590 C.ar      1 7CO         0.1577
     14 F10        46.9260   34.6970   73.7630 F         1 7CO        -0.1824
     15 N11        47.8200   34.8120   76.5620 N.am      1 7CO        -0.1919
     16 C12        48.9180   35.6200   76.7020 C.ar      1 7CO         0.0485
     17 C14        50.0570   37.5080   77.7810 C.ar      1 7CO         0.0528
     18 N15        49.9570   38.4700   78.7510 N.am      1 7CO        -0.2239
     19 C16        48.7180   38.6750   79.4720 C.3       1 7CO         0.0572
     20 C18        50.4550   40.1590   80.2850 C.3       1 7CO         0.0456
     21 C19        50.9310   39.3000   79.2060 C.2       1 7CO         0.2057
     22 O20        52.1230   39.3820   78.8040 O.2       1 7CO        -0.3847
     23 C23        50.0550   35.4400   75.8710 C.ar      1 7CO        -0.0605
     24 O24        45.2370   34.1840   76.1500 O.2       1 7CO        -0.1458
     25 H1         48.0852   36.8118   78.2714 H         1 7CO         0.0353
     26 H2         48.6048   39.7564   81.3664 H         1 7CO         0.0314
     27 H3         48.4017   40.7909   79.9120 H         1 7CO         0.0314
     28 H4         52.0631   37.9241   77.0872 H         1 7CO         0.0367
     29 H5         52.0662   36.1150   75.3665 H         1 7CO         0.0536
     30 H6         46.0192   39.7951   74.1566 H         1 7CO         0.0570
     31 H7         46.6810   38.8168   71.9804 H         1 7CO         0.0597
     32 H8         47.1269   36.3891   71.7786 H         1 7CO         0.0570
     33 H9         47.9614   33.8230   76.5181 H         1 7CO         0.2156
     34 H10        47.8872   38.8346   78.7690 H         1 7CO         0.0587
     35 H11        48.4971   37.8062   80.1095 H         1 7CO         0.0587
     36 H12        50.9202   39.8742   81.2402 H         1 7CO         0.0508
     37 H13        50.6797   41.2137   80.0678 H         1 7CO         0.0508
     38 H14        50.0482   34.6549   75.1236 H         1 7CO         0.0362
@<TRIPOS>BOND
     1    1   16 ar 
     2   17    1 ar 
     3   19    2 1  
     4    2   20 1  
     5    3    4 ar 
     6   17    3 ar 
     7    4   23 ar 
     8    6    5 2  
     9    6    7 1  
    10   15    6 am 
    11    6   24 2  
    12    7    8 ar 
    13    7   13 ar 
    14    8    9 1  
    15    8   10 ar 
    16   10   11 ar 
    17   12   11 ar 
    18   13   12 ar 
    19   13   14 1  
    20   16   15 1  
    21   16   23 ar 
    22   18   17 1  
    23   18   19 1  
    24   18   21 am 
    25   20   21 1  
    26   21   22 2  
    27    1   25 1  
    28    2   26 1  
    29    2   27 1  
    30    3   28 1  
    31    4   29 1  
    32   10   30 1  
    33   11   31 1  
    34   12   32 1  
    35   15   33 1  
    36   19   34 1  
    37   19   35 1  
    38   20   36 1  
    39   20   37 1  
    40   23   38 1  
@<TRIPOS>SUBSTRUCTURE
     1 7CO         1

