### 
### Created by X-TOOL on Mon Sep 10 21:13:30 2018
### 

@<TRIPOS>MOLECULE
5ti7_ligand
   42    44     1     0     0
SMALL
GAST_HUCK


@<TRIPOS>ATOM
      1 N12       -10.4140   -9.5300    1.7980 N.am      1 7CQ        -0.1922
      2 C13       -11.4350   -8.6410    1.6620 C.ar      1 7CQ         0.0485
      3 C15       -12.4940   -6.6810    0.6140 C.ar      1 7CQ         0.0528
      4 C17       -11.1900   -5.4150   -1.0560 C.3       1 7CQ         0.0572
      5 C20       -13.3800   -4.8220   -0.7330 C.2       1 7CQ         0.2057
      6 C22       -13.5920   -6.8610    1.4680 C.ar      1 7CQ        -0.0581
      7 C24       -12.5460   -8.7830    2.5090 C.ar      1 7CQ        -0.0605
      8 O01        -8.3360   -7.9410    1.0210 O.2       1 7CQ        -0.1463
      9 S02        -8.8480   -8.9580    2.1330 S.o2      1 7CQ         0.0878
     10 C03        -8.9880   -8.0540    3.6220 C.ar      1 7CQ         0.1448
     11 C04        -9.5220   -8.6560    4.7670 C.ar      1 7CQ         0.1209
     12 O05        -9.9260   -9.9490    4.6680 O.3       1 7CQ        -0.3172
     13 C06       -10.2440  -10.6620    5.8820 C.3       1 7CQ         0.0602
     14 C07        -9.6200   -7.9070    5.9510 C.ar      1 7CQ        -0.0282
     15 C08        -9.1800   -6.5750    5.9540 C.ar      1 7CQ        -0.0610
     16 C09        -8.6470   -6.0100    4.7990 C.ar      1 7CQ         0.0031
     17 BR1        -8.0630   -4.2680    4.8110 Br        1 7CQ        -0.0599
     18 C11        -8.5560   -6.7320    3.6170 C.ar      1 7CQ        -0.0338
     19 C14       -11.4260   -7.5940    0.7370 C.ar      1 7CQ        -0.0269
     20 N16       -12.4070   -5.6750   -0.3320 N.am      1 7CQ        -0.2239
     21 C18       -11.4010   -4.0610   -1.7620 C.3       1 7CQ        -0.0100
     22 C19       -12.9240   -3.8910   -1.7610 C.3       1 7CQ         0.0456
     23 O21       -14.5560   -4.7810   -0.3190 O.2       1 7CQ        -0.3847
     24 C23       -13.6220   -7.8970    2.4060 C.ar      1 7CQ        -0.0905
     25 O25        -7.8770  -10.1980    2.2900 O.2       1 7CQ        -0.1463
     26 H1        -10.5830  -10.5109    1.7018 H         1 7CQ         0.2156
     27 H2        -11.0078   -6.2082   -1.7960 H         1 7CQ         0.0587
     28 H3        -10.3374   -5.3568   -0.3634 H         1 7CQ         0.0587
     29 H4        -14.4348   -6.1827    1.3992 H         1 7CQ         0.0367
     30 H5        -12.5691   -9.5802    3.2431 H         1 7CQ         0.0362
     31 H6        -10.5520  -11.6885    5.6343 H         1 7CQ         0.0579
     32 H7        -11.0649  -10.1488    6.4043 H         1 7CQ         0.0579
     33 H8         -9.3575  -10.6921    6.5325 H         1 7CQ         0.0579
     34 H9        -10.0301   -8.3521    6.8503 H         1 7CQ         0.0550
     35 H10        -9.2554   -5.9835    6.8593 H         1 7CQ         0.0615
     36 H11        -8.1596   -6.2784    2.7158 H         1 7CQ         0.0635
     37 H12       -10.5649   -7.4789    0.0887 H         1 7CQ         0.0353
     38 H13       -11.0090   -4.0879   -2.7894 H         1 7CQ         0.0314
     39 H14       -10.9141   -3.2470   -1.2050 H         1 7CQ         0.0314
     40 H15       -13.2024   -2.8581   -1.5050 H         1 7CQ         0.0508
     41 H16       -13.3477   -4.1526   -2.7418 H         1 7CQ         0.0508
     42 H17       -14.4822   -8.0135    3.0553 H         1 7CQ         0.0536
@<TRIPOS>BOND
     1    2    1 1  
     2    1    9 am 
     3    2    7 ar 
     4   19    2 ar 
     5    3    6 ar 
     6    3   19 ar 
     7    3   20 1  
     8   20    4 1  
     9    4   21 1  
    10   20    5 am 
    11    5   22 1  
    12    5   23 2  
    13    6   24 ar 
    14    7   24 ar 
    15    9    8 2  
    16    9   10 1  
    17    9   25 2  
    18   10   11 ar 
    19   10   18 ar 
    20   11   12 1  
    21   11   14 ar 
    22   12   13 1  
    23   14   15 ar 
    24   15   16 ar 
    25   16   17 1  
    26   16   18 ar 
    27   21   22 1  
    28    1   26 1  
    29    4   27 1  
    30    4   28 1  
    31    6   29 1  
    32    7   30 1  
    33   13   31 1  
    34   13   32 1  
    35   13   33 1  
    36   14   34 1  
    37   15   35 1  
    38   18   36 1  
    39   19   37 1  
    40   21   38 1  
    41   21   39 1  
    42   22   40 1  
    43   22   41 1  
    44   24   42 1  
@<TRIPOS>SUBSTRUCTURE
     1 7CQ         1

