### 
### Created by X-TOOL on Wed Jan  1 15:39:38 2020
### 

@<TRIPOS>MOLECULE
5tig_ligand
   15    14     1     0     0
SMALL
GAST_HUCK


@<TRIPOS>ATOM
      1 C01        63.0650   13.8170   40.7460 C.3       1 7DH        -0.0632
      2 C02        62.6370   14.9050   39.7700 C.3       1 7DH        -0.0395
      3 C03        63.2310   16.1220   39.7440 C.3       1 7DH         0.0305
      4 C04        63.3550   16.9870   40.9930 C.2       1 7DH         0.1714
      5 C05        63.3410   18.4880   40.8430 C.2       1 7DH         0.1248
      6 O06        62.4500   19.0190   40.1240 O.co2     1 7DH        -0.5464
      7 O07        64.2240   19.1790   41.4320 O.co2     1 7DH        -0.5464
      8 O08        63.4860   16.5130   42.1100 O.2       1 7DH        -0.3577
      9 H1         62.4487   12.9196   40.5880 H         1 7DH         0.0231
     10 H2         62.9319   14.1763   41.7771 H         1 7DH         0.0231
     11 H3         64.1234   13.5691   40.5778 H         1 7DH         0.0231
     12 H4         61.5695   15.0879   39.9621 H         1 7DH         0.0287
     13 H5         62.7609   14.4807   38.7627 H         1 7DH         0.0287
     14 H6         62.6738   16.7210   39.0087 H         1 7DH         0.0498
     15 H7         64.2561   15.9566   39.3810 H         1 7DH         0.0498
@<TRIPOS>BOND
     1    1    2 1  
     2    2    3 1  
     3    3    4 1  
     4    4    5 1  
     5    4    8 2  
     6    5    6 ar 
     7    5    7 ar 
     8    1    9 1  
     9    1   10 1  
    10    1   11 1  
    11    2   12 1  
    12    2   13 1  
    13    3   14 1  
    14    3   15 1  
@<TRIPOS>SUBSTRUCTURE
     1 7DH         1

