### 
### Created by X-TOOL on Mon Sep 10 21:13:32 2018
### 

@<TRIPOS>MOLECULE
5tiu_ligand
   42    44     1     0     0
SMALL
GAST_HUCK


@<TRIPOS>ATOM
      1 C          -4.0290    0.5640  -14.6520 C.ar      1 7CU         0.1415
      2 N          -4.9400    1.5240  -14.3700 N.ar      1 7CU        -0.2683
      3 O          -3.9210   -1.3740  -16.1040 O.2       1 7CU        -0.3840
      4 C1         -2.7190    0.6690  -14.2020 C.ar      1 7CU         0.1037
      5 N2         -2.3280    1.7000  -13.4370 N.ar      1 7CU        -0.2548
      6 C3         -3.2210    2.6540  -13.1500 C.ar      1 7CU         0.1410
      7 C4         -4.5120    2.5450  -13.6200 C.ar      1 7CU         0.0613
      8 C5         -4.5740   -0.4820  -15.5500 C.2       1 7CU         0.2175
      9 N6         -2.8810    3.7710  -12.3770 N.pl3     1 7CU        -0.2945
     10 C7         -1.4700    3.9810  -12.0940 C.3       1 7CU         0.0716
     11 C8         -0.6490    4.4360  -13.2920 C.3       1 7CU        -0.0065
     12 N9         -1.0730    5.8120  -13.6740 N.4       1 7CU         0.2220
     13 C10        -1.5580   -0.2010  -14.4120 C.2       1 7CU         0.0888
     14 C11         0.8080    4.5780  -12.9360 C.3       1 7CU        -0.0198
     15 N12        -1.4940   -1.3480  -15.1630 N.pl3     1 7CU        -0.2710
     16 C13        -0.2210   -1.8720  -15.1180 C.ar      1 7CU         0.0681
     17 C14         0.5520   -1.0600  -14.3030 C.ar      1 7CU        -0.0155
     18 C15        -0.3110   -0.0190  -13.8620 C.2       1 7CU        -0.0424
     19 C16         0.3020   -2.9790  -15.7660 C.ar      1 7CU        -0.0398
     20 C17         1.6350   -3.2430  -15.5120 C.ar      1 7CU        -0.0734
     21 C18         2.4180   -2.4420  -14.7020 C.ar      1 7CU        -0.0757
     22 C19         1.9080   -1.3050  -14.0900 C.ar      1 7CU        -0.0700
     23 N20        -5.9140   -0.3510  -15.7810 N.am      1 7CU        -0.2995
     24 H1         -5.2178    3.3284  -13.3684 H         1 7CU         0.0820
     25 H2         -3.6007    4.4174  -12.0233 H         1 7CU         0.1845
     26 H3         -1.0479    3.0336  -11.7277 H         1 7CU         0.0579
     27 H4         -1.3869    4.7472  -11.3092 H         1 7CU         0.0579
     28 H5         -0.7806    3.7311  -14.1261 H         1 7CU         0.0867
     29 H6         -0.5338    6.1216  -14.4674 H         1 7CU         0.1997
     30 H7         -0.9200    6.4381  -12.8990 H         1 7CU         0.1997
     31 H8         -2.0519    5.8075  -13.9142 H         1 7CU         0.1997
     32 H9          1.2097    3.5984  -12.6377 H         1 7CU         0.0285
     33 H10         0.9143    5.2872  -12.1019 H         1 7CU         0.0285
     34 H11         1.3639    4.9520  -13.8084 H         1 7CU         0.0285
     35 H12        -2.2827   -1.7571  -15.6841 H         1 7CU         0.2242
     36 H13        -0.0288    0.7937  -13.1943 H         1 7CU         0.0417
     37 H14        -0.2940   -3.5968  -16.4279 H         1 7CU         0.0549
     38 H15         2.0861   -4.1167  -15.9682 H         1 7CU         0.0555
     39 H16         3.4563   -2.7083  -14.5406 H         1 7CU         0.0524
     40 H17         2.5245   -0.6497  -13.4853 H         1 7CU         0.0560
     41 H18        -6.3854   -1.0041  -16.3737 H         1 7CU         0.1807
     42 H19        -6.4235    0.3980  -15.3574 H         1 7CU         0.1807
@<TRIPOS>BOND
     1    1    2 ar 
     2    1    4 ar 
     3    1    8 1  
     4    2    7 ar 
     5    8    3 2  
     6    4    5 ar 
     7    4   13 1  
     8    5    6 ar 
     9    6    7 ar 
    10    6    9 1  
    11    8   23 am 
    12    9   10 1  
    13   10   11 1  
    14   11   12 1  
    15   11   14 1  
    16   13   15 1  
    17   13   18 2  
    18   15   16 1  
    19   16   17 ar 
    20   16   19 ar 
    21   17   18 1  
    22   17   22 ar 
    23   19   20 ar 
    24   20   21 ar 
    25   21   22 ar 
    26    7   24 1  
    27    9   25 1  
    28   10   26 1  
    29   10   27 1  
    30   11   28 1  
    31   12   29 1  
    32   12   30 1  
    33   12   31 1  
    34   14   32 1  
    35   14   33 1  
    36   14   34 1  
    37   15   35 1  
    38   18   36 1  
    39   19   37 1  
    40   20   38 1  
    41   21   39 1  
    42   22   40 1  
    43   23   41 1  
    44   23   42 1  
@<TRIPOS>SUBSTRUCTURE
     1 7CU         1

