### 
### Created by X-TOOL on Mon Sep 10 21:13:26 2018
### 

@<TRIPOS>MOLECULE
5tjx_ligand
   72    76     1     0     0
SMALL
GAST_HUCK


@<TRIPOS>ATOM
      1 C01       -12.3710    2.1440  -11.6760 C.3       1 GBT        -0.0248
      2 C02       -11.4500    0.9280  -11.4520 C.ar      1 GBT         0.0033
      3 N03       -10.2100    1.1980  -11.1000 N.ar      1 GBT        -0.3095
      4 C04        -9.3130    0.2370  -10.8920 C.ar      1 GBT         0.0814
      5 N05        -8.0160    0.6070  -10.5540 N.pl3     1 GBT        -0.3299
      6 C06        -9.6910   -1.1000  -10.9990 C.ar      1 GBT        -0.0029
      7 C07       -10.9830   -1.3940  -11.3540 C.ar      1 GBT         0.0970
      8 O08       -11.4760   -2.6870  -11.4860 O.3       1 GBT        -0.3154
      9 C09       -10.5590   -3.7980  -11.3060 C.3       1 GBT         0.0775
     10 C10       -11.0860   -4.9940  -12.1140 C.3       1 GBT        -0.0083
     11 C11       -11.3070   -4.6140  -13.5790 C.2       1 GBT        -0.0961
     12 C12       -11.6460   -5.5960  -14.4950 C.2       1 GBT        -0.0985
     13 C13       -12.0330   -5.2020  -15.9160 C.3       1 GBT        -0.0340
     14 C14       -12.3480   -6.4050  -16.8760 C.3       1 GBT        -0.0187
     15 C15       -11.9960   -6.0480  -18.3570 C.3       1 GBT         0.0702
     16 O16       -12.5590   -4.7520  -18.6310 O.3       1 GBT        -0.3231
     17 C17       -11.7900   -3.6570  -19.0160 C.ar      1 GBT         0.0894
     18 C18       -10.4310   -3.7620  -19.3540 C.ar      1 GBT        -0.0353
     19 C19        -9.6850   -2.6370  -19.7200 C.ar      1 GBT        -0.0263
     20 C20        -8.1780   -2.7620  -20.1020 C.3       1 GBT         0.0990
     21 N21        -7.8770   -1.8000  -21.1430 N.pl3     1 GBT        -0.1980
     22 C22        -7.1570   -0.6730  -21.0240 C.2       1 GBT         0.0515
     23 C23        -7.0970   -0.0540  -22.2070 C.2       1 GBT        -0.0495
     24 C24        -7.8460   -0.8360  -23.0600 C.2       1 GBT        -0.0073
     25 N25        -8.2840   -1.8600  -22.3820 N.2       1 GBT        -0.2171
     26 C26       -10.2830   -1.3910  -19.7290 C.ar      1 GBT        -0.0751
     27 C27       -11.6280   -1.2890  -19.3660 C.ar      1 GBT        -0.0723
     28 C28       -12.3970   -2.4040  -19.0080 C.ar      1 GBT         0.0123
     29 C29       -13.9230   -2.2990  -18.6830 C.3       1 GBT         0.1022
     30 N30       -14.2940   -2.6810  -17.3280 N.pl3     1 GBT        -0.1908
     31 C31       -13.8350   -2.0760  -16.2320 C.2       1 GBT         0.0772
     32 C32       -14.3910   -2.6530  -15.1440 C.2       1 GBT         0.0651
     33 C33       -15.2430   -3.6460  -15.6430 C.2       1 GBT         0.0141
     34 N34       -15.1390   -3.6000  -16.9250 N.2       1 GBT        -0.2103
     35 C35       -14.2030   -2.3160  -13.6810 C.2       1 GBT         0.1858
     36 O36       -14.5370   -3.0230  -12.8370 O.2       1 GBT        -0.3992
     37 N37       -13.5510   -1.1150  -13.3050 N.am      1 GBT        -0.2831
     38 C38       -13.3670   -0.7420  -11.9210 C.3       1 GBT         0.0591
     39 C39       -11.8900   -0.3780  -11.5640 C.ar      1 GBT         0.0223
     40 H1        -13.3740    1.7961  -11.9641 H         1 GBT         0.0398
     41 H2        -11.9575    2.7746  -12.4769 H         1 GBT         0.0398
     42 H3        -12.4387    2.7288  -10.7468 H         1 GBT         0.0398
     43 H4         -7.3012   -0.1156  -10.3873 H         1 GBT         0.1741
     44 H5         -7.7700    1.6037  -10.4703 H         1 GBT         0.1741
     45 H6         -8.9775   -1.8928  -10.8054 H         1 GBT         0.0451
     46 H7        -10.5026   -4.0649  -10.2404 H         1 GBT         0.0636
     47 H8         -9.5587   -3.5170  -11.6671 H         1 GBT         0.0636
     48 H9        -12.0408   -5.3272  -11.6813 H         1 GBT         0.0414
     49 H10       -10.3540   -5.8134  -12.0619 H         1 GBT         0.0414
     50 H11       -11.1986   -3.5789  -13.8995 H         1 GBT         0.0451
     51 H12       -11.6362   -6.6447  -14.2015 H         1 GBT         0.0450
     52 H13       -11.2007   -4.6283  -16.3497 H         1 GBT         0.0389
     53 H14       -12.9283   -4.5653  -15.8618 H         1 GBT         0.0389
     54 H15       -13.4189   -6.6474  -16.8094 H         1 GBT         0.0310
     55 H16       -11.7545   -7.2776  -16.5657 H         1 GBT         0.0310
     56 H17       -12.4273   -6.7971  -19.0374 H         1 GBT         0.0612
     57 H18       -10.9042   -6.0192  -18.4879 H         1 GBT         0.0612
     58 H19        -9.9510   -4.7336  -19.3308 H         1 GBT         0.0462
     59 H20        -7.9729   -3.7788  -20.4682 H         1 GBT         0.0791
     60 H21        -7.5549   -2.5576  -19.2189 H         1 GBT         0.0791
     61 H22        -6.6932   -0.3179  -20.1049 H         1 GBT         0.0986
     62 H23        -6.5702    0.8688  -22.4455 H         1 GBT         0.0339
     63 H24        -8.0378   -0.6344  -24.1129 H         1 GBT         0.0650
     64 H25        -9.7190   -0.5097  -20.0124 H         1 GBT         0.0447
     65 H26       -12.0942   -0.3104  -19.3611 H         1 GBT         0.0511
     66 H27       -14.4659   -2.9523  -19.3818 H         1 GBT         0.0774
     67 H28       -14.2337   -1.2555  -18.8399 H         1 GBT         0.0774
     68 H29       -13.1259   -1.2496  -16.2163 H         1 GBT         0.1094
     69 H30       -15.8687   -4.3222  -15.0623 H         1 GBT         0.0690
     70 H31       -13.2074   -0.5064  -14.0202 H         1 GBT         0.1856
     71 H32       -13.6801   -1.5858  -11.2885 H         1 GBT         0.0633
     72 H33       -14.0017    0.1309  -11.7084 H         1 GBT         0.0633
@<TRIPOS>BOND
     1    1    2 1  
     2    2    3 ar 
     3    2   39 ar 
     4    3    4 ar 
     5    4    5 1  
     6    4    6 ar 
     7    6    7 ar 
     8    7    8 1  
     9    7   39 ar 
    10    8    9 1  
    11    9   10 1  
    12   10   11 1  
    13   11   12 2  
    14   12   13 1  
    15   13   14 1  
    16   14   15 1  
    17   15   16 1  
    18   16   17 1  
    19   17   18 ar 
    20   17   28 ar 
    21   18   19 ar 
    22   19   20 1  
    23   19   26 ar 
    24   20   21 1  
    25   21   22 1  
    26   21   25 1  
    27   22   23 2  
    28   23   24 1  
    29   24   25 2  
    30   26   27 ar 
    31   27   28 ar 
    32   28   29 1  
    33   29   30 1  
    34   30   31 1  
    35   30   34 1  
    36   31   32 2  
    37   32   33 1  
    38   32   35 1  
    39   33   34 2  
    40   35   36 2  
    41   35   37 am 
    42   37   38 1  
    43   38   39 1  
    44    1   40 1  
    45    1   41 1  
    46    1   42 1  
    47    5   43 1  
    48    5   44 1  
    49    6   45 1  
    50    9   46 1  
    51    9   47 1  
    52   10   48 1  
    53   10   49 1  
    54   11   50 1  
    55   12   51 1  
    56   13   52 1  
    57   13   53 1  
    58   14   54 1  
    59   14   55 1  
    60   15   56 1  
    61   15   57 1  
    62   18   58 1  
    63   20   59 1  
    64   20   60 1  
    65   22   61 1  
    66   23   62 1  
    67   24   63 1  
    68   26   64 1  
    69   27   65 1  
    70   29   66 1  
    71   29   67 1  
    72   31   68 1  
    73   33   69 1  
    74   37   70 1  
    75   38   71 1  
    76   38   72 1  
@<TRIPOS>SUBSTRUCTURE
     1 GBT         1

