### 
### Created by X-TOOL on Mon Sep 10 21:13:28 2018
### 

@<TRIPOS>MOLECULE
5tkb_ligand
   49    51     1     0     0
SMALL
GAST_HUCK


@<TRIPOS>ATOM
      1 C13        19.3860   -3.4270   28.8560 C.ar      1 7DJ         0.1801
      2 C17        20.9110   -1.9890   27.7730 C.ar      1 7DJ         0.1801
      3 C16        20.3980   -2.3810   26.5540 C.ar      1 7DJ         0.1498
      4 C15        19.3900   -3.3090   26.4540 C.ar      1 7DJ        -0.0100
      5 C11        21.1820   -8.9190   28.1770 C.3       1 7DJ        -0.0320
      6 C12        20.4140   -2.4930   28.9740 C.ar      1 7DJ         0.1252
      7 F3         18.8000   -3.9120   29.9630 F         1 7DJ        -0.1967
      8 C14        18.9040   -3.8270   27.6290 C.ar      1 7DJ         0.1498
      9 F2         17.9130   -4.7510   27.5910 F         1 7DJ        -0.1919
     10 F1         20.8960   -1.8150   25.4300 F         1 7DJ        -0.1919
     11 F          21.9140   -1.0930   27.8010 F         1 7DJ        -0.1967
     12 N5         20.9000   -2.0350   30.2450 N.pl3     1 7DJ        -0.2626
     13 C1         21.4590   -2.8460   31.2590 C.2       1 7DJ         0.1401
     14 N          21.7910   -4.1100   30.9160 N.2       1 7DJ        -0.1662
     15 N1         22.2870   -4.8870   31.9570 N.pl3     1 7DJ        -0.1437
     16 C6         22.6990   -6.2140   31.8710 C.2       1 7DJ         0.1704
     17 C7         22.8390   -7.0130   30.6150 C.2       1 7DJ         0.2198
     18 N4         22.3960   -6.4250   29.5010 N.am      1 7DJ        -0.2850
     19 C8         22.7090   -6.8200   28.1350 C.3       1 7DJ         0.0605
     20 C9         21.5830   -7.6430   27.4480 C.3       1 7DJ         0.1059
     21 O2         20.4840   -6.7250   27.3540 O.3       1 7DJ        -0.3846
     22 C10        22.1130   -7.9810   26.0390 C.3       1 7DJ         0.0746
     23 O1         21.0040   -8.4430   25.2780 O.3       1 7DJ        -0.3921
     24 O          23.3960   -8.1060   30.6150 O.2       1 7DJ        -0.3945
     25 C5         23.0720   -6.5630   33.1410 C.2       1 7DJ        -0.0018
     26 N3         22.9330   -5.4960   33.9940 N.2       1 7DJ        -0.3219
     27 C2         22.4690   -4.4900   33.2650 C.2       1 7DJ         0.1927
     28 C3         22.1450   -3.0720   33.6250 C.2       1 7DJ         0.1098
     29 C          21.6250   -2.2790   32.6250 C.2       1 7DJ         0.0119
     30 N2         22.4620   -2.6970   34.9360 N.pl3     1 7DJ        -0.3130
     31 C4         22.2680   -1.3810   35.5150 C.3       1 7DJ         0.0162
     32 H1         18.9967   -3.6179   25.4923 H         1 7DJ         0.0472
     33 H2         20.3840   -9.4268   27.6154 H         1 7DJ         0.0259
     34 H3         20.8183   -8.6671   29.1841 H         1 7DJ         0.0259
     35 H4         22.0540   -9.5846   28.2579 H         1 7DJ         0.0259
     36 H5         20.8356   -1.0247   30.4351 H         1 7DJ         0.2086
     37 H6         21.7908   -5.6373   29.6160 H         1 7DJ         0.1836
     38 H7         23.6242   -7.4300   28.1511 H         1 7DJ         0.0547
     39 H8         22.8850   -5.9103   27.5422 H         1 7DJ         0.0547
     40 H9         19.7464   -7.1572   26.9398 H         1 7DJ         0.2103
     41 H10        22.8810   -8.7659   26.1024 H         1 7DJ         0.0586
     42 H11        22.5440   -7.0832   25.5719 H         1 7DJ         0.0586
     43 H12        20.3447   -7.7603   25.2346 H         1 7DJ         0.2095
     44 H13        23.4291   -7.5492   33.4339 H         1 7DJ         0.0586
     45 H14        21.3387   -1.2489   32.8320 H         1 7DJ         0.0482
     46 H15        22.8699   -3.4210   35.5446 H         1 7DJ         0.1819
     47 H16        22.6093   -1.3866   36.5607 H         1 7DJ         0.0485
     48 H17        21.2004   -1.1184   35.4792 H         1 7DJ         0.0485
     49 H18        22.8472   -0.6402   34.9442 H         1 7DJ         0.0485
@<TRIPOS>BOND
     1    6    1 ar 
     2    1    7 1  
     3    1    8 ar 
     4    2    3 ar 
     5    6    2 ar 
     6    2   11 1  
     7    3    4 ar 
     8    3   10 1  
     9    8    4 ar 
    10   20    5 1  
    11   12    6 1  
    12    8    9 1  
    13   13   12 1  
    14   14   13 2  
    15   13   29 1  
    16   15   14 1  
    17   16   15 1  
    18   15   27 1  
    19   17   16 1  
    20   16   25 2  
    21   18   17 am 
    22   17   24 2  
    23   19   18 1  
    24   19   20 1  
    25   20   21 1  
    26   20   22 1  
    27   22   23 1  
    28   25   26 1  
    29   26   27 2  
    30   27   28 1  
    31   28   29 2  
    32   28   30 1  
    33   30   31 1  
    34    4   32 1  
    35    5   33 1  
    36    5   34 1  
    37    5   35 1  
    38   12   36 1  
    39   18   37 1  
    40   19   38 1  
    41   19   39 1  
    42   21   40 1  
    43   22   41 1  
    44   22   42 1  
    45   23   43 1  
    46   25   44 1  
    47   29   45 1  
    48   30   46 1  
    49   31   47 1  
    50   31   48 1  
    51   31   49 1  
@<TRIPOS>SUBSTRUCTURE
     1 7DJ         1

