### 
### Created by X-TOOL on Mon Sep 10 21:13:28 2018
### 

@<TRIPOS>MOLECULE
5tkd_ligand
   41    43     1     0     0
SMALL
GAST_HUCK


@<TRIPOS>ATOM
      1 C13        11.7200   -6.2620   27.2680 C.ar      1 7GL        -0.0458
      2 C18        16.0160   -6.1990   27.3470 C.3       1 7GL        -0.0354
      3 C17        13.7730   -5.7520   28.4130 C.ar      1 7GL        -0.0458
      4 C16        14.5090   -6.2950   27.3670 C.ar      1 7GL        -0.0629
      5 C15        13.8190   -6.8480   26.2970 C.ar      1 7GL        -0.0716
      6 C19        11.7160   -7.4510   25.0430 C.3       1 7GL        -0.0354
      7 C21         8.5850   -2.6070   32.8160 C.3       1 7GL         0.0163
      8 C11        15.3830   -1.5300   30.0570 C.2       1 7GL         0.2172
      9 C12        12.3800   -5.7150   28.3640 C.ar      1 7GL         0.0464
     10 C1         12.0910   -1.8080   31.7330 C.2       1 7GL         0.1928
     11 N2         13.0240   -2.3020   30.8350 N.pl3     1 7GL        -0.1434
     12 N3         12.8660   -3.4210   30.0400 N.2       1 7GL        -0.1654
     13 C4         11.7260   -4.0210   30.1830 C.2       1 7GL         0.1417
     14 C5         10.6890   -3.6020   31.0510 C.2       1 7GL         0.0122
     15 C6         10.8380   -2.4900   31.8340 C.2       1 7GL         0.1100
     16 N7         12.5520   -0.7200   32.3360 N.2       1 7GL        -0.3218
     17 C8         13.7950   -0.5110   31.7940 C.2       1 7GL        -0.0018
     18 C9         14.1380   -1.4610   30.8610 C.2       1 7GL         0.1703
     19 N10        11.5830   -5.1620   29.3950 N.pl3     1 7GL        -0.2642
     20 C14        12.4330   -6.8470   26.2290 C.ar      1 7GL        -0.0629
     21 N20         9.8970   -2.0030   32.6650 N.pl3     1 7GL        -0.3130
     22 N22        15.5480   -2.4820   29.1420 N.am      1 7GL        -0.3018
     23 O23        16.2600   -0.6750   30.2780 O.2       1 7GL        -0.3947
     24 H1         10.6373   -6.2314   27.2243 H         1 7GL         0.0412
     25 H2         16.3662   -5.7342   28.2804 H         1 7GL         0.0388
     26 H3         16.3330   -5.5857   26.4906 H         1 7GL         0.0388
     27 H4         16.4465   -7.2071   27.2555 H         1 7GL         0.0388
     28 H5         14.2886   -5.3519   29.2785 H         1 7GL         0.0412
     29 H6         14.3823   -7.2961   25.4865 H         1 7GL         0.0397
     30 H7         10.6294   -7.3497   25.1810 H         1 7GL         0.0388
     31 H8         11.9773   -8.5163   24.9601 H         1 7GL         0.0388
     32 H9         12.0195   -6.9265   24.1250 H         1 7GL         0.0388
     33 H10         7.9985   -2.0316   33.5474 H         1 7GL         0.0485
     34 H11         8.6966   -3.6428   33.1689 H         1 7GL         0.0485
     35 H12         8.0661   -2.6039   31.8461 H         1 7GL         0.0485
     36 H13         9.7619   -4.1715   31.0960 H         1 7GL         0.0483
     37 H14        14.4416    0.3196   32.0732 H         1 7GL         0.0586
     38 H15        10.7344   -5.7075   29.6029 H         1 7GL         0.2105
     39 H16        10.1180   -1.1633   33.2191 H         1 7GL         0.1819
     40 H17        16.3912   -2.5192   28.6056 H         1 7GL         0.1798
     41 H18        14.8288   -3.1602   28.9908 H         1 7GL         0.1798
@<TRIPOS>BOND
     1    9    1 ar 
     2    1   20 ar 
     3    4    2 1  
     4    3    4 ar 
     5    9    3 ar 
     6    4    5 ar 
     7   20    5 ar 
     8   20    6 1  
     9   21    7 1  
    10   18    8 1  
    11    8   22 am 
    12    8   23 2  
    13   19    9 1  
    14   10   11 1  
    15   15   10 1  
    16   10   16 2  
    17   11   12 1  
    18   11   18 1  
    19   13   12 2  
    20   14   13 1  
    21   13   19 1  
    22   15   14 2  
    23   15   21 1  
    24   16   17 1  
    25   17   18 2  
    26    1   24 1  
    27    2   25 1  
    28    2   26 1  
    29    2   27 1  
    30    3   28 1  
    31    5   29 1  
    32    6   30 1  
    33    6   31 1  
    34    6   32 1  
    35    7   33 1  
    36    7   34 1  
    37    7   35 1  
    38   14   36 1  
    39   17   37 1  
    40   19   38 1  
    41   21   39 1  
    42   22   40 1  
    43   22   41 1  
@<TRIPOS>SUBSTRUCTURE
     1 7GL         1

