### 
### Created by X-TOOL on Wed Jan  1 15:39:37 2020
### 

@<TRIPOS>MOLECULE
5tkj_ligand
  108   108     1     0     0
SMALL
GAST_HUCK


@<TRIPOS>ATOM
      1 N          -6.9310  108.1570   65.6660 N.4       1 ALA         0.2377
      2 CA         -5.8500  107.3540   66.2250 C.3       1 ALA         0.0621
      3 C          -6.2830  106.7900   67.5770 C.2       1 ALA         0.2264
      4 O          -7.2760  107.2430   68.1590 O.2       1 ALA        -0.3907
      5 CB         -4.5520  108.1910   66.3850 C.3       1 ALA        -0.0040
      6 N          -5.5080  105.8300   68.0830 N.am      1 VAL        -0.2608
      7 CA         -5.7560  105.2840   69.4180 C.3       1 VAL         0.1334
      8 C          -5.5580  106.3580   70.4830 C.2       1 VAL         0.2040
      9 O          -6.4190  106.5700   71.3460 O.2       1 VAL        -0.3944
     10 CB         -4.8510  104.0680   69.6630 C.3       1 VAL        -0.0063
     11 CG1        -4.8140  103.6990   71.1580 C.3       1 VAL        -0.0584
     12 CG2        -5.3710  102.8830   68.8380 C.3       1 VAL        -0.0584
     13 N          -4.4550  107.0710   70.4090 N.am      1 GLY        -0.2664
     14 CA         -4.0120  108.0380   71.3930 C.3       1 GLY         0.1201
     15 C          -2.8860  107.4850   72.2450 C.2       1 GLY         0.2008
     16 O          -2.8110  106.2840   72.5270 O.2       1 GLY        -0.3947
     17 N          -1.9820  108.3740   72.6600 N.am      1 ILE        -0.2637
     18 CA         -0.7880  107.9110   73.3670 C.3       1 ILE         0.1335
     19 C          -1.1020  107.5450   74.8050 C.2       1 ILE         0.2040
     20 O          -0.3610  106.7640   75.4160 O.2       1 ILE        -0.3944
     21 CB          0.3380  108.9610   73.3050 C.3       1 ILE        -0.0037
     22 CG1         0.0070  110.1770   74.1660 C.3       1 ILE        -0.0491
     23 CG2         0.5640  109.4520   71.8530 C.3       1 ILE        -0.0582
     24 CD1         1.1560  111.1850   74.2800 C.3       1 ILE        -0.0648
     25 N          -2.1780  108.0750   75.3760 N.am      1 GLY        -0.2664
     26 CA         -2.5050  107.7640   76.7540 C.3       1 GLY         0.1201
     27 C          -3.6110  106.7480   76.9480 C.2       1 GLY         0.2007
     28 O          -4.0230  106.5220   78.0930 O.2       1 GLY        -0.3947
     29 N          -4.1040  106.1260   75.8760 N.am      1 ALA        -0.2642
     30 CA         -5.1430  105.1130   76.0110 C.3       1 ALA         0.1282
     31 C          -4.5510  103.8600   76.6390 C.2       1 ALA         0.2036
     32 O          -3.4360  103.4460   76.3100 O.2       1 ALA        -0.3944
     33 CB         -5.7550  104.7810   74.6490 C.3       1 ALA        -0.0244
     34 N          -5.2920  103.2460   77.5420 N.am      1 VAL        -0.2635
     35 CA         -4.8750  101.9780   78.1200 C.3       1 VAL         0.1332
     36 C          -6.0480  101.0070   78.1340 C.2       1 VAL         0.2037
     37 O          -7.1990  101.4210   78.3130 O.2       1 VAL        -0.3944
     38 CB         -4.2900  102.2070   79.5360 C.3       1 VAL        -0.0063
     39 CG1        -5.3400  102.7990   80.4800 C.3       1 VAL        -0.0584
     40 CG2        -3.6960  100.9250   80.0960 C.3       1 VAL        -0.0584
     41 N          -5.7570   99.7290   77.8660 N.am      1 PHE        -0.2677
     42 CA         -6.5830   98.5740   78.2800 C.3       1 PHE         0.1039
     43 C          -5.9700   97.2800   77.7450 C.2       1 PHE         0.0621
     44 O          -6.3220   96.8100   76.6610 O.co2     1 PHE        -0.5664
     45 CB         -8.0440   98.6820   77.8150 C.3       1 PHE         0.0159
     46 CG         -9.0430   98.1300   78.8120 C.ar      1 PHE        -0.0392
     47 CD1        -8.6790   97.1290   79.7040 C.ar      1 PHE        -0.0602
     48 CD2       -10.3420   98.6200   78.8640 C.ar      1 PHE        -0.0602
     49 CE1        -9.5900   96.6260   80.6200 C.ar      1 PHE        -0.0686
     50 CE2       -11.2580   98.1170   79.7820 C.ar      1 PHE        -0.0686
     51 CZ        -10.8800   97.1190   80.6590 C.ar      1 PHE        -0.0687
     52 OXT        -5.1080   96.6730   78.3840 O.co2     1 PHE        -0.5664
     53 H1         -6.6460  108.5296   64.7738 H         1 ALA         0.2015
     54 H2         -7.1453  108.9158   66.2940 H         1 ALA         0.2015
     55 H3         -7.7490  107.5808   65.5437 H         1 ALA         0.2015
     56 H4         -5.6435  106.5178   65.5409 H         1 ALA         0.1095
     57 H5         -3.7576  107.5584   66.8078 H         1 ALA         0.0310
     58 H6         -4.7432  109.0390   67.0591 H         1 ALA         0.0310
     59 H7         -4.2355  108.5685   65.4015 H         1 ALA         0.0310
     60 H8         -4.7449  105.4774   67.5414 H         1 VAL         0.1885
     61 H9         -6.8021  104.9471   69.4654 H         1 VAL         0.0802
     62 H10        -3.8297  104.3126   69.3356 H         1 VAL         0.0343
     63 H11        -4.1599  102.8268   71.3043 H         1 VAL         0.0234
     64 H12        -5.8306  103.4566   71.5011 H         1 VAL         0.0234
     65 H13        -4.4250  104.5500   71.7362 H         1 VAL         0.0234
     66 H14        -5.3926  103.1589   67.7734 H         1 VAL         0.0234
     67 H15        -6.3869  102.6227   69.1700 H         1 VAL         0.0234
     68 H16        -4.7062  102.0181   68.9792 H         1 VAL         0.0234
     69 H17        -3.8738  106.9343   69.6068 H         1 GLY         0.1881
     70 H18        -4.8588  108.2989   72.0448 H         1 GLY         0.0763
     71 H19        -3.6575  108.9404   70.8735 H         1 GLY         0.0763
     72 H20        -2.1196  109.3496   72.4890 H         1 ILE         0.1883
     73 H21        -0.4301  107.0030   72.8597 H         1 ILE         0.0803
     74 H22         1.2647  108.4994   73.6766 H         1 ILE         0.0345
     75 H23        -0.2489  109.8270   75.1769 H         1 ILE         0.0267
     76 H24        -0.8608  110.6888   73.7245 H         1 ILE         0.0267
     77 H25         0.8049  108.5934   71.2090 H         1 ILE         0.0235
     78 H26         1.3974  110.1697   71.8341 H         1 ILE         0.0235
     79 H27        -0.3498  109.9414   71.4850 H         1 ILE         0.0235
     80 H28         0.8424  112.0285   74.9126 H         1 ILE         0.0230
     81 H29         1.4191  111.5559   73.2784 H         1 ILE         0.0230
     82 H30         2.0311  110.6941   74.7308 H         1 ILE         0.0230
     83 H31        -2.7658  108.6919   74.8526 H         1 GLY         0.1881
     84 H32        -2.8117  108.6974   77.2486 H         1 GLY         0.0763
     85 H33        -1.5976  107.3737   77.2379 H         1 GLY         0.0763
     86 H34        -3.7561  106.3578   74.9676 H         1 ALA         0.1883
     87 H35        -5.9349  105.5018   76.6680 H         1 ALA         0.0797
     88 H36        -6.5353  104.0158   74.7744 H         1 ALA         0.0277
     89 H37        -4.9714  104.3991   73.9782 H         1 ALA         0.0277
     90 H38        -6.1985  105.6893   74.2151 H         1 ALA         0.0277
     91 H39        -6.1546  103.6593   77.8338 H         1 VAL         0.1883
     92 H40        -4.0830  101.5491   77.4886 H         1 VAL         0.0802
     93 H41        -3.4743  102.9394   79.4455 H         1 VAL         0.0343
     94 H42        -4.8953  102.9496   81.4748 H         1 VAL         0.0234
     95 H43        -6.1922  102.1081   80.5601 H         1 VAL         0.0234
     96 H44        -5.6868  103.7646   80.0834 H         1 VAL         0.0234
     97 H45        -2.9480  100.5298   79.3929 H         1 VAL         0.0234
     98 H46        -4.4947  100.1820   80.2375 H         1 VAL         0.0234
     99 H47        -3.2153  101.1353   81.0628 H         1 VAL         0.0234
    100 H48        -4.9218   99.5413   77.3491 H         1 PHE         0.1877
    101 H49        -6.5801   98.5341   79.3793 H         1 PHE         0.0749
    102 H50        -8.1505   98.1253   76.8723 H         1 PHE         0.0467
    103 H51        -8.2760   99.7433   77.6424 H         1 PHE         0.0467
    104 H52        -7.6690   96.7359   79.6835 H         1 PHE         0.0557
    105 H53       -10.6456   99.4045   78.1803 H         1 PHE         0.0557
    106 H54        -9.2893   95.8437   81.3075 H         1 PHE         0.0599
    107 H55       -12.2686   98.5082   79.8092 H         1 PHE         0.0599
    108 H56       -11.5923   96.7244   81.3746 H         1 PHE         0.0559
@<TRIPOS>BOND
     1    1    2 1  
     2    2    3 1  
     3    2    5 1  
     4    3    4 2  
     5    3    6 am 
     6    6    7 1  
     7    7    8 1  
     8    7   10 1  
     9    8    9 2  
    10    8   13 am 
    11   10   11 1  
    12   10   12 1  
    13   13   14 1  
    14   14   15 1  
    15   15   16 2  
    16   15   17 am 
    17   17   18 1  
    18   18   19 1  
    19   18   21 1  
    20   19   20 2  
    21   19   25 am 
    22   21   22 1  
    23   21   23 1  
    24   22   24 1  
    25   25   26 1  
    26   26   27 1  
    27   27   28 2  
    28   27   29 am 
    29   29   30 1  
    30   30   31 1  
    31   30   33 1  
    32   31   32 2  
    33   31   34 am 
    34   34   35 1  
    35   35   36 1  
    36   35   38 1  
    37   36   37 2  
    38   36   41 am 
    39   38   39 1  
    40   38   40 1  
    41   41   42 1  
    42   42   43 1  
    43   42   45 1  
    44   43   44 ar 
    45   43   52 ar 
    46   45   46 1  
    47   46   47 ar 
    48   46   48 ar 
    49   47   49 ar 
    50   48   50 ar 
    51   49   51 ar 
    52   50   51 ar 
    53    1   53 1  
    54    1   54 1  
    55    1   55 1  
    56    2   56 1  
    57    5   57 1  
    58    5   58 1  
    59    5   59 1  
    60    6   60 1  
    61    7   61 1  
    62   10   62 1  
    63   11   63 1  
    64   11   64 1  
    65   11   65 1  
    66   12   66 1  
    67   12   67 1  
    68   12   68 1  
    69   13   69 1  
    70   14   70 1  
    71   14   71 1  
    72   17   72 1  
    73   18   73 1  
    74   21   74 1  
    75   22   75 1  
    76   22   76 1  
    77   23   77 1  
    78   23   78 1  
    79   23   79 1  
    80   24   80 1  
    81   24   81 1  
    82   24   82 1  
    83   25   83 1  
    84   26   84 1  
    85   26   85 1  
    86   29   86 1  
    87   30   87 1  
    88   33   88 1  
    89   33   89 1  
    90   33   90 1  
    91   34   91 1  
    92   35   92 1  
    93   38   93 1  
    94   39   94 1  
    95   39   95 1  
    96   39   96 1  
    97   40   97 1  
    98   40   98 1  
    99   40   99 1  
   100   41  100 1  
   101   42  101 1  
   102   45  102 1  
   103   45  103 1  
   104   47  104 1  
   105   48  105 1  
   106   49  106 1  
   107   50  107 1  
   108   51  108 1  
@<TRIPOS>SUBSTRUCTURE
     1 ALA         1

