### 
### Created by X-TOOL on Wed Jan  1 15:39:37 2020
### 

@<TRIPOS>MOLECULE
5tkk_ligand
  108   108     1     0     0
SMALL
GAST_HUCK


@<TRIPOS>ATOM
      1 N          30.8070   -6.0190   40.4140 N.4       1 ALA         0.2377
      2 CA         31.6070   -6.0530   41.6280 C.3       1 ALA         0.0621
      3 C          32.3050   -7.3920   41.7990 C.2       1 ALA         0.2264
      4 O          32.7340   -7.7340   42.8980 O.2       1 ALA        -0.3907
      5 CB         30.7500   -5.7620   42.8290 C.3       1 ALA        -0.0040
      6 N          32.4250   -8.1390   40.6990 N.am      1 VAL        -0.2608
      7 CA         33.2160   -9.3600   40.6820 C.3       1 VAL         0.1334
      8 C          34.3200   -9.1540   39.6580 C.2       1 VAL         0.2040
      9 O          34.5060   -8.0380   39.1620 O.2       1 VAL        -0.3944
     10 CB         32.3650  -10.6000   40.3660 C.3       1 VAL        -0.0063
     11 CG1        31.3090  -10.7880   41.4530 C.3       1 VAL        -0.0584
     12 CG2        31.7480  -10.5170   38.9800 C.3       1 VAL        -0.0584
     13 N          35.0740  -10.2120   39.3700 N.am      1 GLY        -0.2664
     14 CA         36.1590  -10.0790   38.4120 C.3       1 GLY         0.1201
     15 C          37.1420   -9.0210   38.8590 C.2       1 GLY         0.2008
     16 O          37.5340   -8.9490   40.0430 O.2       1 GLY        -0.3947
     17 N          37.5210   -8.1670   37.9020 N.am      1 ILE        -0.2637
     18 CA         38.5140   -7.1380   38.1700 C.3       1 ILE         0.1335
     19 C          38.0100   -6.1600   39.2090 C.2       1 ILE         0.2040
     20 O          38.8150   -5.5150   39.8850 O.2       1 ILE        -0.3944
     21 CB         38.9170   -6.3970   36.8740 C.3       1 ILE        -0.0037
     22 CG1        37.7270   -5.6240   36.3020 C.3       1 ILE        -0.0491
     23 CG2        39.5130   -7.3740   35.8640 C.3       1 ILE        -0.0582
     24 CD1        38.1290   -4.6250   35.2270 C.3       1 ILE        -0.0648
     25 N          36.6950   -6.0460   39.3660 N.am      1 GLY        -0.2664
     26 CA         36.1180   -5.1330   40.3360 C.3       1 GLY         0.1201
     27 C          36.0460   -5.6400   41.7580 C.2       1 GLY         0.2007
     28 O          35.6680   -4.8820   42.6540 O.2       1 GLY        -0.3947
     29 N          36.4060   -6.8930   42.0110 N.am      1 ALA        -0.2642
     30 CA         36.3960   -7.4030   43.3710 C.3       1 ALA         0.1282
     31 C          37.5880   -6.8520   44.1400 C.2       1 ALA         0.2036
     32 O          38.7120   -6.7920   43.6290 O.2       1 ALA        -0.3944
     33 CB         36.4250   -8.9310   43.3850 C.3       1 ALA        -0.0244
     34 N          37.3400   -6.4370   45.3610 N.am      1 VAL        -0.2635
     35 CA         38.4040   -5.9130   46.2070 C.3       1 VAL         0.1332
     36 C          38.9560   -7.0510   47.0440 C.2       1 VAL         0.2037
     37 O          38.2020   -7.8940   47.5530 O.2       1 VAL        -0.3944
     38 CB         37.8990   -4.7590   47.0870 C.3       1 VAL        -0.0063
     39 CG1        39.0730   -4.0500   47.7250 C.3       1 VAL        -0.0584
     40 CG2        37.0600   -3.7940   46.2590 C.3       1 VAL        -0.0584
     41 N          40.2770   -7.0750   47.1890 N.am      1 PHE        -0.2677
     42 CA         40.9510   -8.1200   47.9430 C.3       1 PHE         0.1039
     43 C          41.9160   -7.5310   48.9800 C.2       1 PHE         0.0621
     44 O          42.4370   -8.2470   49.8410 O.co2     1 PHE        -0.5664
     45 CB         41.6970   -9.0600   46.9960 C.3       1 PHE         0.0159
     46 CG         40.7930   -9.9550   46.1940 C.ar      1 PHE        -0.0392
     47 CD1        40.3280  -11.1440   46.7210 C.ar      1 PHE        -0.0602
     48 CD2        40.4500   -9.6290   44.8780 C.ar      1 PHE        -0.0602
     49 CE1        39.5130  -11.9900   45.9730 C.ar      1 PHE        -0.0686
     50 CE2        39.6180  -10.4550   44.1510 C.ar      1 PHE        -0.0686
     51 CZ         39.1540  -11.6390   44.6900 C.ar      1 PHE        -0.0687
     52 OXT        42.1940   -6.3280   48.9770 O.co2     1 PHE        -0.5664
     53 H1         30.3593   -5.1196   40.3318 H         1 ALA         0.2015
     54 H2         30.1051   -6.7413   40.4538 H         1 ALA         0.2015
     55 H3         31.4021   -6.1723   39.6150 H         1 ALA         0.2015
     56 H4         32.3770   -5.2711   41.5526 H         1 ALA         0.1095
     57 H5         31.3696   -5.7916   43.7374 H         1 ALA         0.0310
     58 H6         29.9541   -6.5176   42.9033 H         1 ALA         0.0310
     59 H7         30.2995   -4.7639   42.7249 H         1 ALA         0.0310
     60 H8         31.9579   -7.8511   39.8630 H         1 VAL         0.1885
     61 H9         33.6699   -9.5048   41.6735 H         1 VAL         0.0802
     62 H10        33.0264  -11.4788   40.3816 H         1 VAL         0.0343
     63 H11        30.7015  -11.6760   41.2243 H         1 VAL         0.0234
     64 H12        30.6606   -9.9003   41.4918 H         1 VAL         0.0234
     65 H13        31.8042  -10.9232   42.4259 H         1 VAL         0.0234
     66 H14        32.5433  -10.3822   38.2321 H         1 VAL         0.0234
     67 H15        31.0559   -9.6631   38.9372 H         1 VAL         0.0234
     68 H16        31.1982  -11.4456   38.7672 H         1 VAL         0.0234
     69 H17        34.8954  -11.0923   39.8095 H         1 GLY         0.1881
     70 H18        35.7438   -9.7953   37.4337 H         1 GLY         0.0763
     71 H19        36.6819  -11.0427   38.3230 H         1 GLY         0.0763
     72 H20        37.1165   -8.2367   36.9901 H         1 ILE         0.1883
     73 H21        39.4116   -7.6303   38.5725 H         1 ILE         0.0803
     74 H22        39.6971   -5.6650   37.1301 H         1 ILE         0.0345
     75 H23        37.2365   -5.0786   37.1217 H         1 ILE         0.0267
     76 H24        37.0189   -6.3434   35.8649 H         1 ILE         0.0267
     77 H25        40.3619   -7.9026   36.3222 H         1 ILE         0.0235
     78 H26        39.8603   -6.8204   34.9792 H         1 ILE         0.0235
     79 H27        38.7465   -8.1032   35.5628 H         1 ILE         0.0235
     80 H28        37.2335   -4.1039   34.8575 H         1 ILE         0.0230
     81 H29        38.6132   -5.1569   34.3948 H         1 ILE         0.0230
     82 H30        38.8308   -3.8920   35.6516 H         1 ILE         0.0230
     83 H31        36.0871   -6.6039   38.8010 H         1 GLY         0.1881
     84 H32        35.0942   -4.8976   40.0099 H         1 GLY         0.0763
     85 H33        36.7232   -4.2145   40.3359 H         1 GLY         0.0763
     86 H34        36.6862   -7.4901   41.2593 H         1 ALA         0.1883
     87 H35        35.4717   -7.0669   43.8636 H         1 ALA         0.0797
     88 H36        36.4167   -9.2883   44.4253 H         1 ALA         0.0277
     89 H37        37.3375   -9.2851   42.8830 H         1 ALA         0.0277
     90 H38        35.5417   -9.3194   42.8569 H         1 ALA         0.0277
     91 H39        36.4061   -6.4814   45.7157 H         1 VAL         0.1883
     92 H40        39.2084   -5.5262   45.5641 H         1 VAL         0.0802
     93 H41        37.2658   -5.1745   47.8848 H         1 VAL         0.0343
     94 H42        38.7058   -3.2253   48.3535 H         1 VAL         0.0234
     95 H43        39.7296   -3.6479   46.9394 H         1 VAL         0.0234
     96 H44        39.6373   -4.7611   48.3462 H         1 VAL         0.0234
     97 H45        36.2156   -4.3361   45.8083 H         1 VAL         0.0234
     98 H46        37.6817   -3.3571   45.4636 H         1 VAL         0.0234
     99 H47        36.6768   -2.9921   46.9072 H         1 VAL         0.0234
    100 H48        40.8242   -6.3523   46.7667 H         1 PHE         0.1877
    101 H49        40.1871   -8.7027   48.4787 H         1 PHE         0.0749
    102 H50        42.3700   -9.6924   47.5937 H         1 PHE         0.0467
    103 H51        42.2900   -8.4507   46.2981 H         1 PHE         0.0467
    104 H52        40.6016  -11.4229   47.7322 H         1 PHE         0.0557
    105 H53        40.8396   -8.7234   44.4273 H         1 PHE         0.0557
    106 H54        39.1618  -12.9227   46.3993 H         1 PHE         0.0599
    107 H55        39.3254  -10.1719   43.1464 H         1 PHE         0.0599
    108 H56        38.5111  -12.2884   44.1069 H         1 PHE         0.0559
@<TRIPOS>BOND
     1    1    2 1  
     2    2    3 1  
     3    2    5 1  
     4    3    4 2  
     5    3    6 am 
     6    6    7 1  
     7    7    8 1  
     8    7   10 1  
     9    8    9 2  
    10    8   13 am 
    11   10   11 1  
    12   10   12 1  
    13   13   14 1  
    14   14   15 1  
    15   15   16 2  
    16   15   17 am 
    17   17   18 1  
    18   18   19 1  
    19   18   21 1  
    20   19   20 2  
    21   19   25 am 
    22   21   22 1  
    23   21   23 1  
    24   22   24 1  
    25   25   26 1  
    26   26   27 1  
    27   27   28 2  
    28   27   29 am 
    29   29   30 1  
    30   30   31 1  
    31   30   33 1  
    32   31   32 2  
    33   31   34 am 
    34   34   35 1  
    35   35   36 1  
    36   35   38 1  
    37   36   37 2  
    38   36   41 am 
    39   38   39 1  
    40   38   40 1  
    41   41   42 1  
    42   42   43 1  
    43   42   45 1  
    44   43   44 ar 
    45   43   52 ar 
    46   45   46 1  
    47   46   47 ar 
    48   46   48 ar 
    49   47   49 ar 
    50   48   50 ar 
    51   49   51 ar 
    52   50   51 ar 
    53    1   53 1  
    54    1   54 1  
    55    1   55 1  
    56    2   56 1  
    57    5   57 1  
    58    5   58 1  
    59    5   59 1  
    60    6   60 1  
    61    7   61 1  
    62   10   62 1  
    63   11   63 1  
    64   11   64 1  
    65   11   65 1  
    66   12   66 1  
    67   12   67 1  
    68   12   68 1  
    69   13   69 1  
    70   14   70 1  
    71   14   71 1  
    72   17   72 1  
    73   18   73 1  
    74   21   74 1  
    75   22   75 1  
    76   22   76 1  
    77   23   77 1  
    78   23   78 1  
    79   23   79 1  
    80   24   80 1  
    81   24   81 1  
    82   24   82 1  
    83   25   83 1  
    84   26   84 1  
    85   26   85 1  
    86   29   86 1  
    87   30   87 1  
    88   33   88 1  
    89   33   89 1  
    90   33   90 1  
    91   34   91 1  
    92   35   92 1  
    93   38   93 1  
    94   39   94 1  
    95   39   95 1  
    96   39   96 1  
    97   40   97 1  
    98   40   98 1  
    99   40   99 1  
   100   41  100 1  
   101   42  101 1  
   102   45  102 1  
   103   45  103 1  
   104   47  104 1  
   105   48  105 1  
   106   49  106 1  
   107   50  107 1  
   108   51  108 1  
@<TRIPOS>SUBSTRUCTURE
     1 ALA         1

