### 
### Created by X-TOOL on Mon Sep 10 21:13:31 2018
### 

@<TRIPOS>MOLECULE
5tks_ligand
   72    76     1     0     0
SMALL
GAST_HUCK


@<TRIPOS>ATOM
      1 C16        39.0820  -18.6870   29.4150 C.2       1 7DL         0.1910
      2 C15        38.3140  -17.4580   29.1330 C.2       1 7DL         0.0072
      3 C19        39.8050  -20.8740   28.6870 C.3       1 7DL         0.1170
      4 C20        41.3000  -20.7650   28.6940 C.2       1 7DL         0.1388
      5 C21        39.3770  -21.9620   27.7020 C.3       1 7DL        -0.0137
      6 C22        44.4600  -21.3800   30.2410 C.ar      1 7DL        -0.0407
      7 C23        45.5200  -20.4880   30.4630 C.ar      1 7DL        -0.0785
      8 C24        46.5580  -20.8230   31.3120 C.ar      1 7DL        -0.0503
      9 C34        40.0970  -23.8210   29.4000 C.3       1 7DL        -0.0528
     10 C27        44.4570  -22.6200   30.9010 C.ar      1 7DL        -0.0523
     11 C33        40.0190  -23.3610   27.9460 C.3       1 7DL        -0.0486
     12 CL1        33.8610  -14.1230   29.6210 Cl        1 7DL        -0.0754
     13 CL2        44.6910  -20.4520   26.9650 Cl        1 7DL        -0.0525
     14 C3         36.7620  -13.5070   26.9600 C.ar      1 7DL        -0.0176
     15 C4         35.6530  -13.3240   27.7720 C.ar      1 7DL        -0.0476
     16 C5         35.2820  -14.3310   28.6380 C.ar      1 7DL         0.0380
     17 C6         35.9990  -15.5120   28.7260 C.ar      1 7DL        -0.0382
     18 C7         37.1050  -15.7190   27.8910 C.ar      1 7DL         0.0262
     19 C8         37.4640  -14.7100   26.9870 C.ar      1 7DL         0.1410
     20 N9         38.5430  -14.9130   26.0780 N.pl3     1 7DL        -0.0913
     21 C10        38.5950  -15.0110   24.7420 C.2       1 7DL         0.1690
     22 N11        39.8340  -15.1800   24.3620 N.2       1 7DL        -0.2058
     23 N12        40.5650  -15.2040   25.5030 N.2       1 7DL        -0.1365
     24 N13        39.8040  -15.0420   26.5460 N.2       1 7DL        -0.0466
     25 C14        37.8590  -16.9770   27.9880 C.2       1 7DL        -0.0388
     26 O17        39.7130  -18.8180   30.4450 O.2       1 7DL        -0.3927
     27 N18        39.1380  -19.6000   28.4230 N.am      1 7DL        -0.2687
     28 C25        46.5230  -22.0220   32.0210 C.ar      1 7DL         0.0595
     29 C26        45.4840  -22.9170   31.7900 C.ar      1 7DL        -0.0422
     30 N28        42.0430  -20.5080   27.5790 N.pl3     1 7DL        -0.2510
     31 C29        43.3660  -20.6460   28.0220 C.2       1 7DL         0.1345
     32 C30        43.3650  -20.9810   29.3270 C.2       1 7DL         0.0138
     33 N31        42.0490  -21.0360   29.7520 N.2       1 7DL        -0.3292
     34 C32        43.3660  -23.6690   30.7320 C.3       1 7DL        -0.0230
     35 C35        40.8040  -25.1470   29.6330 C.3       1 7DL        -0.0529
     36 C36        42.2140  -25.3090   29.0490 C.3       1 7DL        -0.0513
     37 C37        43.2400  -24.1790   29.2880 C.3       1 7DL        -0.0437
     38 N38        47.5160  -22.4110   32.9590 N.am      1 7DL        -0.2114
     39 C39        48.7770  -21.9150   33.0630 C.2       1 7DL         0.3497
     40 O40        49.3660  -22.4080   34.1580 O.3       1 7DL        -0.2623
     41 O41        49.3300  -21.1870   32.2680 O.2       1 7DL        -0.3669
     42 C42        50.7440  -21.9890   34.3620 C.3       1 7DL         0.0668
     43 H1         38.0857  -16.8504   30.0075 H         1 7DL         0.0628
     44 H2         39.4942  -21.1948   29.6922 H         1 7DL         0.0797
     45 H3         39.6517  -21.6325   26.6891 H         1 7DL         0.0315
     46 H4         38.2845  -22.0717   27.7683 H         1 7DL         0.0315
     47 H5         45.5250  -19.5260   29.9634 H         1 7DL         0.0531
     48 H6         47.4012  -20.1514   31.4265 H         1 7DL         0.0446
     49 H7         39.0693  -23.9140   29.7811 H         1 7DL         0.0265
     50 H8         40.6314  -23.0477   29.9713 H         1 7DL         0.0265
     51 H9         41.0436  -23.3347   27.5466 H         1 7DL         0.0268
     52 H10        39.4277  -24.1035   27.3901 H         1 7DL         0.0268
     53 H11        37.0846  -12.7095   26.3005 H         1 7DL         0.0602
     54 H12        35.0853  -12.4017   27.7267 H         1 7DL         0.0635
     55 H13        35.7057  -16.2743   29.4387 H         1 7DL         0.0642
     56 H14        37.7358  -14.9579   24.0750 H         1 7DL         0.1430
     57 H15        38.0519  -17.5388   27.0752 H         1 7DL         0.0739
     58 H16        38.7330  -19.4098   27.5287 H         1 7DL         0.1871
     59 H17        45.4746  -23.8659   32.3139 H         1 7DL         0.0432
     60 H18        41.7102  -20.2688   26.6340 H         1 7DL         0.2367
     61 H19        42.4048  -23.2262   31.0322 H         1 7DL         0.0422
     62 H20        43.5966  -24.5228   31.3861 H         1 7DL         0.0422
     63 H21        40.1743  -25.9373   29.1983 H         1 7DL         0.0265
     64 H22        40.8787  -25.2943   30.7205 H         1 7DL         0.0265
     65 H23        42.1044  -25.4245   27.9606 H         1 7DL         0.0267
     66 H24        42.6390  -26.2300   29.4746 H         1 7DL         0.0267
     67 H25        44.2272  -24.5511   28.9765 H         1 7DL         0.0287
     68 H26        42.9531  -23.3263   28.6551 H         1 7DL         0.0287
     69 H27        47.2605  -23.1246   33.6113 H         1 7DL         0.2274
     70 H28        51.1337  -22.4464   35.2833 H         1 7DL         0.0575
     71 H29        50.7848  -20.8934   34.4510 H         1 7DL         0.0575
     72 H30        51.3555  -22.3104   33.5060 H         1 7DL         0.0575
@<TRIPOS>BOND
     1    1    2 1  
     2    1   26 2  
     3   27    1 am 
     4    2   25 2  
     5    4    3 1  
     6    3    5 1  
     7    3   27 1  
     8   30    4 1  
     9    4   33 2  
    10    5   11 1  
    11    6    7 ar 
    12    6   10 ar 
    13   32    6 1  
    14    7    8 ar 
    15    8   28 ar 
    16   11    9 1  
    17    9   35 1  
    18   10   29 ar 
    19   10   34 1  
    20   16   12 1  
    21   31   13 1  
    22   14   15 ar 
    23   19   14 ar 
    24   16   15 ar 
    25   17   16 ar 
    26   18   17 ar 
    27   18   19 ar 
    28   25   18 1  
    29   19   20 1  
    30   20   21 1  
    31   20   24 1  
    32   21   22 2  
    33   23   22 1  
    34   24   23 2  
    35   29   28 ar 
    36   28   38 1  
    37   31   30 1  
    38   31   32 2  
    39   32   33 1  
    40   34   37 1  
    41   35   36 1  
    42   36   37 1  
    43   38   39 am 
    44   39   40 1  
    45   39   41 2  
    46   40   42 1  
    47    2   43 1  
    48    3   44 1  
    49    5   45 1  
    50    5   46 1  
    51    7   47 1  
    52    8   48 1  
    53    9   49 1  
    54    9   50 1  
    55   11   51 1  
    56   11   52 1  
    57   14   53 1  
    58   15   54 1  
    59   17   55 1  
    60   21   56 1  
    61   25   57 1  
    62   27   58 1  
    63   29   59 1  
    64   30   60 1  
    65   34   61 1  
    66   34   62 1  
    67   35   63 1  
    68   35   64 1  
    69   36   65 1  
    70   36   66 1  
    71   37   67 1  
    72   37   68 1  
    73   38   69 1  
    74   42   70 1  
    75   42   71 1  
    76   42   72 1  
@<TRIPOS>SUBSTRUCTURE
     1 7DL         1

