### 
### Created by X-TOOL on Mon Sep 10 21:13:31 2018
### 

@<TRIPOS>MOLECULE
5tkt_ligand
   68    72     1     0     0
SMALL
GAST_HUCK


@<TRIPOS>ATOM
      1 C13        37.7230  -16.9960   28.0500 C.2       1 7DS        -0.0388
      2 C18        39.5890  -20.8980   28.5600 C.3       1 7DS         0.1229
      3 C15        38.9890  -18.6990   29.4170 C.2       1 7DS         0.1911
      4 C19        41.0930  -20.8370   28.5930 C.2       1 7DS         0.1393
      5 C20        39.1350  -21.9030   27.4920 C.3       1 7DS         0.0028
      6 C21        44.2260  -21.4850   30.1240 C.ar      1 7DS        -0.0212
      7 C22        45.3760  -20.6890   30.1520 C.ar      1 7DS        -0.0842
      8 C23        46.4040  -20.9510   31.0440 C.ar      1 7DS        -0.0583
      9 C24        46.3100  -22.0260   31.9300 C.ar      1 7DS         0.0525
     10 C34        40.5230  -25.2420   29.0950 C.3       1 7DS        -0.0190
     11 C33        39.8890  -23.9000   28.8910 C.2       1 7DS        -0.0962
     12 CL1        33.8210  -14.0160   29.6510 Cl        1 7DS        -0.0754
     13 C2         36.7590  -13.4890   26.9900 C.ar      1 7DS        -0.0176
     14 C3         35.6500  -13.2750   27.7990 C.ar      1 7DS        -0.0476
     15 C4         35.2250  -14.2810   28.6450 C.ar      1 7DS         0.0380
     16 C5         35.8790  -15.4960   28.7060 C.ar      1 7DS        -0.0382
     17 C6         36.9990  -15.7280   27.8880 C.ar      1 7DS         0.0262
     18 C7         37.4240  -14.7150   27.0140 C.ar      1 7DS         0.1410
     19 N8         38.5200  -14.9320   26.1220 N.pl3     1 7DS        -0.0913
     20 C9         38.6020  -14.9460   24.7870 C.2       1 7DS         0.1690
     21 N10        39.8110  -15.2700   24.4240 N.2       1 7DS        -0.2058
     22 N11        40.5010  -15.4550   25.5760 N.2       1 7DS        -0.1365
     23 N12        39.7420  -15.2550   26.6080 N.2       1 7DS        -0.0466
     24 C14        38.2610  -17.4300   29.1900 C.2       1 7DS         0.0072
     25 O16        39.6300  -18.9140   30.4530 O.2       1 7DS        -0.3927
     26 N17        38.9810  -19.5770   28.3930 N.am      1 7DS        -0.2673
     27 C25        45.1900  -22.8520   31.8850 C.ar      1 7DS        -0.0236
     28 C26        44.1500  -22.5950   31.0010 C.ar      1 7DS         0.0584
     29 N27        41.8580  -20.5930   27.5090 N.pl3     1 7DS        -0.2632
     30 C28        43.1590  -20.7650   27.8790 C.2       1 7DS         0.0292
     31 C29        43.1410  -21.1140   29.1990 C.2       1 7DS        -0.0044
     32 N30        41.8270  -21.1480   29.6450 N.2       1 7DS        -0.3325
     33 N31        43.0300  -23.4660   30.9770 N.am      1 7DS        -0.2366
     34 C32        39.7210  -23.2770   27.7100 C.2       1 7DS        -0.0938
     35 C35        41.5750  -25.2450   30.2240 C.3       1 7DS         0.0498
     36 C36        42.6980  -24.2670   29.9420 C.2       1 7DS         0.2056
     37 N37        47.3270  -22.4230   32.8400 N.am      1 7DS        -0.2133
     38 C38        48.6190  -22.0030   32.8560 C.2       1 7DS         0.3495
     39 O39        49.2290  -22.4560   33.9700 O.3       1 7DS        -0.2623
     40 O40        49.1590  -21.3310   32.0030 O.2       1 7DS        -0.3669
     41 C41        50.6470  -22.1650   34.0950 C.3       1 7DS         0.0668
     42 O42        43.2580  -24.2170   28.8520 O.2       1 7DS        -0.3844
     43 H1         37.8283  -17.6303   27.1711 H         1 7DS         0.0739
     44 H2         39.2533  -21.2816   29.5347 H         1 7DS         0.0816
     45 H3         39.4516  -21.5364   26.5044 H         1 7DS         0.0438
     46 H4         38.0380  -21.9780   27.5209 H         1 7DS         0.0438
     47 H5         45.4645  -19.8546   29.4657 H         1 7DS         0.0509
     48 H6         47.2845  -20.3188   31.0538 H         1 7DS         0.0383
     49 H7         41.0133  -25.5444   28.1579 H         1 7DS         0.0413
     50 H8         39.7355  -25.9673   29.3475 H         1 7DS         0.0413
     51 H9         39.5315  -23.3814   29.7794 H         1 7DS         0.0451
     52 H10        37.1096  -12.6986   26.3363 H         1 7DS         0.0602
     53 H11        35.1234  -12.3280   27.7667 H         1 7DS         0.0635
     54 H12        35.5301  -16.2681   29.3822 H         1 7DS         0.0642
     55 H13        37.7824  -14.7207   24.1063 H         1 7DS         0.1430
     56 H14        38.1525  -16.7757   30.0537 H         1 7DS         0.0628
     57 H15        38.5604  -19.3258   27.5212 H         1 7DS         0.1872
     58 H16        45.1289  -23.7069   32.5487 H         1 7DS         0.0370
     59 H17        41.5210  -20.3257   26.5731 H         1 7DS         0.2370
     60 H18        44.0381  -20.6474   27.2471 H         1 7DS         0.0770
     61 H19        42.4432  -23.4882   31.7865 H         1 7DS         0.2263
     62 H20        40.0403  -23.8192   26.8212 H         1 7DS         0.0453
     63 H21        41.9972  -26.2566   30.3160 H         1 7DS         0.0528
     64 H22        41.0860  -24.9644   31.1685 H         1 7DS         0.0528
     65 H23        47.0633  -23.0823   33.5441 H         1 7DS         0.2271
     66 H24        51.0254  -22.5840   35.0391 H         1 7DS         0.0575
     67 H25        50.7996  -21.0757   34.0901 H         1 7DS         0.0575
     68 H26        51.1895  -22.6151   33.2506 H         1 7DS         0.0575
@<TRIPOS>BOND
     1    1   17 1  
     2   24    1 2  
     3    4    2 1  
     4    2    5 1  
     5    2   26 1  
     6    3   24 1  
     7    3   25 2  
     8   26    3 am 
     9   29    4 1  
    10    4   32 2  
    11    5   34 1  
    12    6    7 ar 
    13    6   28 ar 
    14   31    6 1  
    15    7    8 ar 
    16    8    9 ar 
    17   27    9 ar 
    18    9   37 1  
    19   11   10 1  
    20   10   35 1  
    21   34   11 2  
    22   15   12 1  
    23   13   14 ar 
    24   18   13 ar 
    25   15   14 ar 
    26   16   15 ar 
    27   17   16 ar 
    28   17   18 ar 
    29   18   19 1  
    30   19   20 1  
    31   19   23 1  
    32   20   21 2  
    33   22   21 1  
    34   23   22 2  
    35   28   27 ar 
    36   28   33 1  
    37   30   29 1  
    38   30   31 2  
    39   31   32 1  
    40   33   36 am 
    41   35   36 1  
    42   36   42 2  
    43   37   38 am 
    44   38   39 1  
    45   38   40 2  
    46   39   41 1  
    47    1   43 1  
    48    2   44 1  
    49    5   45 1  
    50    5   46 1  
    51    7   47 1  
    52    8   48 1  
    53   10   49 1  
    54   10   50 1  
    55   11   51 1  
    56   13   52 1  
    57   14   53 1  
    58   16   54 1  
    59   20   55 1  
    60   24   56 1  
    61   26   57 1  
    62   27   58 1  
    63   29   59 1  
    64   30   60 1  
    65   33   61 1  
    66   34   62 1  
    67   35   63 1  
    68   35   64 1  
    69   37   65 1  
    70   41   66 1  
    71   41   67 1  
    72   41   68 1  
@<TRIPOS>SUBSTRUCTURE
     1 7DS         1

