### 
### Created by X-TOOL on Mon Sep 10 21:13:31 2018
### 

@<TRIPOS>MOLECULE
5tku_ligand
   70    74     1     0     0
SMALL
GAST_HUCK


@<TRIPOS>ATOM
      1 C13        37.7390  -17.0010   28.0280 C.2       1 7DK        -0.0388
      2 C18        39.6760  -20.8890   28.5390 C.3       1 7DK         0.1165
      3 C15        39.0410  -18.7010   29.3880 C.2       1 7DK         0.1910
      4 C19        41.1780  -20.8100   28.5630 C.2       1 7DK         0.1375
      5 C20        39.2030  -21.9010   27.4870 C.3       1 7DK        -0.0138
      6 C21        44.2930  -21.4690   30.1060 C.ar      1 7DK        -0.0212
      7 C22        45.4430  -20.6720   30.1450 C.ar      1 7DK        -0.0842
      8 C23        46.4730  -20.9460   31.0300 C.ar      1 7DK        -0.0583
      9 C24        46.3770  -22.0290   31.9070 C.ar      1 7DK         0.0525
     10 C34        40.6210  -25.2480   29.1180 C.3       1 7DK        -0.0356
     11 C33        39.8620  -23.9270   29.0360 C.3       1 7DK        -0.0507
     12 CL1        33.8140  -14.0140   29.5720 Cl        1 7DK        -0.0754
     13 C2         36.7560  -13.5100   26.9100 C.ar      1 7DK        -0.0176
     14 C3         35.6370  -13.2940   27.7060 C.ar      1 7DK        -0.0476
     15 C4         35.2190  -14.2880   28.5680 C.ar      1 7DK         0.0380
     16 C5         35.8880  -15.4950   28.6580 C.ar      1 7DK        -0.0382
     17 C6         37.0220  -15.7260   27.8590 C.ar      1 7DK         0.0262
     18 C7         37.4430  -14.7230   26.9680 C.ar      1 7DK         0.1410
     19 N8         38.5320  -14.9480   26.0670 N.pl3     1 7DK        -0.0913
     20 C9         38.6040  -14.9390   24.7290 C.2       1 7DK         0.1690
     21 N10        39.8030  -15.2880   24.3510 N.2       1 7DK        -0.2058
     22 N11        40.4960  -15.5140   25.4970 N.2       1 7DK        -0.1365
     23 N12        39.7470  -15.3160   26.5380 N.2       1 7DK        -0.0466
     24 C14        38.2750  -17.4510   29.1690 C.2       1 7DK         0.0072
     25 O16        39.6730  -18.9130   30.4290 O.2       1 7DK        -0.3927
     26 N17        39.0710  -19.5690   28.3570 N.am      1 7DK        -0.2688
     27 C25        45.2490  -22.8440   31.8630 C.ar      1 7DK        -0.0236
     28 C26        44.2110  -22.5800   30.9810 C.ar      1 7DK         0.0584
     29 N27        41.9370  -20.6020   27.4680 N.pl3     1 7DK        -0.2633
     30 C28        43.2380  -20.7840   27.8330 C.2       1 7DK         0.0292
     31 C29        43.2220  -21.1050   29.1620 C.2       1 7DK        -0.0044
     32 N30        41.9180  -21.1030   29.6170 N.2       1 7DK        -0.3327
     33 N31        43.0910  -23.4510   30.9510 N.am      1 7DK        -0.2367
     34 C32        39.8400  -23.3100   27.6240 C.3       1 7DK        -0.0485
     35 C35        41.7120  -25.2770   30.1780 C.3       1 7DK         0.0433
     36 C36        42.8120  -24.2750   29.9180 C.2       1 7DK         0.2039
     37 N37        47.4020  -22.4360   32.8040 N.am      1 7DK        -0.2133
     38 C38        48.6920  -22.0020   32.8260 C.2       1 7DK         0.3495
     39 O39        49.3020  -22.4520   33.9390 O.3       1 7DK        -0.2623
     40 O40        49.2290  -21.3180   31.9820 O.2       1 7DK        -0.3669
     41 C41        50.7320  -22.2210   34.0240 C.3       1 7DK         0.0668
     42 O42        43.3890  -24.2180   28.8370 O.2       1 7DK        -0.3846
     43 H1         37.8422  -17.6333   27.1474 H         1 7DK         0.0739
     44 H2         39.3494  -21.2619   29.5210 H         1 7DK         0.0795
     45 H3         39.4529  -21.5053   26.4915 H         1 7DK         0.0315
     46 H4         38.1117  -22.0062   27.5764 H         1 7DK         0.0315
     47 H5         45.5290  -19.8267   29.4718 H         1 7DK         0.0509
     48 H6         47.3564  -20.3179   31.0420 H         1 7DK         0.0383
     49 H7         41.0858  -25.4399   28.1397 H         1 7DK         0.0290
     50 H8         39.8994  -26.0468   29.3442 H         1 7DK         0.0290
     51 H9         40.3386  -23.2099   29.7206 H         1 7DK         0.0267
     52 H10        38.8238  -24.1030   29.3539 H         1 7DK         0.0267
     53 H11        37.0975  -12.7300   26.2391 H         1 7DK         0.0602
     54 H12        35.0983  -12.3550   27.6504 H         1 7DK         0.0635
     55 H13        35.5395  -16.2603   29.3420 H         1 7DK         0.0642
     56 H14        37.7858  -14.6797   24.0587 H         1 7DK         0.1430
     57 H15        38.1304  -16.8206   30.0451 H         1 7DK         0.0628
     58 H16        38.6818  -19.3122   27.4724 H         1 7DK         0.1870
     59 H17        45.1807  -23.6975   32.5278 H         1 7DK         0.0370
     60 H18        41.5965  -20.3517   26.5287 H         1 7DK         0.2370
     61 H19        44.1148  -20.6921   27.1937 H         1 7DK         0.0770
     62 H20        42.4743  -23.4548   31.7382 H         1 7DK         0.2263
     63 H21        40.8808  -23.2403   27.2748 H         1 7DK         0.0268
     64 H22        39.2789  -23.9941   26.9704 H         1 7DK         0.0268
     65 H23        42.1532  -26.2844   30.2000 H         1 7DK         0.0508
     66 H24        41.2581  -25.0540   31.1549 H         1 7DK         0.0508
     67 H25        47.1479  -23.1144   33.4933 H         1 7DK         0.2271
     68 H26        51.1138  -22.6302   34.9710 H         1 7DK         0.0575
     69 H27        50.9318  -21.1400   33.9847 H         1 7DK         0.0575
     70 H28        51.2344  -22.7177   33.1809 H         1 7DK         0.0575
@<TRIPOS>BOND
     1    1   17 1  
     2   24    1 2  
     3    4    2 1  
     4    2    5 1  
     5    2   26 1  
     6    3   24 1  
     7    3   25 2  
     8   26    3 am 
     9   29    4 1  
    10    4   32 2  
    11    5   34 1  
    12    6    7 ar 
    13    6   28 ar 
    14   31    6 1  
    15    7    8 ar 
    16    8    9 ar 
    17   27    9 ar 
    18    9   37 1  
    19   11   10 1  
    20   10   35 1  
    21   34   11 1  
    22   15   12 1  
    23   13   14 ar 
    24   18   13 ar 
    25   15   14 ar 
    26   16   15 ar 
    27   17   16 ar 
    28   17   18 ar 
    29   18   19 1  
    30   19   20 1  
    31   19   23 1  
    32   20   21 2  
    33   22   21 1  
    34   23   22 2  
    35   28   27 ar 
    36   28   33 1  
    37   30   29 1  
    38   30   31 2  
    39   31   32 1  
    40   33   36 am 
    41   35   36 1  
    42   36   42 2  
    43   37   38 am 
    44   38   39 1  
    45   38   40 2  
    46   39   41 1  
    47    1   43 1  
    48    2   44 1  
    49    5   45 1  
    50    5   46 1  
    51    7   47 1  
    52    8   48 1  
    53   10   49 1  
    54   10   50 1  
    55   11   51 1  
    56   11   52 1  
    57   13   53 1  
    58   14   54 1  
    59   16   55 1  
    60   20   56 1  
    61   24   57 1  
    62   26   58 1  
    63   27   59 1  
    64   29   60 1  
    65   30   61 1  
    66   33   62 1  
    67   34   63 1  
    68   34   64 1  
    69   35   65 1  
    70   35   66 1  
    71   37   67 1  
    72   41   68 1  
    73   41   69 1  
    74   41   70 1  
@<TRIPOS>SUBSTRUCTURE
     1 7DK         1

