### 
### Created by X-TOOL on Mon Sep 10 21:13:30 2018
### 

@<TRIPOS>MOLECULE
5tl9_ligand
   70    74     1     0     0
SMALL
GAST_HUCK


@<TRIPOS>ATOM
      1 O1          6.1520  -22.4590   33.2980 O.co2     1 7DN        -0.5630
      2 C7          8.8780  -16.7920   22.8400 C.ar      1 7DN        -0.0421
      3 O2          7.2860  -24.1670   32.3880 O.co2     1 7DN        -0.5630
      4 C6          8.5370  -16.7660   24.1970 C.ar      1 7DN        -0.0103
      5 C1          7.8030  -15.3850   29.0770 C.3       1 7DN         0.0523
      6 N1          8.3980  -14.3930   24.1360 N.ar      1 7DN        -0.2924
      7 C5          8.2940  -15.5450   24.8480 C.ar      1 7DN         0.1115
      8 C4          8.0750  -14.1440   26.8760 C.3       1 7DN         0.0332
      9 C3          7.1400  -16.4600   26.8720 C.3       1 7DN         0.0332
     10 C2          7.6970  -16.6950   28.2760 C.3       1 7DN        -0.0127
     11 O           9.6530  -15.8250   30.5750 O.2       1 7DN        -0.3968
     12 C15         8.4430  -15.7480   30.4030 C.2       1 7DN         0.1794
     13 N2          7.5070  -16.0150   31.3760 N.am      1 7DN        -0.2834
     14 C16         7.8830  -16.4520   32.7200 C.3       1 7DN         0.0450
     15 C29         7.5330  -15.4390   33.8080 C.3       1 7DN        -0.0296
     16 C28         6.1590  -15.8280   34.3350 C.3       1 7DN        -0.0506
     17 C27         5.8930  -17.2570   33.8750 C.3       1 7DN        -0.0479
     18 C17         7.1370  -17.7420   33.1330 C.3       1 7DN        -0.0161
     19 C18         6.7560  -18.6830   31.9880 C.3       1 7DN        -0.0378
     20 C19         7.4870  -20.0230   31.9740 C.3       1 7DN        -0.0164
     21 C20         7.0690  -20.9310   30.8270 C.ar      1 7DN        -0.0284
     22 C21         7.0430  -20.3850   29.5150 C.ar      1 7DN        -0.0565
     23 C22         6.6790  -21.1540   28.4010 C.ar      1 7DN        -0.0659
     24 C23         6.3320  -22.4940   28.5670 C.ar      1 7DN        -0.0651
     25 C24         6.3550  -23.0630   29.8470 C.ar      1 7DN        -0.0542
     26 C25         6.7220  -22.3070   30.9940 C.ar      1 7DN         0.0116
     27 C26         6.7080  -23.0410   32.3220 C.2       1 7DN         0.0586
     28 C           8.5940  -14.3020   28.3090 C.3       1 7DN        -0.0127
     29 N           7.9580  -15.4510   26.1890 N.pl3     1 7DN        -0.2919
     30 C8          8.9750  -15.5920   22.1240 C.ar      1 7DN        -0.0090
     31 C9          8.7220  -14.3800   22.8230 C.ar      1 7DN         0.0331
     32 C13         9.3180  -15.5690   20.7560 C.ar      1 7DN        -0.0604
     33 C12         9.4030  -14.3480   20.0770 C.ar      1 7DN        -0.0697
     34 C11         9.1480  -13.1480   20.7510 C.ar      1 7DN        -0.0607
     35 C10         8.8060  -13.1550   22.1240 C.ar      1 7DN        -0.0289
     36 C14         8.5270  -11.8550   22.8400 C.3       1 7DN        -0.0296
     37 H1          9.0664  -17.7376   22.3446 H         1 7DN         0.0741
     38 H2          8.4598  -17.6951   24.7501 H         1 7DN         0.0645
     39 H3          6.7918  -14.9945   29.2638 H         1 7DN         0.0539
     40 H4          8.7720  -13.5062   26.3126 H         1 7DN         0.0524
     41 H5          7.0842  -13.6671   26.9061 H         1 7DN         0.0524
     42 H6          6.1015  -16.1044   26.9433 H         1 7DN         0.0524
     43 H7          7.1671  -17.4013   26.3035 H         1 7DN         0.0524
     44 H8          7.0306  -17.3868   28.8119 H         1 7DN         0.0312
     45 H9          8.6984  -17.1422   28.1912 H         1 7DN         0.0312
     46 H10         6.5374  -15.9066   31.1566 H         1 7DN         0.1854
     47 H11         8.9679  -16.6333   32.7265 H         1 7DN         0.0559
     48 H12         7.5047  -14.4233   33.3866 H         1 7DN         0.0287
     49 H13         8.2760  -15.4794   34.6181 H         1 7DN         0.0287
     50 H14         5.3930  -15.1515   33.9281 H         1 7DN         0.0266
     51 H15         6.1474  -15.7766   35.4337 H         1 7DN         0.0266
     52 H16         5.0228  -17.2788   33.2025 H         1 7DN         0.0269
     53 H17         5.7002  -17.9015   34.7453 H         1 7DN         0.0269
     54 H18         7.7780  -18.3092   33.8239 H         1 7DN         0.0325
     55 H19         6.9710  -18.1688   31.0397 H         1 7DN         0.0292
     56 H20         5.6771  -18.8853   32.0591 H         1 7DN         0.0292
     57 H21         7.2807  -20.5420   32.9217 H         1 7DN         0.0435
     58 H22         8.5666  -19.8297   31.8892 H         1 7DN         0.0435
     59 H23         7.3122  -19.3448   29.3719 H         1 7DN         0.0564
     60 H24         6.6674  -20.7080   27.4131 H         1 7DN         0.0621
     61 H25         6.0458  -23.0927   27.7099 H         1 7DN         0.0566
     62 H26         6.0861  -24.1064   29.9660 H         1 7DN         0.0633
     63 H27         9.6553  -14.5893   28.2759 H         1 7DN         0.0312
     64 H28         8.4903  -13.3417   28.8354 H         1 7DN         0.0312
     65 H29         9.5157  -16.4965   20.2308 H         1 7DN         0.0564
     66 H30         9.6672  -14.3316   19.0258 H         1 7DN         0.0581
     67 H31         9.2130  -12.2067   20.2174 H         1 7DN         0.0551
     68 H32         8.2805  -12.0614   23.8920 H         1 7DN         0.0396
     69 H33         7.6796  -11.3454   22.3580 H         1 7DN         0.0396
     70 H34         9.4176  -11.2113   22.7916 H         1 7DN         0.0396
@<TRIPOS>BOND
     1   27    1 ar 
     2    4    2 ar 
     3    2   30 ar 
     4   27    3 ar 
     5    7    4 ar 
     6    5   10 1  
     7   12    5 1  
     8    5   28 1  
     9    7    6 ar 
    10    6   31 ar 
    11   29    7 1  
    12   28    8 1  
    13    8   29 1  
    14   10    9 1  
    15    9   29 1  
    16   12   11 2  
    17   13   12 am 
    18   14   13 1  
    19   14   15 1  
    20   18   14 1  
    21   16   15 1  
    22   17   16 1  
    23   18   17 1  
    24   19   18 1  
    25   20   19 1  
    26   21   20 1  
    27   21   22 ar 
    28   26   21 ar 
    29   22   23 ar 
    30   24   23 ar 
    31   25   24 ar 
    32   26   25 ar 
    33   26   27 1  
    34   30   31 ar 
    35   30   32 ar 
    36   31   35 ar 
    37   32   33 ar 
    38   33   34 ar 
    39   34   35 ar 
    40   35   36 1  
    41    2   37 1  
    42    4   38 1  
    43    5   39 1  
    44    8   40 1  
    45    8   41 1  
    46    9   42 1  
    47    9   43 1  
    48   10   44 1  
    49   10   45 1  
    50   13   46 1  
    51   14   47 1  
    52   15   48 1  
    53   15   49 1  
    54   16   50 1  
    55   16   51 1  
    56   17   52 1  
    57   17   53 1  
    58   18   54 1  
    59   19   55 1  
    60   19   56 1  
    61   20   57 1  
    62   20   58 1  
    63   22   59 1  
    64   23   60 1  
    65   24   61 1  
    66   25   62 1  
    67   28   63 1  
    68   28   64 1  
    69   32   65 1  
    70   33   66 1  
    71   34   67 1  
    72   36   68 1  
    73   36   69 1  
    74   36   70 1  
@<TRIPOS>SUBSTRUCTURE
     1 7DN         1

