### 
### Created by X-TOOL on Mon Sep 10 21:12:44 2018
### 

@<TRIPOS>MOLECULE
5tln_ligand
   44    44     1     0     0
SMALL
GAST_HUCK


@<TRIPOS>ATOM
      1 H1         51.6116   20.8519   -6.1055 H         1 BAN         0.2490
      2 H2         51.3485   19.4318   -4.1994 H         1 BAN         0.2218
      3 H3         54.2500   17.9973   -3.5360 H         1 BAN         0.0796
      4 H4         51.8822   17.3175   -2.4137 H         1 BAN         0.0477
      5 H5         52.3411   19.0074   -2.8143 H         1 BAN         0.0477
      6 OH1        52.3080   20.2090   -6.0410 O.3       1 BAN        -0.2716
      7 N1         52.0920   19.3790   -4.8660 N.am      1 BAN        -0.1619
      8 C1         53.1210   18.5310   -4.8890 C.2       1 BAN         0.2232
      9 O1         54.0270   18.6030   -5.9340 O.2       1 BAN        -0.3931
     10 CA2        53.2570   17.5800   -3.7590 C.3       1 BAN         0.1482
     11 CB2        52.7250   17.9980   -2.6050 C.3       1 BAN         0.0175
     12 CG2        53.4520   18.1170   -1.2700 C.ar      1 BAN        -0.0384
     13 CD1        52.7090   17.7140   -0.2070 C.ar      1 BAN        -0.0600
     14 CD2        54.7020   18.6320   -1.1320 C.ar      1 BAN        -0.0600
     15 CE1        53.2590   17.7950    1.0050 C.ar      1 BAN        -0.0686
     16 CE2        55.2460   18.7080    0.0740 C.ar      1 BAN        -0.0686
     17 CZ2        54.5320   18.2770    1.1450 C.ar      1 BAN        -0.0687
     18 C2         53.7830   16.2760   -3.6710 C.2       1 BAN         0.2026
     19 O2         55.0360   16.1580   -3.6120 O.2       1 BAN        -0.3931
     20 N3         52.7620   15.3060   -3.6670 N.am      1 BAN        -0.2636
     21 CA3        53.2620   13.7940   -3.5870 C.3       1 BAN         0.1281
     22 CB3        52.9030   13.1130   -2.4820 C.3       1 BAN        -0.0244
     23 C3         53.0410   13.2540   -4.9910 C.2       1 BAN         0.2014
     24 O3         52.2520   14.0660   -5.6090 O.2       1 BAN        -0.3945
     25 N4         53.6420   12.1120   -5.4960 N.am      1 BAN        -0.2829
     26 CA4        53.3610   11.8090   -6.8700 C.3       1 BAN         0.0541
     27 C4         53.9040   10.2230   -6.7880 C.3       1 BAN         0.0643
     28 O4         53.0240    9.9590   -5.7980 O.3       1 BAN        -0.3930
     29 H6         51.7008   17.3384   -0.3396 H         1 BAN         0.0557
     30 H7         55.2496   18.9778   -2.0013 H         1 BAN         0.0557
     31 H8         52.6987   17.4796    1.8777 H         1 BAN         0.0599
     32 H9         56.2452   19.1080    0.2032 H         1 BAN         0.0599
     33 H10        54.9795   18.3154    2.1316 H         1 BAN         0.0559
     34 H11        51.7928   15.5482   -3.7112 H         1 BAN         0.1884
     35 H12        54.3559   13.8460   -3.4834 H         1 BAN         0.0797
     36 H13        53.3012   12.0891   -2.5368 H         1 BAN         0.0277
     37 H14        51.8057   13.0765   -2.4141 H         1 BAN         0.0277
     38 H15        53.3089   13.6171   -1.5926 H         1 BAN         0.0277
     39 H16        54.2358   11.5339   -4.9364 H         1 BAN         0.1852
     40 H17        53.9419   12.4250   -7.5722 H         1 BAN         0.0542
     41 H18        52.2913   11.8835   -7.1152 H         1 BAN         0.0542
     42 H19        54.9576   10.1263   -6.4869 H         1 BAN         0.0577
     43 H20        53.7304    9.6432   -7.7065 H         1 BAN         0.0577
     44 H21        53.1140    9.0522   -5.5293 H         1 BAN         0.2095
@<TRIPOS>BOND
     1    6    1 1  
     2    6    7 1  
     3    7    8 am 
     4    8    9 2  
     5    8   10 1  
     6   10   11 1  
     7   10   18 1  
     8   11   12 1  
     9   12   13 ar 
    10   12   14 ar 
    11   13   15 ar 
    12   14   16 ar 
    13   15   17 ar 
    14   16   17 ar 
    15   18   19 2  
    16   18   20 am 
    17   20   21 1  
    18   21   22 1  
    19   21   23 1  
    20   23   24 2  
    21   23   25 am 
    22   25   26 1  
    23   26   27 1  
    24   27   28 1  
    25    7    2 1  
    26   10    3 1  
    27   11    4 1  
    28   11    5 1  
    29   13   29 1  
    30   14   30 1  
    31   15   31 1  
    32   16   32 1  
    33   17   33 1  
    34   20   34 1  
    35   21   35 1  
    36   22   36 1  
    37   22   37 1  
    38   22   38 1  
    39   25   39 1  
    40   26   40 1  
    41   26   41 1  
    42   27   42 1  
    43   27   43 1  
    44   28   44 1  
@<TRIPOS>SUBSTRUCTURE
     1 BAN         1

