### 
### Created by X-TOOL on Mon Sep 10 21:13:30 2018
### 

@<TRIPOS>MOLECULE
5tnt_ligand
   54    59     1     0     0
SMALL
GAST_HUCK


@<TRIPOS>ATOM
      1 CL1       -10.6150  -34.0170   -7.2810 Cl        1 7GQ        -0.0766
      2 C19       -11.7160  -34.3470   -8.5960 C.ar      1 7GQ         0.0499
      3 C18       -13.0880  -34.0550   -8.5340 C.ar      1 7GQ         0.0674
      4 C21       -14.1090  -33.4990   -7.6460 C.2       1 7GQ         0.1308
      5 N7        -13.9600  -33.1740   -6.3560 N.pl3     1 7GQ        -0.3300
      6 N6        -15.2780  -33.5000   -8.2250 N.2       1 7GQ        -0.1399
      7 O1        -15.1390  -34.1010   -9.5070 O.3       1 7GQ        -0.1813
      8 C17       -13.8310  -34.4120   -9.6720 C.ar      1 7GQ         0.1992
      9 C20       -11.2420  -34.9500   -9.7640 C.ar      1 7GQ        -0.0068
     10 N5        -11.9580  -35.2980  -10.8410 N.ar      1 7GQ        -0.2985
     11 C16       -13.2710  -35.0300  -10.8050 C.ar      1 7GQ         0.1548
     12 N4        -13.9870  -35.4300  -11.9530 N.pl3     1 7GQ        -0.2876
     13 C15       -13.3120  -36.0860  -13.1350 C.3       1 7GQ         0.0347
     14 C11       -14.4900  -36.3340  -14.0760 C.3       1 7GQ         0.0043
     15 C14       -15.4270  -35.2840  -12.2260 C.3       1 7GQ         0.0636
     16 C13       -15.2720  -34.1710  -13.2750 C.3       1 7GQ        -0.0274
     17 C12       -14.7260  -34.8880  -14.5420 C.3       1 7GQ        -0.0440
     18 C10       -15.6410  -36.5300  -13.0980 C.3       1 7GQ         0.0688
     19 N3        -15.5240  -37.7360  -12.2880 N.am      1 7GQ        -0.2817
     20 C9        -15.5300  -38.9720  -12.8130 C.2       1 7GQ         0.2000
     21 O         -15.6700  -39.1810  -14.0200 O.2       1 7GQ        -0.3882
     22 C6        -15.3640  -40.1150  -11.8580 C.ar      1 7GQ         0.0560
     23 C5        -16.3270  -41.1210  -11.8630 C.ar      1 7GQ        -0.0458
     24 C4        -16.1990  -42.2350  -11.0590 C.ar      1 7GQ        -0.0198
     25 C7        -14.2600  -40.2700  -11.0150 C.ar      1 7GQ         0.0565
     26 CL        -12.9440  -39.1280  -11.0720 Cl        1 7GQ        -0.0666
     27 C8        -14.1300  -41.3740  -10.1870 C.ar      1 7GQ        -0.0061
     28 C3        -15.1110  -42.3750  -10.2030 C.ar      1 7GQ         0.1186
     29 N1        -15.0190  -43.5380   -9.3680 N.pl3     1 7GQ        -0.1405
     30 C2        -14.6660  -43.6710   -8.0810 C.2       1 7GQ         0.1405
     31 N         -14.7770  -44.9190   -7.6700 N.2       1 7GQ        -0.2800
     32 N2        -15.3770  -44.7590   -9.8700 N.2       1 7GQ        -0.1880
     33 C1        -15.2010  -45.5380   -8.8220 C.2       1 7GQ         0.0737
     34 C         -15.3990  -47.0120   -8.8900 C.3       1 7GQ        -0.0123
     35 H1        -14.7549  -32.7876   -5.8271 H         1 7GQ         0.1698
     36 H2        -13.0504  -33.3103   -5.8923 H         1 7GQ         0.1698
     37 H3        -10.1790  -35.1589   -9.8026 H         1 7GQ         0.0665
     38 H4        -12.8266  -37.0295  -12.8451 H         1 7GQ         0.0523
     39 H5        -12.5687  -35.4168  -13.5929 H         1 7GQ         0.0523
     40 H6        -14.3634  -37.1028  -14.8524 H         1 7GQ         0.0343
     41 H7        -16.1187  -35.1214  -11.3863 H         1 7GQ         0.0578
     42 H8        -14.5616  -33.4070  -12.9264 H         1 7GQ         0.0288
     43 H9        -16.2433  -33.6997  -13.4855 H         1 7GQ         0.0288
     44 H10       -15.4627  -34.8552  -15.3582 H         1 7GQ         0.0270
     45 H11       -13.7856  -34.4267  -14.8780 H         1 7GQ         0.0270
     46 H12       -16.6149  -36.5235  -13.6093 H         1 7GQ         0.0581
     47 H13       -15.4353  -37.6387  -11.2967 H         1 7GQ         0.1846
     48 H14       -17.1920  -41.0273  -12.5096 H         1 7GQ         0.0651
     49 H15       -16.9554  -43.0107  -11.0947 H         1 7GQ         0.0598
     50 H16       -13.2728  -41.4629   -9.5295 H         1 7GQ         0.0602
     51 H17       -14.3288  -42.8485   -7.4520 H         1 7GQ         0.1376
     52 H18       -15.1978  -47.4549   -7.9034 H         1 7GQ         0.0408
     53 H19       -14.7093  -47.4408   -9.6319 H         1 7GQ         0.0408
     54 H20       -16.4362  -47.2295   -9.1848 H         1 7GQ         0.0408
@<TRIPOS>BOND
     1    1    2 1  
     2    2    3 ar 
     3    2    9 ar 
     4    3    4 1  
     5    3    8 ar 
     6    4    5 1  
     7    4    6 2  
     8    6    7 1  
     9    7    8 1  
    10    8   11 ar 
    11    9   10 ar 
    12   10   11 ar 
    13   11   12 1  
    14   12   13 1  
    15   12   15 1  
    16   13   14 1  
    17   14   17 1  
    18   14   18 1  
    19   15   16 1  
    20   15   18 1  
    21   16   17 1  
    22   18   19 1  
    23   19   20 am 
    24   20   21 2  
    25   20   22 1  
    26   22   23 ar 
    27   22   25 ar 
    28   23   24 ar 
    29   24   28 ar 
    30   25   26 1  
    31   25   27 ar 
    32   27   28 ar 
    33   28   29 1  
    34   29   30 1  
    35   29   32 1  
    36   30   31 2  
    37   31   33 1  
    38   32   33 2  
    39   33   34 1  
    40    5   35 1  
    41    5   36 1  
    42    9   37 1  
    43   13   38 1  
    44   13   39 1  
    45   14   40 1  
    46   15   41 1  
    47   16   42 1  
    48   16   43 1  
    49   17   44 1  
    50   17   45 1  
    51   18   46 1  
    52   19   47 1  
    53   23   48 1  
    54   24   49 1  
    55   27   50 1  
    56   30   51 1  
    57   34   52 1  
    58   34   53 1  
    59   34   54 1  
@<TRIPOS>SUBSTRUCTURE
     1 7GQ         1

