### 
### Created by X-TOOL on Mon Sep 10 21:13:29 2018
### 

@<TRIPOS>MOLECULE
5to8_ligand
   63    67     1     0     0
SMALL
GAST_HUCK


@<TRIPOS>ATOM
      1 C10        -2.0610  -10.3590   40.5700 C.ar      1 7FM        -0.0479
      2 C13        -3.1170  -11.7950   42.6720 C.ar      1 7FM        -0.0355
      3 C17        -3.8640  -12.6100   43.6800 C.2       1 7FM        -0.0683
      4 C20        -0.6970  -10.3290   36.5750 C.ar      1 7FM         0.0267
      5 C21        -1.8210  -10.9080   35.9890 C.ar      1 7FM         0.1413
      6 C24        -1.6600   -8.1940   35.9530 C.ar      1 7FM        -0.0599
      7 N01         2.0300   -9.0340   41.4650 N.ar      1 7FM        -0.2278
      8 C02         0.9390   -9.6680   41.0120 C.ar      1 7FM         0.2262
      9 N03         0.7980  -10.0800   39.7250 N.ar      1 7FM        -0.2081
     10 C04         1.7720   -9.8430   38.8300 C.ar      1 7FM         0.1512
     11 C05         2.9200   -9.1930   39.2330 C.ar      1 7FM         0.0977
     12 C06         2.9910   -8.8020   40.5580 C.ar      1 7FM         0.0372
     13 C07         4.0340   -8.8690   38.3150 C.3       1 7FM         0.3620
     14 N08        -0.0830   -9.8810   41.9510 N.pl3     1 7FM        -0.2352
     15 C09        -1.3380  -10.4670   41.7760 C.ar      1 7FM         0.0563
     16 C11        -3.3020  -10.9670   40.4240 C.ar      1 7FM        -0.0431
     17 C12        -3.8290  -11.6870   41.4760 C.ar      1 7FM         0.0884
     18 C14        -1.8800  -11.1950   42.8370 C.ar      1 7FM        -0.0524
     19 N15        -5.0400  -12.4130   41.5840 N.am      1 7FM        -0.1811
     20 C16        -5.2460  -12.6990   43.0180 C.2       1 7FM         0.0503
     21 N18         1.5160  -10.2930   37.5490 N.pl3     1 7FM        -0.2750
     22 C19         0.4060  -11.1430   37.2090 C.3       1 7FM         0.0717
     23 N22        -2.8420  -10.2200   35.4050 N.ar      1 7FM        -0.2978
     24 C23        -2.7360   -8.8690   35.4000 C.ar      1 7FM        -0.0178
     25 C25        -0.6240   -8.9330   36.5380 C.ar      1 7FM        -0.0548
     26 N26        -1.9670  -12.3410   35.9950 N.am      1 7FM        -0.1632
     27 C27        -2.5680  -13.0870   37.1550 C.3       1 7FM         0.0583
     28 S28        -1.4690  -13.1930   34.5670 S.o2      1 7FM         0.0616
     29 C29        -4.0440  -12.7310   37.3480 C.3       1 7FM        -0.0272
     30 C30        -5.9670  -12.8650   40.6430 C.2       1 7FM         0.2456
     31 O31        -6.9720  -13.5050   40.9690 O.2       1 7FM        -0.3603
     32 C32        -4.6200  -13.4130   38.5900 C.3       1 7FM        -0.0325
     33 C33        -5.8010  -12.6200   39.1510 C.3       1 7FM         0.0537
     34 O34        -0.5520  -12.3690   33.7940 O.2       1 7FM        -0.1495
     35 O35        -1.1430  -14.5640   34.8900 O.2       1 7FM        -0.1495
     36 C36        -3.0530  -13.2140   33.7590 C.3       1 7FM         0.0794
     37 F37         5.0490   -8.1440   38.8710 F         1 7FM        -0.2414
     38 F38         4.6120   -9.9430   37.7390 F         1 7FM        -0.2414
     39 F39         3.5350   -8.1080   37.3100 F         1 7FM        -0.2414
     40 H1         -1.6427   -9.7936   39.7451 H         1 7FM         0.0480
     41 H2         -3.5207  -13.0266   44.6258 H         1 7FM         0.0233
     42 H3         -1.6205   -7.1109   35.9332 H         1 7FM         0.0543
     43 H4          3.8799   -8.2744   40.8843 H         1 7FM         0.1101
     44 H5          0.1230   -9.5582   42.9072 H         1 7FM         0.2274
     45 H6         -3.8502  -10.8764   39.4932 H         1 7FM         0.0533
     46 H7         -1.3419  -11.2888   43.7733 H         1 7FM         0.0439
     47 H8         -6.1910  -12.9277   43.5086 H         1 7FM         0.0948
     48 H9          2.1556  -10.0038   36.7952 H         1 7FM         0.2003
     49 H10         0.7423  -11.9141   36.5003 H         1 7FM         0.0690
     50 H11         0.0242  -11.6247   38.1212 H         1 7FM         0.0690
     51 H12        -3.5297   -8.2898   34.9422 H         1 7FM         0.0703
     52 H13         0.2337   -8.4232   36.9617 H         1 7FM         0.0616
     53 H14        -2.0156  -12.8289   38.0705 H         1 7FM         0.0560
     54 H15        -2.4827  -14.1676   36.9676 H         1 7FM         0.0560
     55 H16        -4.6106  -13.0583   36.4638 H         1 7FM         0.0288
     56 H17        -4.1383  -11.6409   37.4611 H         1 7FM         0.0288
     57 H18        -3.8360  -13.4831   39.3584 H         1 7FM         0.0291
     58 H19        -4.9606  -14.4236   38.3204 H         1 7FM         0.0291
     59 H20        -5.6267  -11.5474   38.9804 H         1 7FM         0.0519
     60 H21        -6.7201  -12.9293   38.6318 H         1 7FM         0.0519
     61 H22        -2.9642  -13.7298   32.7915 H         1 7FM         0.0488
     62 H23        -3.3942  -12.1814   33.5940 H         1 7FM         0.0488
     63 H24        -3.7803  -13.7439   34.3916 H         1 7FM         0.0488
@<TRIPOS>BOND
     1   15    1 ar 
     2    1   16 ar 
     3    2    3 1  
     4    2   17 ar 
     5   18    2 ar 
     6    3   20 2  
     7    4    5 ar 
     8   22    4 1  
     9    4   25 ar 
    10    5   23 ar 
    11    5   26 1  
    12    6   24 ar 
    13   25    6 ar 
    14    8    7 ar 
    15   12    7 ar 
    16    9    8 ar 
    17    8   14 1  
    18   10    9 ar 
    19   10   11 ar 
    20   21   10 1  
    21   11   12 ar 
    22   11   13 1  
    23   13   37 1  
    24   13   38 1  
    25   13   39 1  
    26   14   15 1  
    27   15   18 ar 
    28   16   17 ar 
    29   17   19 1  
    30   19   20 1  
    31   19   30 am 
    32   21   22 1  
    33   23   24 ar 
    34   26   27 1  
    35   26   28 am 
    36   27   29 1  
    37   28   34 2  
    38   28   35 2  
    39   28   36 1  
    40   29   32 1  
    41   30   31 2  
    42   30   33 1  
    43   32   33 1  
    44    1   40 1  
    45    3   41 1  
    46    6   42 1  
    47   12   43 1  
    48   14   44 1  
    49   16   45 1  
    50   18   46 1  
    51   20   47 1  
    52   21   48 1  
    53   22   49 1  
    54   22   50 1  
    55   24   51 1  
    56   25   52 1  
    57   27   53 1  
    58   27   54 1  
    59   29   55 1  
    60   29   56 1  
    61   32   57 1  
    62   32   58 1  
    63   33   59 1  
    64   33   60 1  
    65   36   61 1  
    66   36   62 1  
    67   36   63 1  
@<TRIPOS>SUBSTRUCTURE
     1 7FM         1

