### 
### Created by X-TOOL on Mon Sep 10 21:13:33 2018
### 

@<TRIPOS>MOLECULE
5tob_ligand
   55    58     1     0     0
SMALL
GAST_HUCK


@<TRIPOS>ATOM
      1 C35        -1.6340  -12.3720   37.4330 C.3       1 YAM         0.0470
      2 C34        -1.7980  -12.3380   33.9850 C.3       1 YAM         0.0794
      3 N2          3.2650   -8.8830   41.4420 N.ar      1 YAM        -0.2282
      4 C7          4.2310   -8.5550   40.5630 C.ar      1 YAM         0.0368
      5 C6          4.1710   -8.8430   39.2080 C.ar      1 YAM         0.0965
      6 C13         0.5940   -9.7310   36.6130 C.ar      1 YAM         0.0267
      7 C20        -0.6600  -10.2750   36.3090 C.ar      1 YAM         0.1410
      8 C21        -2.7660  -11.1230   41.3600 C.ar      1 YAM         0.0648
      9 C8          5.2620   -8.4190   38.2850 C.3       1 YAM         0.3606
     10 C18        -0.3480   -7.5320   36.2250 C.ar      1 YAM        -0.0599
     11 C16        -0.9060  -10.0030   40.4470 C.ar      1 YAM        -0.0524
     12 C19        -1.5480   -8.1720   35.9330 C.ar      1 YAM        -0.0178
     13 O33         0.7510  -12.0470   34.3070 O.2       1 YAM        -0.1495
     14 S31        -0.3620  -12.6800   35.0020 S.o2      1 YAM         0.0614
     15 O32        -0.3820  -14.0880   35.3210 O.2       1 YAM        -0.1495
     16 N30        -0.8880  -11.7280   36.3290 N.am      1 YAM        -0.1662
     17 C17         0.7350   -8.3310   36.5690 C.ar      1 YAM        -0.0548
     18 N1         -1.7330   -9.5100   35.9670 N.ar      1 YAM        -0.2978
     19 C12         1.7620  -10.5970   36.9830 C.3       1 YAM         0.0716
     20 N10         2.8720   -9.7760   37.4100 N.pl3     1 YAM        -0.2752
     21 C5          3.0140   -9.4770   38.7580 C.ar      1 YAM         0.1506
     22 F29         4.7720   -7.5920   37.3110 F         1 YAM        -0.2427
     23 F28         6.2060   -7.6350   38.8770 F         1 YAM        -0.2427
     24 F27         5.8980   -9.4440   37.6670 F         1 YAM        -0.2427
     25 N4          2.0340   -9.8190   39.6250 N.ar      1 YAM        -0.2087
     26 C3          2.1780   -9.5040   40.9320 C.ar      1 YAM         0.2256
     27 N9          1.1670   -9.8200   41.8350 N.pl3     1 YAM        -0.2364
     28 C11        -0.1590  -10.2380   41.6320 C.ar      1 YAM         0.0560
     29 C14        -0.7570  -10.9480   42.6890 C.ar      1 YAM        -0.0419
     30 C22        -2.0530  -11.3680   42.5260 C.ar      1 YAM        -0.0067
     31 C23        -2.9040  -12.1270   43.4880 C.3       1 YAM         0.0702
     32 C15        -2.2230  -10.4420   40.2940 C.ar      1 YAM        -0.0516
     33 N25        -4.0420  -11.6670   41.4730 N.am      1 YAM        -0.2395
     34 C24        -4.2180  -12.2950   42.7140 C.2       1 YAM         0.2072
     35 O26        -5.2060  -12.8810   43.1440 O.2       1 YAM        -0.3895
     36 H1         -1.8897  -11.6177   38.1917 H         1 YAM         0.0524
     37 H2         -1.0102  -13.1545   37.8896 H         1 YAM         0.0524
     38 H3         -2.5567  -12.8224   37.0383 H         1 YAM         0.0524
     39 H4         -1.8151  -11.2700   33.7220 H         1 YAM         0.0488
     40 H5         -2.7113  -12.5929   34.5425 H         1 YAM         0.0488
     41 H6         -1.7488  -12.9410   33.0664 H         1 YAM         0.0488
     42 H7          5.1062   -8.0357   40.9364 H         1 YAM         0.1099
     43 H8         -0.2614   -6.4522   36.1857 H         1 YAM         0.0543
     44 H9         -0.4370   -9.4635   39.6321 H         1 YAM         0.0472
     45 H10        -2.3948   -7.5534   35.6587 H         1 YAM         0.0703
     46 H11         1.6903   -7.8757   36.8040 H         1 YAM         0.0616
     47 H12         2.0648  -11.1926   36.1092 H         1 YAM         0.0690
     48 H13         1.4708  -11.2703   37.8027 H         1 YAM         0.0690
     49 H14         3.5496   -9.4170   36.7223 H         1 YAM         0.2002
     50 H15         1.4382   -9.7321   42.8248 H         1 YAM         0.2274
     51 H16        -0.2117  -11.1565   43.6024 H         1 YAM         0.0462
     52 H17        -3.0599  -11.5567   44.4156 H         1 YAM         0.0646
     53 H18        -2.4575  -13.1031   43.7284 H         1 YAM         0.0646
     54 H19        -2.7862  -10.2568   39.3865 H         1 YAM         0.0470
     55 H20        -4.7426  -11.6165   40.7612 H         1 YAM         0.2234
@<TRIPOS>BOND
     1   16    1 1  
     2   14    2 1  
     3    3    4 ar 
     4   26    3 ar 
     5    4    5 ar 
     6    5    9 1  
     7   21    5 ar 
     8    6    7 ar 
     9    6   17 ar 
    10   19    6 1  
    11    7   16 1  
    12    7   18 ar 
    13    8   30 ar 
    14   32    8 ar 
    15    8   33 1  
    16    9   22 1  
    17    9   23 1  
    18    9   24 1  
    19   10   12 ar 
    20   17   10 ar 
    21   28   11 ar 
    22   11   32 ar 
    23   18   12 ar 
    24   14   13 2  
    25   14   15 2  
    26   16   14 am 
    27   20   19 1  
    28   21   20 1  
    29   25   21 ar 
    30   26   25 ar 
    31   27   26 1  
    32   27   28 1  
    33   28   29 ar 
    34   29   30 ar 
    35   30   31 1  
    36   31   34 1  
    37   33   34 am 
    38   34   35 2  
    39    1   36 1  
    40    1   37 1  
    41    1   38 1  
    42    2   39 1  
    43    2   40 1  
    44    2   41 1  
    45    4   42 1  
    46   10   43 1  
    47   11   44 1  
    48   12   45 1  
    49   17   46 1  
    50   19   47 1  
    51   19   48 1  
    52   20   49 1  
    53   27   50 1  
    54   29   51 1  
    55   31   52 1  
    56   31   53 1  
    57   32   54 1  
    58   33   55 1  
@<TRIPOS>SUBSTRUCTURE
     1 YAM         1

