### 
### Created by X-TOOL on Mon Sep 10 21:13:32 2018
### 

@<TRIPOS>MOLECULE
5toe_ligand
   41    44     1     0     0
SMALL
GAST_HUCK


@<TRIPOS>ATOM
      1 CAR        22.0690   35.5450   -8.2200 C.3       1 7GK         0.0679
      2 CAS        22.8360   35.2050   -9.4880 C.3       1 7GK        -0.0133
      3 NAT        22.4200   33.9230  -10.0890 N.4       1 7GK         0.2298
      4 CAU        22.7100   32.9210   -9.0440 C.3       1 7GK        -0.0133
      5 CAV        21.9370   33.1630   -7.7570 C.3       1 7GK         0.0679
      6 NAQ        22.2720   34.4880   -7.2210 N.pl3     1 7GK        -0.2963
      7 CAN        22.3730   34.7360   -5.9100 C.ar      1 7GK         0.0449
      8 CAO        22.6940   36.0130   -5.4650 C.ar      1 7GK        -0.0400
      9 CAP        22.8000   36.2670   -4.1030 C.ar      1 7GK        -0.0596
     10 CAM        22.1570   33.7140   -4.9940 C.ar      1 7GK        -0.0400
     11 CAL        22.2610   33.9690   -3.6320 C.ar      1 7GK        -0.0596
     12 CAJ        22.5840   35.2450   -3.1860 C.ar      1 7GK        -0.0008
     13 CAH        22.6840   35.4830   -1.8820 C.2       1 7GK         0.0654
     14 CAI        23.0120   36.6480   -1.3400 C.2       1 7GK        -0.0440
     15 CAE        23.0120   36.4700   -0.0200 C.ar      1 7GK         0.0305
     16 CAD        23.2690   37.3210    0.9730 C.ar      1 7GK         0.0962
     17 CAK        23.6130   38.6740    0.6780 C.1       1 7GK         0.0976
     18 NAW        23.8870   39.7490    0.4460 N.1       1 7GK        -0.3308
     19 CAA        23.2060   36.9020    2.2950 C.ar      1 7GK        -0.0185
     20 CAB        22.8700   35.5850    2.5630 C.ar      1 7GK         0.0055
     21 NAC        22.6110   34.7360    1.4860 N.ar      1 7GK        -0.2756
     22 CAF        22.6870   35.1960    0.2290 C.ar      1 7GK         0.1452
     23 NAG        22.4870   34.5810   -0.9330 N.pl3     1 7GK        -0.2576
     24 H1         20.9970   35.6278   -8.4521 H         1 7GK         0.0570
     25 H2         22.4323   36.5024   -7.8184 H         1 7GK         0.0570
     26 H3         23.9071   35.1464   -9.2444 H         1 7GK         0.0834
     27 H4         22.6704   36.0064  -10.2230 H         1 7GK         0.0834
     28 H5         22.9501   33.7314  -10.9247 H         1 7GK         0.2015
     29 H6         21.4366   33.9344  -10.3100 H         1 7GK         0.2015
     30 H7         23.7860   32.9522   -8.8176 H         1 7GK         0.0834
     31 H8         22.4452   31.9255   -9.4299 H         1 7GK         0.0834
     32 H9         22.2041   32.3919   -7.0194 H         1 7GK         0.0570
     33 H10        20.8577   33.1144   -7.9639 H         1 7GK         0.0570
     34 H11        22.8616   36.8103   -6.1800 H         1 7GK         0.0529
     35 H12        23.0512   37.2626   -3.7555 H         1 7GK         0.0610
     36 H13        21.9074   32.7181   -5.3417 H         1 7GK         0.0529
     37 H14        22.0901   33.1723   -2.9171 H         1 7GK         0.0610
     38 H15        23.2377   37.5714   -1.8713 H         1 7GK         0.0318
     39 H16        23.4160   37.5931    3.1033 H         1 7GK         0.0706
     40 H17        22.8098   35.2232    3.5831 H         1 7GK         0.0759
     41 H18        22.2286   33.5932   -1.0686 H         1 7GK         0.2281
@<TRIPOS>BOND
     1    1    2 1  
     2    1    6 1  
     3    2    3 1  
     4    3    4 1  
     5    4    5 1  
     6    5    6 1  
     7    6    7 1  
     8    7    8 ar 
     9    7   10 ar 
    10    8    9 ar 
    11    9   12 ar 
    12   10   11 ar 
    13   11   12 ar 
    14   12   13 1  
    15   13   14 2  
    16   13   23 1  
    17   14   15 1  
    18   15   16 ar 
    19   15   22 ar 
    20   16   17 1  
    21   16   19 ar 
    22   17   18 3  
    23   19   20 ar 
    24   20   21 ar 
    25   21   22 ar 
    26   22   23 1  
    27    1   24 1  
    28    1   25 1  
    29    2   26 1  
    30    2   27 1  
    31    3   28 1  
    32    3   29 1  
    33    4   30 1  
    34    4   31 1  
    35    5   32 1  
    36    5   33 1  
    37    8   34 1  
    38    9   35 1  
    39   10   36 1  
    40   11   37 1  
    41   14   38 1  
    42   19   39 1  
    43   20   40 1  
    44   23   41 1  
@<TRIPOS>SUBSTRUCTURE
     1 7GK         1

