### 
### Created by X-TOOL on Mon Sep 10 21:13:29 2018
### 

@<TRIPOS>MOLECULE
5tol_ligand
   44    47     1     0     0
SMALL
GAST_HUCK


@<TRIPOS>ATOM
      1 C13       -24.9190   47.6990   27.1240 C.ar      1 7H3         0.0453
      2 C18       -25.6710   53.5910   18.5030 C.3       1 7H3         0.0168
      3 C17       -26.5770   53.8310   19.7140 C.3       1 7H3         0.2036
      4 C19       -25.5540   55.0160   17.9480 C.3       1 7H3        -0.0281
      5 C20       -26.9900   55.5130   18.1390 C.3       1 7H3         0.0401
      6 C22       -24.3040   52.9910   18.8080 C.3       1 7H3        -0.0028
      7 C24       -24.8620   54.3040   21.3510 C.cat     1 7H3         0.2599
      8 C11       -25.8740   49.4410   25.6940 C.ar      1 7H3        -0.0109
      9 C12       -25.2520   49.0480   26.8930 C.ar      1 7H3        -0.0272
     10 C1        -28.3040   49.9900   20.9980 C.ar      1 7H3        -0.0112
     11 C2        -28.7500   50.6320   19.8250 C.ar      1 7H3        -0.0060
     12 C3        -28.1860   51.8620   19.4160 C.ar      1 7H3         0.1552
     13 C4        -27.1790   52.4940   20.1700 C.ar      1 7H3         0.0449
     14 C5        -26.7480   51.8260   21.3240 C.ar      1 7H3        -0.0161
     15 C6        -27.2780   50.6000   21.7500 C.ar      1 7H3         0.0911
     16 N7        -26.7920   50.0730   22.8900 N.am      1 7H3        -0.2269
     17 C8        -26.8340   48.8360   23.4410 C.2       1 7H3         0.2526
     18 O9        -27.4820   47.9360   22.9110 O.2       1 7H3        -0.3666
     19 C10       -26.1550   48.4940   24.7180 C.ar      1 7H3         0.1311
     20 C14       -25.2400   46.7990   26.0970 C.ar      1 7H3         0.0265
     21 N15       -25.8340   47.2070   24.9440 N.ar      1 7H3        -0.2728
     22 BR16      -24.1150   47.0820   28.7300 Br        1 7H3        -0.0365
     23 O21       -27.5950   54.6930   19.1660 O.3       1 7H3        -0.3738
     24 S23       -23.5930   53.8290   20.2310 S.3       1 7H3        -0.0879
     25 N25       -26.0140   54.5770   20.8400 N.pl3     1 7H3        -0.2620
     26 N26       -24.4860   55.0350   22.4080 N.pl3     1 7H3        -0.2673
     27 F27       -28.6620   52.4100   18.2840 F         1 7H3        -0.1643
     28 H1        -26.1754   52.9311   17.7819 H         1 7H3         0.0278
     29 H2        -25.2629   55.0154   16.8872 H         1 7H3         0.0284
     30 H3        -24.8365   55.6181   18.5248 H         1 7H3         0.0284
     31 H4        -27.5513   55.4133   17.1983 H         1 7H3         0.0549
     32 H5        -26.9851   56.5672   18.4531 H         1 7H3         0.0549
     33 H6        -23.6436   53.1196   17.9378 H         1 7H3         0.0370
     34 H7        -24.4140   51.9192   19.0297 H         1 7H3         0.0370
     35 H8        -26.1334   50.4810   25.5323 H         1 7H3         0.0769
     36 H9        -25.0263   49.7922   27.6482 H         1 7H3         0.0774
     37 H10       -28.7394   49.0492   21.3149 H         1 7H3         0.0763
     38 H11       -29.5340   50.1776   19.2301 H         1 7H3         0.0657
     39 H12       -25.9639   52.2810   21.9183 H         1 7H3         0.0677
     40 H13       -26.2940   50.7360   23.4490 H         1 7H3         0.2250
     41 H14       -25.0078   45.7481   26.2263 H         1 7H3         0.0867
     42 H15       -26.5606   55.3524   21.2411 H         1 7H3         0.3123
     43 H16       -25.1869   55.3419   23.0975 H         1 7H3         0.3186
     44 H17       -23.4958   55.2904   22.5315 H         1 7H3         0.3186
@<TRIPOS>BOND
     1    9    1 ar 
     2    1   20 ar 
     3    1   22 1  
     4    3    2 1  
     5    2    4 1  
     6    2    6 1  
     7   13    3 1  
     8    3   23 1  
     9    3   25 1  
    10    5    4 1  
    11   23    5 1  
    12    6   24 1  
    13    7   24 1  
    14   25    7 ar 
    15    7   26 ar 
    16    8    9 ar 
    17   19    8 ar 
    18   10   11 ar 
    19   15   10 ar 
    20   11   12 ar 
    21   13   12 ar 
    22   12   27 1  
    23   14   13 ar 
    24   15   14 ar 
    25   16   15 1  
    26   17   16 am 
    27   17   18 2  
    28   17   19 1  
    29   19   21 ar 
    30   20   21 ar 
    31    2   28 1  
    32    4   29 1  
    33    4   30 1  
    34    5   31 1  
    35    5   32 1  
    36    6   33 1  
    37    6   34 1  
    38    8   35 1  
    39    9   36 1  
    40   10   37 1  
    41   11   38 1  
    42   14   39 1  
    43   16   40 1  
    44   20   41 1  
    45   25   42 1  
    46   26   43 1  
    47   26   44 1  
@<TRIPOS>SUBSTRUCTURE
     1 7H3         1

