### 
### Created by X-TOOL on Mon Sep 10 21:13:28 2018
### 

@<TRIPOS>MOLECULE
5toz_ligand
   42    44     1     0     0
SMALL
GAST_HUCK


@<TRIPOS>ATOM
      1 N3          1.1530   12.0780   -3.5670 N.pl3     1 7H4        -0.2665
      2 C4         -2.7540   17.8640   -4.4560 C.3       1 7H4        -0.0255
      3 N2         -1.0340   16.1440   -4.3830 N.pl3     1 7H4        -0.2967
      4 C7          0.0580   20.4760   -6.1060 C.2       1 7H4         0.1785
      5 C6         -0.6130   18.0560   -5.7710 C.3       1 7H4         0.0575
      6 C9         -0.5190   21.9780   -8.0010 C.3       1 7H4        -0.0482
      7 C13        -0.1420   11.8100   -4.0840 C.2       1 7H4         0.0249
      8 C8         -0.2620   21.9380   -6.5030 C.3       1 7H4         0.0346
      9 N5          1.2230   16.1870   -3.5330 N.ar      1 7H4        -0.2731
     10 C1         -3.1240   19.2090   -7.3620 C.3       1 7H4        -0.0418
     11 C2         -2.4270   19.7580   -6.1210 C.3       1 7H4         0.0423
     12 C3         -3.0820   19.3230   -4.8150 C.3       1 7H4        -0.0277
     13 C5         -1.2570   17.5790   -4.4770 C.3       1 7H4         0.0615
     14 N1         -0.9500   19.4620   -6.0540 N.am      1 7H4        -0.2682
     15 O1          1.2280   20.2490   -5.7580 O.2       1 7H4        -0.3969
     16 C10         0.1070   15.4840   -3.9450 C.ar      1 7H4         0.1190
     17 C11         0.1030   14.0520   -3.9490 C.ar      1 7H4         0.0433
     18 C12        -0.7910   13.0080   -4.3380 C.2       1 7H4        -0.0545
     19 C14         1.3110   13.4370   -3.4840 C.ar      1 7H4         0.1355
     20 N4          2.4490   14.1030   -3.0620 N.ar      1 7H4        -0.2772
     21 C15         2.3030   15.4540   -3.1330 C.ar      1 7H4         0.0500
     22 H1          1.8538   11.3719   -3.3000 H         1 7H4         0.2318
     23 H2         -3.2490   17.2024   -5.1821 H         1 7H4         0.0289
     24 H3         -3.1387   17.6541   -3.4471 H         1 7H4         0.0289
     25 H4         -1.8181   15.5445   -4.6772 H         1 7H4         0.1866
     26 H5         -0.9703   17.4286   -6.6009 H         1 7H4         0.0546
     27 H6          0.4793   17.9607   -5.6832 H         1 7H4         0.0546
     28 H7         -0.7490   23.0095   -8.3061 H         1 7H4         0.0254
     29 H8         -1.3702   21.3252   -8.2446 H         1 7H4         0.0254
     30 H9          0.3762   21.6283   -8.5361 H         1 7H4         0.0254
     31 H10        -0.5597   10.8188   -4.2542 H         1 7H4         0.0922
     32 H11         0.5908   22.5867   -6.2541 H         1 7H4         0.0500
     33 H12        -1.1556   22.2836   -5.9626 H         1 7H4         0.0500
     34 H13        -4.1921   19.4699   -7.3282 H         1 7H4         0.0252
     35 H14        -3.0146   18.1148   -7.3902 H         1 7H4         0.0252
     36 H15        -2.6680   19.6465   -8.2624 H         1 7H4         0.0252
     37 H16        -2.5274   20.8518   -6.1796 H         1 7H4         0.0555
     38 H17        -2.7242   19.9757   -4.0051 H         1 7H4         0.0288
     39 H18        -4.1726   19.4264   -4.9145 H         1 7H4         0.0288
     40 H19        -0.7836   18.0872   -3.6240 H         1 7H4         0.0582
     41 H20        -1.7900   13.1299   -4.7540 H         1 7H4         0.0311
     42 H21         3.1685   16.0311   -2.8282 H         1 7H4         0.0975
@<TRIPOS>BOND
     1    7    1 1  
     2    1   19 1  
     3    2   12 1  
     4   13    2 1  
     5    3   13 1  
     6   16    3 1  
     7    4    8 1  
     8   14    4 am 
     9    4   15 2  
    10   13    5 1  
    11    5   14 1  
    12    8    6 1  
    13   18    7 2  
    14   16    9 ar 
    15    9   21 ar 
    16   11   10 1  
    17   12   11 1  
    18   14   11 1  
    19   17   16 ar 
    20   17   18 1  
    21   17   19 ar 
    22   19   20 ar 
    23   20   21 ar 
    24    1   22 1  
    25    2   23 1  
    26    2   24 1  
    27    3   25 1  
    28    5   26 1  
    29    5   27 1  
    30    6   28 1  
    31    6   29 1  
    32    6   30 1  
    33    7   31 1  
    34    8   32 1  
    35    8   33 1  
    36   10   34 1  
    37   10   35 1  
    38   10   36 1  
    39   11   37 1  
    40   12   38 1  
    41   12   39 1  
    42   13   40 1  
    43   18   41 1  
    44   21   42 1  
@<TRIPOS>SUBSTRUCTURE
     1 7H4         1

