### 
### Created by X-TOOL on Mon Sep 10 21:13:34 2018
### 

@<TRIPOS>MOLECULE
5tpb_ligand
   38    38     1     0     0
SMALL
GAST_HUCK


@<TRIPOS>ATOM
      1 C1         40.7920   12.7420   61.7290 C.2       1 SIA         0.0637
      2 C2         39.9550   13.6950   60.9800 C.3       1 SIA         0.1137
      3 C3         40.0990   15.2120   60.9100 C.3       1 SIA         0.0137
      4 C4         40.2200   15.7340   59.5120 C.3       1 SIA         0.0845
      5 C5         39.1130   15.1300   58.6690 C.3       1 SIA         0.0967
      6 C6         39.2860   13.6310   58.6900 C.3       1 SIA         0.1147
      7 C7         38.3280   12.9440   57.7260 C.3       1 SIA         0.1116
      8 C8         38.2260   11.4540   58.0270 C.3       1 SIA         0.1065
      9 C9         37.1580   10.7940   57.1640 C.3       1 SIA         0.0727
     10 C10        38.2170   16.3740   56.7890 C.2       1 SIA         0.1733
     11 C11        38.4550   16.8650   55.3920 C.3       1 SIA         0.0257
     12 N5         39.1870   15.6270   57.3100 N.am      1 SIA        -0.2790
     13 O1A        41.1470   11.7300   61.1080 O.co2     1 SIA        -0.5663
     14 O1B        41.0260   13.0160   62.9110 O.co2     1 SIA        -0.5663
     15 O4         40.0920   17.1600   59.5200 O.3       1 SIA        -0.3892
     16 O6         38.9870   13.2480   60.0310 O.3       1 SIA        -0.3543
     17 O7         37.0310   13.5430   57.8350 O.3       1 SIA        -0.3865
     18 O8         39.4910   10.8300   57.7810 O.3       1 SIA        -0.3869
     19 O9         37.3550    9.3750   57.1610 O.3       1 SIA        -0.3924
     20 O10        37.2010   16.6420   57.4080 O.2       1 SIA        -0.3974
     21 H1         39.2378   13.7442   61.8125 H         1 SIA         0.0767
     22 H2         41.0000   15.5029   61.4700 H         1 SIA         0.0334
     23 H3         39.2137   15.6682   61.3771 H         1 SIA         0.0334
     24 H4         41.1987   15.4546   59.0949 H         1 SIA         0.0619
     25 H5         38.1351   15.3955   59.0971 H         1 SIA         0.0608
     26 H6         40.3203   13.3612   58.4302 H         1 SIA         0.0648
     27 H7         38.7013   13.0748   56.6996 H         1 SIA         0.0647
     28 H8         37.9585   11.3227   59.0859 H         1 SIA         0.0643
     29 H9         37.2304   11.1762   56.1351 H         1 SIA         0.0584
     30 H10        36.1629   11.0250   57.5718 H         1 SIA         0.0584
     31 H11        37.5954   17.4679   55.0639 H         1 SIA         0.0467
     32 H12        38.5787   16.0052   54.7172 H         1 SIA         0.0467
     33 H13        39.3653   17.4821   55.3703 H         1 SIA         0.0467
     34 H14        39.9854   15.4035   56.7508 H         1 SIA         0.1856
     35 H15        40.7861   17.5362   60.0484 H         1 SIA         0.2099
     36 H16        37.0957   14.4720   57.6471 H         1 SIA         0.2100
     37 H17        39.4346    9.9066   57.9969 H         1 SIA         0.2100
     38 H18        38.2146    9.1765   56.8086 H         1 SIA         0.2095
@<TRIPOS>BOND
     1    2    1 1  
     2    1   13 ar 
     3    1   14 ar 
     4    3    2 1  
     5   16    2 1  
     6    4    3 1  
     7    5    4 1  
     8    4   15 1  
     9    5    6 1  
    10   12    5 1  
    11    6    7 1  
    12    6   16 1  
    13    7    8 1  
    14    7   17 1  
    15    8    9 1  
    16    8   18 1  
    17    9   19 1  
    18   10   11 1  
    19   10   12 am 
    20   10   20 2  
    21    2   21 1  
    22    3   22 1  
    23    3   23 1  
    24    4   24 1  
    25    5   25 1  
    26    6   26 1  
    27    7   27 1  
    28    8   28 1  
    29    9   29 1  
    30    9   30 1  
    31   11   31 1  
    32   11   32 1  
    33   11   33 1  
    34   12   34 1  
    35   15   35 1  
    36   17   36 1  
    37   18   37 1  
    38   19   38 1  
@<TRIPOS>SUBSTRUCTURE
     1 SIA         1

