### 
### Created by X-TOOL on Mon Sep 10 21:13:32 2018
### 

@<TRIPOS>MOLECULE
5tpx_ligand
   52    55     1     0     0
SMALL
GAST_HUCK


@<TRIPOS>ATOM
      1 C14        30.7590   77.1350   48.4150 C.3       1 7H7        -0.0416
      2 N5         29.3700   77.5040   48.0630 N.4       1 7H7         0.2466
      3 C13        28.8780   78.5410   48.9800 C.3       1 7H7        -0.0416
      4 C12        28.4800   76.3670   47.7400 C.3       1 7H7         0.0353
      5 C15        28.4350   75.3360   48.8590 C.ar      1 7H7         0.0067
      6 C20        27.8130   75.6180   50.0800 C.ar      1 7H7        -0.0549
      7 C19        27.9080   74.7330   51.1420 C.ar      1 7H7        -0.0684
      8 C18        28.6020   73.5360   50.9950 C.ar      1 7H7        -0.0687
      9 C17        29.2120   73.2410   49.7880 C.ar      1 7H7        -0.0684
     10 C16        29.1290   74.1290   48.7270 C.ar      1 7H7        -0.0549
     11 C1         27.0350   76.7480   47.3320 C.3       1 7H7         0.0885
     12 C          26.1860   75.5290   47.0120 C.3       1 7H7        -0.0350
     13 N          27.0220   77.6460   46.1810 N.pl3     1 7H7        -0.2922
     14 C2         26.3630   78.8320   46.1700 C.2       1 7H7         0.1511
     15 C11        26.2880   79.4850   44.8590 C.ar      1 7H7         0.0434
     16 C10        26.6780   78.8280   43.6870 C.ar      1 7H7        -0.0437
     17 C9         26.4900   79.4340   42.4540 C.ar      1 7H7        -0.0567
     18 C8         25.9350   80.7000   42.3740 C.ar      1 7H7        -0.0569
     19 C7         25.5440   81.3650   43.5250 C.ar      1 7H7        -0.0440
     20 C6         25.6980   80.7570   44.7750 C.ar      1 7H7         0.0468
     21 C5         25.1910   81.3490   45.9890 C.2       1 7H7         0.1769
     22 N2         25.3000   80.6120   47.1480 N.pl3     1 7H7        -0.1223
     23 N1         25.9090   79.3520   47.2830 N.2       1 7H7        -0.1534
     24 N4         24.5050   82.4420   46.2360 N.2       1 7H7        -0.2762
     25 N3         24.1630   82.4340   47.5900 N.2       1 7H7        -0.2711
     26 C3         24.6350   81.3360   48.1160 C.2       1 7H7         0.1567
     27 C4         24.5560   80.9460   49.5480 C.3       1 7H7         0.0173
     28 H1         31.3353   78.0454   48.6365 H         1 7H7         0.0778
     29 H2         31.2226   76.6040   47.5705 H         1 7H7         0.0778
     30 H3         30.7518   76.4813   49.2997 H         1 7H7         0.0778
     31 H4         29.4521   77.9826   47.1797 H         1 7H7         0.2046
     32 H5         27.8456   78.8087   48.7108 H         1 7H7         0.0778
     33 H6         29.5192   79.4316   48.9044 H         1 7H7         0.0778
     34 H7         28.9007   78.1592   50.0114 H         1 7H7         0.0778
     35 H8         28.9290   75.8734   46.8655 H         1 7H7         0.1040
     36 H9         27.2513   76.5378   50.1964 H         1 7H7         0.0559
     37 H10        27.4404   74.9738   52.0898 H         1 7H7         0.0599
     38 H11        28.6647   72.8378   51.8218 H         1 7H7         0.0559
     39 H12        29.7571   72.3112   49.6720 H         1 7H7         0.0599
     40 H13        29.6070   73.8854   47.7851 H         1 7H7         0.0559
     41 H14        26.5758   77.2714   48.1835 H         1 7H7         0.0631
     42 H15        25.1731   75.8516   46.7291 H         1 7H7         0.0255
     43 H16        26.1297   74.8787   47.8974 H         1 7H7         0.0255
     44 H17        26.6405   74.9743   46.1779 H         1 7H7         0.0255
     45 H18        27.5387   77.3653   45.3354 H         1 7H7         0.1820
     46 H19        27.1280   77.8434   43.7429 H         1 7H7         0.0657
     47 H20        26.7791   78.9138   41.5479 H         1 7H7         0.0634
     48 H21        25.8059   81.1727   41.4071 H         1 7H7         0.0644
     49 H22        25.1176   82.3592   43.4564 H         1 7H7         0.0644
     50 H23        23.9688   81.6947   50.1000 H         1 7H7         0.0462
     51 H24        25.5705   80.8919   49.9698 H         1 7H7         0.0462
     52 H25        24.0702   79.9629   49.6340 H         1 7H7         0.0462
@<TRIPOS>BOND
     1    1    2 1  
     2    2    3 1  
     3    2    4 1  
     4    4    5 1  
     5    4   11 1  
     6    5    6 ar 
     7    5   10 ar 
     8    6    7 ar 
     9    7    8 ar 
    10    8    9 ar 
    11    9   10 ar 
    12   11   12 1  
    13   11   13 1  
    14   13   14 1  
    15   14   15 1  
    16   14   23 2  
    17   15   16 ar 
    18   15   20 ar 
    19   16   17 ar 
    20   17   18 ar 
    21   18   19 ar 
    22   19   20 ar 
    23   20   21 1  
    24   21   22 1  
    25   21   24 2  
    26   22   23 1  
    27   22   26 1  
    28   24   25 1  
    29   25   26 2  
    30   26   27 1  
    31    1   28 1  
    32    1   29 1  
    33    1   30 1  
    34    2   31 1  
    35    3   32 1  
    36    3   33 1  
    37    3   34 1  
    38    4   35 1  
    39    6   36 1  
    40    7   37 1  
    41    8   38 1  
    42    9   39 1  
    43   10   40 1  
    44   11   41 1  
    45   12   42 1  
    46   12   43 1  
    47   12   44 1  
    48   13   45 1  
    49   16   46 1  
    50   17   47 1  
    51   18   48 1  
    52   19   49 1  
    53   27   50 1  
    54   27   51 1  
    55   27   52 1  
@<TRIPOS>SUBSTRUCTURE
     1 7H7         1

