### 
### Created by X-TOOL on Mon Sep 10 21:13:34 2018
### 

@<TRIPOS>MOLECULE
5tq3_ligand
   45    49     1     0     0
SMALL
GAST_HUCK


@<TRIPOS>ATOM
      1 C4          6.1060   -6.8050   13.8410 C.ar      1 7GZ        -0.0299
      2 C7          4.2840   -4.7260   13.8910 C.ar      1 7GZ        -0.0674
      3 C6          4.1650   -5.7670   14.7950 C.ar      1 7GZ        -0.0380
      4 C9          5.4000   -3.5420   12.0200 C.ar      1 7GZ        -0.0275
      5 C13         4.6070   -2.3310   10.0950 C.ar      1 7GZ         0.0217
      6 C20         7.4760    2.5830    9.0620 C.ar      1 7GZ         0.0300
      7 C21         8.4710    3.5050    9.3570 C.ar      1 7GZ        -0.0616
      8 C8          5.3150   -4.7040   12.9500 C.ar      1 7GZ        -0.0252
      9 C18         6.0530    0.9060    8.9320 C.2       1 7GZ         0.1694
     10 C1          6.9490   -6.2410   10.5340 C.3       1 7GZ        -0.0552
     11 C2          7.3670   -5.8120   11.9210 C.3       1 7GZ        -0.0227
     12 C3          6.2360   -5.7630   12.9250 C.ar      1 7GZ        -0.0417
     13 C5          5.0800   -6.8070   14.7720 C.ar      1 7GZ         0.0830
     14 C10         6.3490   -2.5350   12.2190 C.ar      1 7GZ        -0.0577
     15 C11         6.4340   -1.4390   11.3750 C.ar      1 7GZ        -0.0517
     16 C12         5.5630   -1.3190   10.2960 C.ar      1 7GZ         0.0345
     17 C14         4.5200   -3.4320   10.9410 C.ar      1 7GZ        -0.0481
     18 N15         3.8960   -1.9730    8.9970 N.2       1 7GZ        -0.2541
     19 N16         4.3300   -0.7920    8.4740 N.pl3     1 7GZ        -0.2137
     20 C17         5.3490   -0.3420    9.2250 C.2       1 7GZ         0.1779
     21 N19         7.1060    1.3860    9.6490 N.2       1 7GZ        -0.3106
     22 C22         8.5800    4.6310    8.5540 C.ar      1 7GZ        -0.0768
     23 C23         7.7120    4.8270    7.4820 C.ar      1 7GZ        -0.0751
     24 C24         6.7190    3.9010    7.1930 C.ar      1 7GZ        -0.0400
     25 C25         6.6010    2.7650    7.9930 C.ar      1 7GZ         0.0795
     26 N26         5.7090    1.6940    7.9260 N.pl3     1 7GZ        -0.2531
     27 O27         4.9760   -7.8330   15.6660 O.3       1 7GZ        -0.3335
     28 H1          6.8161   -7.6238   13.8249 H         1 7GZ         0.0483
     29 H2          3.5653   -3.9148   13.9139 H         1 7GZ         0.0584
     30 H3          3.3582   -5.7687   15.5190 H         1 7GZ         0.0494
     31 H4          9.1444    3.3494   10.1921 H         1 7GZ         0.0544
     32 H5          7.8277   -6.2490    9.8723 H         1 7GZ         0.0253
     33 H6          6.2012   -5.5360   10.1419 H         1 7GZ         0.0253
     34 H7          6.5139   -7.2503   10.5779 H         1 7GZ         0.0253
     35 H8          7.8101   -4.8076   11.8521 H         1 7GZ         0.0428
     36 H9          8.1229   -6.5219   12.2880 H         1 7GZ         0.0428
     37 H10         7.0355   -2.6133   13.0543 H         1 7GZ         0.0599
     38 H11         7.1802   -0.6738   11.5555 H         1 7GZ         0.0619
     39 H12         3.7746   -4.1989   10.7640 H         1 7GZ         0.0605
     40 H13         3.9422   -0.3232    7.6429 H         1 7GZ         0.2988
     41 H14         9.3487    5.3662    8.7629 H         1 7GZ         0.0523
     42 H15         7.8133    5.7133    6.8661 H         1 7GZ         0.0543
     43 H16         6.0457    4.0586    6.3582 H         1 7GZ         0.0538
     44 H17         4.9506    1.5489    7.2443 H         1 7GZ         0.2253
     45 H18         5.6765   -8.4564   15.5138 H         1 7GZ         0.2489
@<TRIPOS>BOND
     1   12    1 ar 
     2    1   13 ar 
     3    2    3 ar 
     4    8    2 ar 
     5    3   13 ar 
     6    4    8 1  
     7   14    4 ar 
     8   17    4 ar 
     9   16    5 ar 
    10    5   17 ar 
    11    5   18 2  
    12    6    7 ar 
    13   21    6 1  
    14    6   25 ar 
    15    7   22 ar 
    16    8   12 ar 
    17   20    9 1  
    18    9   21 2  
    19    9   26 1  
    20   11   10 1  
    21   12   11 1  
    22   13   27 1  
    23   15   14 ar 
    24   16   15 ar 
    25   16   20 2  
    26   18   19 1  
    27   19   20 1  
    28   22   23 ar 
    29   23   24 ar 
    30   24   25 ar 
    31   25   26 1  
    32    1   28 1  
    33    2   29 1  
    34    3   30 1  
    35    7   31 1  
    36   10   32 1  
    37   10   33 1  
    38   10   34 1  
    39   11   35 1  
    40   11   36 1  
    41   14   37 1  
    42   15   38 1  
    43   17   39 1  
    44   19   40 1  
    45   22   41 1  
    46   23   42 1  
    47   24   43 1  
    48   26   44 1  
    49   27   45 1  
@<TRIPOS>SUBSTRUCTURE
     1 7GZ         1

