### 
### Created by X-TOOL on Mon Sep 10 21:13:34 2018
### 

@<TRIPOS>MOLECULE
5tq4_ligand
   36    38     1     0     0
SMALL
GAST_HUCK


@<TRIPOS>ATOM
      1 C4         16.4940  -11.3060   30.3830 C.ar      1 7GY        -0.0299
      2 C7         14.6750  -11.5880   28.3180 C.ar      1 7GY        -0.0674
      3 C6         14.4740  -10.6170   29.2850 C.ar      1 7GY        -0.0380
      4 C9         15.9830  -13.3910   27.2370 C.ar      1 7GY        -0.0277
      5 C13        15.2040  -15.2630   25.9320 C.ar      1 7GY         0.0118
      6 C8         15.7940  -12.4240   28.3570 C.ar      1 7GY        -0.0252
      7 C18        16.8990  -16.3570   22.7530 C.2       1 7GY         0.2374
      8 C1         17.6720  -14.4550   30.3170 C.3       1 7GY        -0.0552
      9 C2         17.9220  -13.1790   29.5440 C.3       1 7GY        -0.0227
     10 C3         16.7080  -12.2870   29.4150 C.ar      1 7GY        -0.0417
     11 C5         15.3910  -10.4690   30.3140 C.ar      1 7GY         0.0830
     12 C10        17.0280  -13.2330   26.3200 C.ar      1 7GY        -0.0577
     13 C11        17.1610  -14.0640   25.2180 C.ar      1 7GY        -0.0514
     14 C12        16.2440  -15.0900   25.0010 C.ar      1 7GY         0.0373
     15 C14        15.0710  -14.4330   27.0410 C.ar      1 7GY        -0.0501
     16 N15        14.4600  -16.3060   25.4850 N.2       1 7GY        -0.2730
     17 N16        14.9490  -16.8160   24.3170 N.pl3     1 7GY        -0.2173
     18 C17        16.0400  -16.1130   23.9710 C.2       1 7GY         0.1998
     19 O19        17.9190  -15.6830   22.5600 O.2       1 7GY        -0.3885
     20 N20        16.5270  -17.3290   21.9290 N.am      1 7GY        -0.2999
     21 O21        15.2290   -9.4790   31.2430 O.3       1 7GY        -0.3335
     22 H1         17.1988  -11.1967   31.1993 H         1 7GY         0.0483
     23 H2         13.9525  -11.7013   27.5179 H         1 7GY         0.0584
     24 H3         13.6021   -9.9746   29.2373 H         1 7GY         0.0494
     25 H4         18.6004  -15.0430   30.3641 H         1 7GY         0.0253
     26 H5         16.8911  -15.0426   29.8121 H         1 7GY         0.0253
     27 H6         17.3428  -14.2073   31.3369 H         1 7GY         0.0253
     28 H7         18.2615  -13.4485   28.5330 H         1 7GY         0.0428
     29 H8         18.7131  -12.6133   30.0578 H         1 7GY         0.0428
     30 H9         17.7518  -12.4410   26.4750 H         1 7GY         0.0599
     31 H10        17.9802  -13.9150   24.5239 H         1 7GY         0.0619
     32 H11        14.2655  -14.5931   27.7486 H         1 7GY         0.0604
     33 H12        14.5492  -17.6058   23.7904 H         1 7GY         0.3028
     34 H13        17.0670  -17.5246   21.1104 H         1 7GY         0.1792
     35 H14        15.7067  -17.8657   22.1269 H         1 7GY         0.1792
     36 H15        15.9394   -9.5177   31.8726 H         1 7GY         0.2489
@<TRIPOS>BOND
     1   10    1 ar 
     2    1   11 ar 
     3    2    3 ar 
     4    6    2 ar 
     5    3   11 ar 
     6    4    6 1  
     7   12    4 ar 
     8   15    4 ar 
     9   14    5 ar 
    10    5   15 ar 
    11    5   16 2  
    12    6   10 ar 
    13   18    7 1  
    14    7   19 2  
    15    7   20 am 
    16    9    8 1  
    17   10    9 1  
    18   11   21 1  
    19   13   12 ar 
    20   14   13 ar 
    21   14   18 2  
    22   16   17 1  
    23   17   18 1  
    24    1   22 1  
    25    2   23 1  
    26    3   24 1  
    27    8   25 1  
    28    8   26 1  
    29    8   27 1  
    30    9   28 1  
    31    9   29 1  
    32   12   30 1  
    33   13   31 1  
    34   15   32 1  
    35   17   33 1  
    36   20   34 1  
    37   20   35 1  
    38   21   36 1  
@<TRIPOS>SUBSTRUCTURE
     1 7GY         1

