### 
### Created by X-TOOL on Mon Sep 10 21:13:34 2018
### 

@<TRIPOS>MOLECULE
5tq5_ligand
   48    51     1     0     0
SMALL
GAST_HUCK


@<TRIPOS>ATOM
      1 C4          3.6550    4.5080    9.5370 C.ar      1 7GX        -0.0299
      2 C7          1.7050    2.5500    9.3260 C.ar      1 7GX        -0.0674
      3 C6          1.5500    3.7520    8.6540 C.ar      1 7GX        -0.0380
      4 C9          3.0700    0.9290   10.6170 C.ar      1 7GX        -0.0277
      5 C13         2.4740   -0.9130   12.0470 C.ar      1 7GX         0.0119
      6 C21         4.8660   -6.4420   12.4850 C.ar      1 7GX         0.0859
      7 C8          2.8440    2.3030   10.0970 C.ar      1 7GX        -0.0252
      8 C18         4.3110   -4.1110   11.8310 C.2       1 7GX         0.2670
      9 C26         6.0450   -6.5920   11.7600 C.ar      1 7GX         0.0226
     10 C1          4.6430    2.9530   12.6380 C.3       1 7GX        -0.0552
     11 C2          5.0230    3.1120   11.1220 C.3       1 7GX        -0.0227
     12 C3          3.8180    3.3060   10.2220 C.ar      1 7GX        -0.0417
     13 C5          2.5270    4.7330    8.7580 C.ar      1 7GX         0.0830
     14 C10         4.0730    0.1320   10.0620 C.ar      1 7GX        -0.0577
     15 C11         4.2810   -1.1690   10.4780 C.ar      1 7GX        -0.0513
     16 C12         3.4770   -1.7150   11.4760 C.ar      1 7GX         0.0379
     17 C14         2.2640    0.4000   11.6320 C.ar      1 7GX        -0.0501
     18 N15         1.8520   -1.6840   12.9690 N.2       1 7GX        -0.2728
     19 N16         2.3750   -2.9380   13.0190 N.pl3     1 7GX        -0.2168
     20 C17         3.3670   -3.0010   12.1180 C.2       1 7GX         0.2062
     21 O19         5.3190   -3.9080   11.1800 O.2       1 7GX        -0.3778
     22 N20         4.0440   -5.2870   12.4310 N.am      1 7GX        -0.2298
     23 C22         4.5200   -7.4780   13.3380 C.ar      1 7GX        -0.0276
     24 C23         5.3410   -8.5860   13.4450 C.ar      1 7GX        -0.0458
     25 C24         6.5150   -8.6460   12.6930 C.ar      1 7GX         0.0096
     26 N25         6.8630   -7.6450   11.8640 N.ar      1 7GX        -0.3140
     27 C27         7.4150   -9.8450   12.7310 C.3       1 7GX        -0.0226
     28 O28         2.3790    5.9200    8.0900 O.3       1 7GX        -0.3335
     29 H1          4.4164    5.2759    9.6126 H         1 7GX         0.0483
     30 H2          0.9334    1.7922    9.2527 H         1 7GX         0.0584
     31 H3          0.6679    3.9259    8.0485 H         1 7GX         0.0494
     32 H4          6.3176   -5.8047   11.0666 H         1 7GX         0.0684
     33 H5          5.5581    2.8165   13.2330 H         1 7GX         0.0253
     34 H6          3.9906    2.0762   12.7625 H         1 7GX         0.0253
     35 H7          4.1144    3.8550   12.9801 H         1 7GX         0.0253
     36 H8          5.5587    2.2072   10.7989 H         1 7GX         0.0428
     37 H9          5.6826    3.9860   11.0165 H         1 7GX         0.0428
     38 H10         4.7052    0.5448    9.2842 H         1 7GX         0.0599
     39 H11         5.0682   -1.7636   10.0287 H         1 7GX         0.0619
     40 H12         1.4877    1.0034   12.0884 H         1 7GX         0.0604
     41 H13         2.0655   -3.7017   13.6370 H         1 7GX         0.3028
     42 H14         3.1602   -5.3540   12.8940 H         1 7GX         0.2244
     43 H15         3.6075   -7.4201   13.9203 H         1 7GX         0.0608
     44 H16         5.0746   -9.4013   14.1078 H         1 7GX         0.0612
     45 H17         8.2761   -9.6783   12.0671 H         1 7GX         0.0391
     46 H18         6.8586  -10.7320   12.3940 H         1 7GX         0.0391
     47 H19         7.7706  -10.0042   13.7597 H         1 7GX         0.0391
     48 H20         3.1286    6.4765    8.2656 H         1 7GX         0.2489
@<TRIPOS>BOND
     1   12    1 ar 
     2    1   13 ar 
     3    2    3 ar 
     4    7    2 ar 
     5    3   13 ar 
     6    4    7 1  
     7   14    4 ar 
     8   17    4 ar 
     9   16    5 ar 
    10    5   17 ar 
    11    5   18 2  
    12    6    9 ar 
    13   22    6 1  
    14    6   23 ar 
    15    7   12 ar 
    16   20    8 1  
    17    8   21 2  
    18    8   22 am 
    19    9   26 ar 
    20   11   10 1  
    21   12   11 1  
    22   13   28 1  
    23   15   14 ar 
    24   16   15 ar 
    25   16   20 2  
    26   18   19 1  
    27   19   20 1  
    28   23   24 ar 
    29   24   25 ar 
    30   25   26 ar 
    31   25   27 1  
    32    1   29 1  
    33    2   30 1  
    34    3   31 1  
    35    9   32 1  
    36   10   33 1  
    37   10   34 1  
    38   10   35 1  
    39   11   36 1  
    40   11   37 1  
    41   14   38 1  
    42   15   39 1  
    43   17   40 1  
    44   19   41 1  
    45   22   42 1  
    46   23   43 1  
    47   24   44 1  
    48   27   45 1  
    49   27   46 1  
    50   27   47 1  
    51   28   48 1  
@<TRIPOS>SUBSTRUCTURE
     1 7GX         1

