### 
### Created by X-TOOL on Mon Sep 10 21:13:34 2018
### 

@<TRIPOS>MOLECULE
5tq6_ligand
   51    54     1     0     0
SMALL
GAST_HUCK


@<TRIPOS>ATOM
      1 C4         -8.4640   -1.7600   29.2960 C.3       1 7GV         0.0346
      2 C7         -7.5690   -1.1260   32.0040 C.3       1 7GV         0.0664
      3 C6         -8.9870   -0.9440   31.4840 C.3       1 7GV         0.0581
      4 C9         -7.8660    1.0710   33.1950 C.3       1 7GV         0.0221
      5 C13        -4.6610   -3.8370   34.1810 C.2       1 7GV         0.0249
      6 N5         -9.3080   -1.9600   30.4810 N.am      1 7GV        -0.2571
      7 C19       -10.6380   -2.1840   30.2860 C.2       1 7GV         0.2625
      8 C1         -6.4330    0.5290   30.3900 C.3       1 7GV        -0.0601
      9 C2         -6.6080   -0.9300   30.8220 C.3       1 7GV        -0.0165
     10 C3         -6.9780   -1.8340   29.6430 C.3       1 7GV        -0.0279
     11 N8         -7.2850   -0.2680   33.1880 N.pl3     1 7GV        -0.2856
     12 C10        -6.4730   -0.6500   34.2600 C.ar      1 7GV         0.1212
     13 C11        -5.7430   -1.8820   34.2690 C.ar      1 7GV         0.0435
     14 C12        -5.5960   -3.1020   33.5310 C.2       1 7GV        -0.0545
     15 N14        -4.2000   -3.1550   35.2830 N.pl3     1 7GV        -0.2665
     16 C15        -4.8390   -1.9560   35.3860 C.ar      1 7GV         0.1355
     17 N16        -4.6610   -1.0390   36.3510 N.ar      1 7GV        -0.2772
     18 C17        -5.4500    0.0200   36.1950 C.ar      1 7GV         0.0500
     19 N18        -6.3330    0.2710   35.2240 N.ar      1 7GV        -0.2730
     20 O20       -11.5170   -1.4860   30.7670 O.2       1 7GV        -0.4005
     21 N21       -10.9290   -3.2390   29.4460 N.am      1 7GV        -0.2594
     22 C22       -12.3450   -3.4800   29.1310 C.3       1 7GV         0.0343
     23 C23       -12.3550   -4.8600   28.4970 C.3       1 7GV        -0.0309
     24 C24       -11.0420   -5.4870   28.8610 C.3       1 7GV        -0.0309
     25 C25       -10.0840   -4.3150   28.9200 C.3       1 7GV         0.0343
     26 H1         -8.6811   -0.7710   28.8663 H         1 7GV         0.0519
     27 H2         -8.6968   -2.5403   28.5564 H         1 7GV         0.0519
     28 H3         -7.4652   -2.1676   32.3419 H         1 7GV         0.0587
     29 H4         -9.0789    0.0533   31.0290 H         1 7GV         0.0543
     30 H5         -9.6927   -1.0306   32.3234 H         1 7GV         0.0543
     31 H6         -7.5780    1.5908   34.1207 H         1 7GV         0.0492
     32 H7         -8.9621    0.9954   33.1428 H         1 7GV         0.0492
     33 H8         -7.4957    1.6360   32.3269 H         1 7GV         0.0492
     34 H9         -4.3231   -4.8259   33.8747 H         1 7GV         0.0922
     35 H10        -5.7329    0.5791   29.5430 H         1 7GV         0.0233
     36 H11        -6.0337    1.1150   31.2309 H         1 7GV         0.0233
     37 H12        -7.4066    0.9406   30.0857 H         1 7GV         0.0233
     38 H13        -5.6203   -1.2627   31.1738 H         1 7GV         0.0322
     39 H14        -6.3941   -1.5244   28.7637 H         1 7GV         0.0288
     40 H15        -6.7272   -2.8731   29.9024 H         1 7GV         0.0288
     41 H16        -6.1310   -3.3833   32.6251 H         1 7GV         0.0311
     42 H17        -3.4793   -3.4993   35.9333 H         1 7GV         0.2318
     43 H18        -5.3653    0.7836   36.9597 H         1 7GV         0.0975
     44 H19       -12.7222   -2.7241   28.4265 H         1 7GV         0.0519
     45 H20       -12.9561   -3.4663   30.0455 H         1 7GV         0.0519
     46 H21       -12.4506   -4.7787   27.4042 H         1 7GV         0.0285
     47 H22       -13.1882   -5.4581   28.8945 H         1 7GV         0.0285
     48 H23       -10.7281   -6.2111   28.0948 H         1 7GV         0.0285
     49 H24       -11.1056   -5.9903   29.8370 H         1 7GV         0.0285
     50 H25        -9.2412   -4.5244   29.5952 H         1 7GV         0.0519
     51 H26        -9.6995   -4.0655   27.9200 H         1 7GV         0.0519
@<TRIPOS>BOND
     1    6    1 1  
     2   10    1 1  
     3    2    3 1  
     4    2    9 1  
     5   11    2 1  
     6    3    6 1  
     7   11    4 1  
     8   14    5 2  
     9    5   15 1  
    10    6    7 am 
    11    7   20 2  
    12    7   21 am 
    13    9    8 1  
    14    9   10 1  
    15   12   11 1  
    16   13   12 ar 
    17   12   19 ar 
    18   13   14 1  
    19   13   16 ar 
    20   15   16 1  
    21   16   17 ar 
    22   17   18 ar 
    23   18   19 ar 
    24   21   22 1  
    25   21   25 1  
    26   22   23 1  
    27   23   24 1  
    28   24   25 1  
    29    1   26 1  
    30    1   27 1  
    31    2   28 1  
    32    3   29 1  
    33    3   30 1  
    34    4   31 1  
    35    4   32 1  
    36    4   33 1  
    37    5   34 1  
    38    8   35 1  
    39    8   36 1  
    40    8   37 1  
    41    9   38 1  
    42   10   39 1  
    43   10   40 1  
    44   14   41 1  
    45   15   42 1  
    46   18   43 1  
    47   22   44 1  
    48   22   45 1  
    49   23   46 1  
    50   23   47 1  
    51   24   48 1  
    52   24   49 1  
    53   25   50 1  
    54   25   51 1  
@<TRIPOS>SUBSTRUCTURE
     1 7GV         1

