### 
### Created by X-TOOL on Mon Sep 10 21:13:34 2018
### 

@<TRIPOS>MOLECULE
5tq7_ligand
   64    68     1     0     0
SMALL
GAST_HUCK


@<TRIPOS>ATOM
      1 C33        16.9030   -8.6600   13.5070 C.ar      1 7GT        -0.0600
      2 C34        16.5380   -7.7250   12.5530 C.ar      1 7GT        -0.0369
      3 C32        17.5460   -8.2620   14.6700 C.ar      1 7GT        -0.0616
      4 C4         10.7230   -1.6240   11.1210 C.3       1 7GT         0.0346
      5 C7         10.2220   -1.0200    8.3020 C.3       1 7GT         0.0664
      6 C6         11.5660   -0.8590    8.9890 C.3       1 7GT         0.0581
      7 C9         10.7340    1.0910    7.0260 C.3       1 7GT         0.0221
      8 C13         7.3440   -3.6840    6.5580 C.2       1 7GT         0.0249
      9 N5         11.7150   -1.8460   10.0640 N.am      1 7GT        -0.2571
     10 C19        13.0170   -1.9400   10.5040 C.2       1 7GT         0.2625
     11 C1          9.0870    0.7270    9.7920 C.3       1 7GT        -0.0601
     12 C2          9.1420   -0.7300    9.3520 C.3       1 7GT        -0.0165
     13 C3          9.3010   -1.6470   10.5630 C.3       1 7GT        -0.0279
     14 N8         10.0180   -0.1780    7.1050 N.pl3     1 7GT        -0.2856
     15 C10         9.1520   -0.5180    6.0940 C.ar      1 7GT         0.1212
     16 C11         8.3990   -1.7310    6.2500 C.ar      1 7GT         0.0435
     17 C12         8.3670   -2.9280    7.0420 C.2       1 7GT        -0.0545
     18 N14         6.7510   -3.0440    5.4960 N.pl3     1 7GT        -0.2665
     19 C15         7.3790   -1.8430    5.3030 C.ar      1 7GT         0.1355
     20 N16         7.1350   -0.9540    4.3310 N.ar      1 7GT        -0.2772
     21 C17         7.9730    0.0850    4.2910 C.ar      1 7GT         0.0500
     22 N18         8.9860    0.3770    5.1110 N.ar      1 7GT        -0.2730
     23 O20        13.9140   -1.1980   10.1340 O.2       1 7GT        -0.4005
     24 N21        13.2240   -2.9330   11.4090 N.am      1 7GT        -0.2575
     25 C22        12.4500   -4.1670   11.5720 C.3       1 7GT         0.0361
     26 C23        13.5190   -5.2310   11.7890 C.3       1 7GT        -0.0082
     27 C24        14.7630   -4.5360   12.3530 C.3       1 7GT         0.1037
     28 C25        14.5530   -3.0430   12.0200 C.3       1 7GT         0.0569
     29 S26        16.2710   -5.1780   11.6240 S.o2      1 7GT         0.0017
     30 O27        15.9330   -5.8410   10.3950 O.2       1 7GT        -0.1690
     31 O28        17.2530   -4.1280   11.5980 O.2       1 7GT        -0.1690
     32 C29        16.8050   -6.3880   12.7880 C.ar      1 7GT         0.0886
     33 C30        17.4500   -5.9740   13.9450 C.ar      1 7GT        -0.0369
     34 C31        17.8250   -6.9220   14.8820 C.ar      1 7GT        -0.0600
     35 H1         16.6850   -9.7093   13.3440 H         1 7GT         0.0618
     36 H2         16.0505   -8.0359   11.6361 H         1 7GT         0.0636
     37 H3         17.8299   -8.9992   15.4123 H         1 7GT         0.0618
     38 H4         10.9090   -0.6451   11.5869 H         1 7GT         0.0519
     39 H5         10.8233   -2.4155   11.8783 H         1 7GT         0.0519
     40 H6         10.1318   -2.0681    7.9806 H         1 7GT         0.0587
     41 H7         11.6362    0.1529    9.4145 H         1 7GT         0.0543
     42 H8         12.3692   -1.0032    8.2514 H         1 7GT         0.0543
     43 H9         10.4793    1.5976    6.0834 H         1 7GT         0.0492
     44 H10        11.8174    0.9035    7.0604 H         1 7GT         0.0492
     45 H11        10.4450    1.7285    7.8746 H         1 7GT         0.0492
     46 H12         7.0404   -4.6522    6.9534 H         1 7GT         0.0922
     47 H13         8.2921    0.8538   10.5416 H         1 7GT         0.0233
     48 H14         8.8752    1.3652    8.9215 H         1 7GT         0.0233
     49 H15        10.0539    1.0143   10.2308 H         1 7GT         0.0233
     50 H16         8.1729   -0.9612    8.8858 H         1 7GT         0.0322
     51 H17         8.6062   -1.3183   11.3499 H         1 7GT         0.0288
     52 H18         9.0547   -2.6762   10.2628 H         1 7GT         0.0288
     53 H19         9.0306   -3.1812    7.8675 H         1 7GT         0.0311
     54 H20         5.9650   -3.4075    4.9383 H         1 7GT         0.2318
     55 H21         7.8085    0.7877    3.4822 H         1 7GT         0.0975
     56 H22        11.8584   -4.3822   10.6699 H         1 7GT         0.0520
     57 H23        11.7804   -4.0992   12.4421 H         1 7GT         0.0520
     58 H24        13.7630   -5.7170   10.8328 H         1 7GT         0.0304
     59 H25        13.1564   -5.9860   12.5021 H         1 7GT         0.0304
     60 H26        14.8126   -4.6761   13.4429 H         1 7GT         0.0561
     61 H27        14.5998   -2.4391   12.9382 H         1 7GT         0.0538
     62 H28        15.3244   -2.6992   11.3153 H         1 7GT         0.0538
     63 H29        17.6573   -4.9233   14.1128 H         1 7GT         0.0636
     64 H30        18.3391   -6.6141   15.7853 H         1 7GT         0.0618
@<TRIPOS>BOND
     1    2    1 ar 
     2    1    3 ar 
     3   32    2 ar 
     4    3   34 ar 
     5    9    4 1  
     6    4   13 1  
     7    6    5 1  
     8    5   12 1  
     9    5   14 1  
    10    9    6 1  
    11   14    7 1  
    12   17    8 2  
    13   18    8 1  
    14   10    9 am 
    15   10   23 2  
    16   24   10 am 
    17   12   11 1  
    18   13   12 1  
    19   14   15 1  
    20   15   16 ar 
    21   15   22 ar 
    22   16   17 1  
    23   16   19 ar 
    24   19   18 1  
    25   19   20 ar 
    26   21   20 ar 
    27   22   21 ar 
    28   24   25 1  
    29   28   24 1  
    30   26   25 1  
    31   27   26 1  
    32   27   28 1  
    33   29   27 1  
    34   29   30 2  
    35   29   31 2  
    36   29   32 1  
    37   32   33 ar 
    38   33   34 ar 
    39    1   35 1  
    40    2   36 1  
    41    3   37 1  
    42    4   38 1  
    43    4   39 1  
    44    5   40 1  
    45    6   41 1  
    46    6   42 1  
    47    7   43 1  
    48    7   44 1  
    49    7   45 1  
    50    8   46 1  
    51   11   47 1  
    52   11   48 1  
    53   11   49 1  
    54   12   50 1  
    55   13   51 1  
    56   13   52 1  
    57   17   53 1  
    58   18   54 1  
    59   21   55 1  
    60   25   56 1  
    61   25   57 1  
    62   26   58 1  
    63   26   59 1  
    64   27   60 1  
    65   28   61 1  
    66   28   62 1  
    67   33   63 1  
    68   34   64 1  
@<TRIPOS>SUBSTRUCTURE
     1 7GT         1

