### 
### Created by X-TOOL on Mon Sep 10 21:13:31 2018
### 

@<TRIPOS>MOLECULE
5tq8_ligand
   73    79     1     0     0
SMALL
GAST_HUCK


@<TRIPOS>ATOM
      1 C4          3.9170    4.5170    9.6010 C.ar      1 7GS        -0.0309
      2 C5          2.8060    4.7020    8.8370 C.ar      1 7GS         0.1167
      3 C7          1.9120    3.6580    8.7140 C.ar      1 7GS         0.1538
      4 C10         3.2260    2.2610   10.1650 C.ar      1 7GS        -0.0299
      5 C13         4.6650   -1.1830   10.6960 C.ar      1 7GS        -0.0644
      6 C15         3.5720   -2.9970   12.3260 C.2       1 7GS         0.0997
      7 C20         2.4420    0.3830   11.7100 C.ar      1 7GS        -0.0319
      8 C21         4.3620   -4.1890   12.1170 C.2       1 7GS         0.1331
      9 C24         7.0460   -6.3130   10.9990 C.3       1 7GS         0.0570
     10 C26         5.9390   -8.3540   11.9900 C.3       1 7GS         0.0447
     11 C28         4.9030   -6.2330   12.3430 C.2       1 7GS         0.0562
     12 C1          5.0540    3.2950   12.6480 C.3       1 7GS        -0.0557
     13 C2          5.3950    3.1860   11.1610 C.3       1 7GS        -0.0245
     14 C3          4.1390    3.3200   10.2720 C.ar      1 7GS        -0.0457
     15 O6          2.5620    5.8540    8.1070 O.3       1 7GS        -0.3332
     16 F8          0.8460    3.8700    7.9350 F         1 7GS        -0.1951
     17 C9          2.0960    2.4180    9.3730 C.ar      1 7GS        -0.0342
     18 C11         3.3510    0.8810   10.7580 C.ar      1 7GS        -0.0373
     19 C12         4.4040    0.1280   10.2880 C.ar      1 7GS        -0.0680
     20 C14         3.7350   -1.6710   11.6840 C.ar      1 7GS         0.0192
     21 N16         2.5210   -2.9490   13.0680 N.2       1 7GS        -0.1968
     22 N17         1.9770   -1.7120   13.0300 N.pl3     1 7GS        -0.2137
     23 C19         2.6850   -0.9290   12.1400 C.ar      1 7GS         0.0871
     24 N22         5.4520   -4.3410   11.4490 N.2       1 7GS        -0.3314
     25 C23         5.8420   -5.6330   11.6040 C.2       1 7GS         0.0159
     26 N25         7.1700   -7.6530   11.6850 N.am      1 7GS        -0.2639
     27 C27         4.8940   -7.6720   12.7890 C.3       1 7GS         0.0192
     28 N29         3.9970   -5.3390   12.6800 N.pl3     1 7GS        -0.2650
     29 C31         8.3640   -8.1600   12.0410 C.2       1 7GS         0.2254
     30 O32         8.4290   -9.2020   12.6610 O.2       1 7GS        -0.3821
     31 C33         9.6620   -7.6450   11.7430 C.ar      1 7GS         0.1374
     32 C34         9.8940   -7.2530   10.4170 C.ar      1 7GS         0.0459
     33 N35        11.0700   -6.7930   10.0320 N.ar      1 7GS        -0.2538
     34 C36        12.1110   -6.7280   10.8980 C.ar      1 7GS         0.1498
     35 C37        11.8550   -7.1690   12.2230 C.ar      1 7GS         0.0654
     36 N38        10.6740   -7.6270   12.5970 N.ar      1 7GS        -0.2651
     37 N39        13.3440   -6.2450   10.4620 N.pl3     1 7GS        -0.2849
     38 C40        13.6440   -6.3050    8.9900 C.3       1 7GS         0.0323
     39 C41        14.7170   -5.3160    8.5200 C.3       1 7GS        -0.0323
     40 C42        15.6640   -4.8830    9.6770 C.3       1 7GS        -0.0493
     41 C43        15.8260   -6.0780   10.6460 C.3       1 7GS        -0.0323
     42 C44        14.4820   -6.1520   11.3870 C.3       1 7GS         0.0323
     43 H1          4.6423    5.3180    9.6879 H         1 7GS         0.0474
     44 H2          5.4860   -1.7749   10.3078 H         1 7GS         0.0588
     45 H3          1.6127    0.9722   12.0843 H         1 7GS         0.0534
     46 H4          7.9502   -5.7114   11.1736 H         1 7GS         0.0609
     47 H5          6.9009   -6.4516    9.9175 H         1 7GS         0.0609
     48 H6          6.2168   -9.2666   12.5377 H         1 7GS         0.0544
     49 H7          5.4797   -8.6286   11.0290 H         1 7GS         0.0544
     50 H8          5.9735    3.1946   13.2433 H         1 7GS         0.0252
     51 H9          4.3504    2.4953   12.9224 H         1 7GS         0.0252
     52 H10         4.5930    4.2735   12.8477 H         1 7GS         0.0252
     53 H11         5.8608    2.2073   10.9735 H         1 7GS         0.0421
     54 H12         6.1034    3.9856   10.8988 H         1 7GS         0.0421
     55 H13         3.2469    6.4889    8.2811 H         1 7GS         0.2477
     56 H14         1.3761    1.6151    9.2625 H         1 7GS         0.0566
     57 H15         5.0687    0.5781    9.5596 H         1 7GS         0.0522
     58 H16         1.1623   -1.4022   13.5788 H         1 7GS         0.2462
     59 H17         5.1273   -7.7410   13.8618 H         1 7GS         0.0446
     60 H18         3.9101   -8.1252   12.5978 H         1 7GS         0.0446
     61 H19         3.1655   -5.4986   13.2666 H         1 7GS         0.2324
     62 H20         9.0910   -7.3292    9.6928 H         1 7GS         0.0934
     63 H21        12.6559   -7.1284   12.9524 H         1 7GS         0.0849
     64 H22        12.7152   -6.0911    8.4409 H         1 7GS         0.0525
     65 H23        13.9858   -7.3226    8.7500 H         1 7GS         0.0525
     66 H24        14.2214   -4.4217    8.1144 H         1 7GS         0.0285
     67 H25        15.3169   -5.7926    7.7307 H         1 7GS         0.0285
     68 H26        15.2291   -4.0263   10.2126 H         1 7GS         0.0267
     69 H27        16.6453   -4.6001    9.2683 H         1 7GS         0.0267
     70 H28        16.6504   -5.8983   11.3517 H         1 7GS         0.0285
     71 H29        16.0157   -7.0077   10.0896 H         1 7GS         0.0285
     72 H30        14.4840   -7.0394   12.0370 H         1 7GS         0.0525
     73 H31        14.3660   -5.2474   12.0019 H         1 7GS         0.0525
@<TRIPOS>BOND
     1    1    2 ar 
     2   14    1 ar 
     3    3    2 ar 
     4    2   15 1  
     5    3   16 1  
     6   17    3 ar 
     7    4   14 ar 
     8    4   17 ar 
     9   18    4 1  
    10   19    5 ar 
    11    5   20 ar 
    12    6    8 1  
    13   20    6 1  
    14    6   21 2  
    15   18    7 ar 
    16    7   23 ar 
    17    8   24 2  
    18    8   28 1  
    19   25    9 1  
    20    9   26 1  
    21   10   26 1  
    22   27   10 1  
    23   11   25 2  
    24   11   27 1  
    25   28   11 1  
    26   13   12 1  
    27   14   13 1  
    28   18   19 ar 
    29   20   23 ar 
    30   21   22 1  
    31   22   23 1  
    32   24   25 1  
    33   26   29 am 
    34   29   30 2  
    35   29   31 1  
    36   31   32 ar 
    37   31   36 ar 
    38   32   33 ar 
    39   33   34 ar 
    40   34   35 ar 
    41   34   37 1  
    42   35   36 ar 
    43   37   38 1  
    44   37   42 1  
    45   38   39 1  
    46   39   40 1  
    47   40   41 1  
    48   41   42 1  
    49    1   43 1  
    50    5   44 1  
    51    7   45 1  
    52    9   46 1  
    53    9   47 1  
    54   10   48 1  
    55   10   49 1  
    56   12   50 1  
    57   12   51 1  
    58   12   52 1  
    59   13   53 1  
    60   13   54 1  
    61   15   55 1  
    62   17   56 1  
    63   19   57 1  
    64   22   58 1  
    65   27   59 1  
    66   27   60 1  
    67   28   61 1  
    68   32   62 1  
    69   35   63 1  
    70   38   64 1  
    71   38   65 1  
    72   39   66 1  
    73   39   67 1  
    74   40   68 1  
    75   40   69 1  
    76   41   70 1  
    77   41   71 1  
    78   42   72 1  
    79   42   73 1  
@<TRIPOS>SUBSTRUCTURE
     1 7GS         1

