### 
### Created by X-TOOL on Mon Sep 10 21:13:32 2018
### 

@<TRIPOS>MOLECULE
5tqe_ligand
   73    78     1     0     0
SMALL
GAST_HUCK


@<TRIPOS>ATOM
      1 C13         8.7020   34.8520   28.9560 C.ar      1 7KQ        -0.0283
      2 C18         9.0660   34.0440   26.3070 C.ar      1 7KQ        -0.0354
      3 C17         8.4210   35.2510   26.5760 C.ar      1 7KQ         0.0448
      4 C16         8.2480   35.6570   27.8830 C.ar      1 7KQ        -0.0391
      5 C15         9.8300   32.8440   29.8030 C.ar      1 7KQ         0.1155
      6 C19         9.5090   33.2410   27.3130 C.ar      1 7KQ        -0.0511
      7 C22         4.5720   39.1250   22.6600 C.ar      1 7KQ        -0.0370
      8 C23         5.7340   39.7310   22.1690 C.ar      1 7KQ        -0.0100
      9 C24         5.7840   40.0020   20.7890 C.ar      1 7KQ         0.0762
     10 C11         9.0670   34.4790   31.3010 C.ar      1 7KQ        -0.0195
     11 C12         8.5420   35.2470   30.3070 C.ar      1 7KQ        -0.0566
     12 C27         3.5210   38.7770   21.8150 C.ar      1 7KQ         0.0614
     13 C33         8.1430   39.2720   19.4840 C.3       1 7KQ         0.0793
     14 C1          3.8200   36.6710   27.4910 C.ar      1 7KQ        -0.0747
     15 C2          5.1130   37.0470   27.1870 C.ar      1 7KQ        -0.0627
     16 C3          5.6450   36.7880   25.9320 C.ar      1 7KQ        -0.0063
     17 C4          4.8430   36.1780   24.9700 C.ar      1 7KQ        -0.0545
     18 C5          3.5280   35.8120   25.2590 C.ar      1 7KQ        -0.0468
     19 C6          3.0420   36.0410   26.5410 C.ar      1 7KQ        -0.0669
     20 C7          7.0880   37.1580   25.6210 C.3       1 7KQ         0.1582
     21 N8          7.9470   35.9980   25.4920 N.pl3     1 7KQ        -0.2896
     22 C9          7.2030   38.0380   24.3890 C.2       1 7KQ         0.2169
     23 N10         9.6990   33.3120   31.0950 N.ar      1 7KQ        -0.2974
     24 C14         9.3480   33.6120   28.6730 C.ar      1 7KQ         0.0242
     25 N20        10.4340   31.6470   29.6410 N.pl3     1 7KQ        -0.3167
     26 O21         7.6620   37.5350   23.3790 O.2       1 7KQ        -0.3912
     27 C25         4.7310   39.6700   19.9510 C.ar      1 7KQ        -0.0571
     28 C26         3.6110   39.0530   20.4600 C.ar      1 7KQ        -0.0464
     29 N28         2.3090   38.1540   22.1850 N.am      1 7KQ        -0.2104
     30 C29         6.8650   40.0570   23.1190 C.3       1 7KQ         0.0657
     31 N30         6.7960   39.3290   24.3960 N.am      1 7KQ        -0.2617
     32 C31         6.2520   40.0550   25.5410 C.3       1 7KQ         0.0250
     33 S32         7.1820   40.7060   19.9700 S.o2      1 7KQ        -0.0090
     34 O34         6.7100   41.3420   18.7700 O.2       1 7KQ        -0.1720
     35 O35         7.9640   41.4820   20.8960 O.2       1 7KQ        -0.1720
     36 C36         9.2700   38.7960   20.3060 C.3       1 7KQ        -0.0289
     37 C37         9.5260   39.4310   19.0030 C.3       1 7KQ        -0.0289
     38 C38         2.6320   35.2260   24.1930 C.3       1 7KQ         0.0072
     39 C39         1.8530   37.8770   23.4260 C.2       1 7KQ         0.3502
     40 O40         1.0040   36.8340   23.3320 O.3       1 7KQ        -0.2568
     41 O41         2.1370   38.4570   24.4540 O.2       1 7KQ        -0.3669
     42 C42         1.1950   35.7540   24.2810 C.3       1 7KQ         0.0872
     43 H1          9.2174   33.7397   25.2777 H         1 7KQ         0.0561
     44 H2          7.7594   36.6021   28.0909 H         1 7KQ         0.0458
     45 H3          9.9932   32.3018   27.0709 H         1 7KQ         0.0651
     46 H4          4.4881   38.9220   23.7215 H         1 7KQ         0.0437
     47 H5          8.9689   34.8311   32.3215 H         1 7KQ         0.0707
     48 H6          8.0040   36.1566   30.5482 H         1 7KQ         0.0523
     49 H7          7.4776   38.5412   19.0012 H         1 7KQ         0.0537
     50 H8          3.4154   36.8707   28.4766 H         1 7KQ         0.0583
     51 H9          5.7172   37.5484   27.9344 H         1 7KQ         0.0504
     52 H10         5.2465   35.9849   23.9826 H         1 7KQ         0.0499
     53 H11         2.0388   35.7206   26.7979 H         1 7KQ         0.0502
     54 H12         7.4578   37.7430   26.4760 H         1 7KQ         0.0954
     55 H13         8.2256   35.7056   24.5445 H         1 7KQ         0.1831
     56 H14        10.5554   31.2551   28.6962 H         1 7KQ         0.1819
     57 H15        10.7732   31.1260   30.4622 H         1 7KQ         0.1819
     58 H16         4.7898   39.8968   18.8926 H         1 7KQ         0.0579
     59 H17         2.7962   38.7819   19.7985 H         1 7KQ         0.0447
     60 H18         1.7109   37.8828   21.4308 H         1 7KQ         0.2274
     61 H19         6.8384   41.1357   23.3328 H         1 7KQ         0.0684
     62 H20         7.8155   39.8041   22.6265 H         1 7KQ         0.0684
     63 H21         6.2565   39.4011   26.4255 H         1 7KQ         0.0488
     64 H22         5.2204   40.3669   25.3209 H         1 7KQ         0.0488
     65 H23         6.8695   40.9436   25.7388 H         1 7KQ         0.0488
     66 H24         9.4397   37.7168   20.4347 H         1 7KQ         0.0284
     67 H25         9.5336   39.3220   21.2354 H         1 7KQ         0.0284
     68 H26         9.9812   40.4314   18.9589 H         1 7KQ         0.0284
     69 H27         9.8873   38.8262   18.1582 H         1 7KQ         0.0284
     70 H28         2.6140   34.1323   24.3089 H         1 7KQ         0.0451
     71 H29         3.0429   35.4834   23.2056 H         1 7KQ         0.0451
     72 H30         1.0052   36.1257   25.2987 H         1 7KQ         0.0634
     73 H31         0.4928   34.9390   24.0514 H         1 7KQ         0.0634
@<TRIPOS>BOND
     1    4    1 ar 
     2    1   11 ar 
     3    1   24 ar 
     4    3    2 ar 
     5    2    6 ar 
     6    3    4 ar 
     7   21    3 1  
     8    5   23 ar 
     9   24    5 ar 
    10    5   25 1  
    11    6   24 ar 
    12    8    7 ar 
    13    7   12 ar 
    14    8    9 ar 
    15   30    8 1  
    16    9   27 ar 
    17    9   33 1  
    18   11   10 ar 
    19   10   23 ar 
    20   12   28 ar 
    21   12   29 1  
    22   33   13 1  
    23   13   36 1  
    24   13   37 1  
    25   15   14 ar 
    26   14   19 ar 
    27   16   15 ar 
    28   16   17 ar 
    29   20   16 1  
    30   17   18 ar 
    31   18   19 ar 
    32   18   38 1  
    33   20   21 1  
    34   22   20 1  
    35   22   26 2  
    36   31   22 am 
    37   27   28 ar 
    38   29   39 am 
    39   30   31 1  
    40   31   32 1  
    41   33   34 2  
    42   33   35 2  
    43   36   37 1  
    44   38   42 1  
    45   39   40 1  
    46   39   41 2  
    47   40   42 1  
    48    2   43 1  
    49    4   44 1  
    50    6   45 1  
    51    7   46 1  
    52   10   47 1  
    53   11   48 1  
    54   13   49 1  
    55   14   50 1  
    56   15   51 1  
    57   17   52 1  
    58   19   53 1  
    59   20   54 1  
    60   21   55 1  
    61   25   56 1  
    62   25   57 1  
    63   27   58 1  
    64   28   59 1  
    65   29   60 1  
    66   30   61 1  
    67   30   62 1  
    68   32   63 1  
    69   32   64 1  
    70   32   65 1  
    71   36   66 1  
    72   36   67 1  
    73   37   68 1  
    74   37   69 1  
    75   38   70 1  
    76   38   71 1  
    77   42   72 1  
    78   42   73 1  
@<TRIPOS>SUBSTRUCTURE
     1 7KQ         1

