### 
### Created by X-TOOL on Mon Sep 10 21:13:32 2018
### 

@<TRIPOS>MOLECULE
5tqf_ligand
   72    77     1     0     0
SMALL
GAST_HUCK


@<TRIPOS>ATOM
      1 C13         3.6050   38.5160   21.7800 C.ar      1 7KR         0.0594
      2 C18         8.2260   39.3270   19.7090 C.3       1 7KR         0.0793
      3 C16         5.7770   39.9730   20.8570 C.ar      1 7KR         0.0763
      4 C19         9.6230   39.2280   20.1520 C.3       1 7KR        -0.0289
      5 C20         9.3210   39.4930   18.7430 C.3       1 7KR        -0.0289
      6 C23         6.1330   39.9230   25.6370 C.3       1 7KR         0.0250
      7 C24         2.5710   35.2790   24.1400 C.3       1 7KR        -0.0033
      8 C11         4.7530   39.6200   19.9860 C.ar      1 7KR        -0.0571
      9 C12         3.6750   38.8890   20.4450 C.ar      1 7KR        -0.0464
     10 C34         8.2800   35.5640   27.9260 C.ar      1 7KR        -0.0391
     11 C27         1.4490   36.2940   23.8510 C.3       1 7KR         0.0527
     12 C33         8.7650   34.7650   28.9860 C.ar      1 7KR        -0.0283
     13 C1          7.0420   37.0540   25.7220 C.3       1 7KR         0.1582
     14 C2          5.6070   36.6390   26.0170 C.ar      1 7KR        -0.0063
     15 C3          4.7940   36.1240   25.0060 C.ar      1 7KR        -0.0545
     16 C4          3.4650   35.7770   25.2530 C.ar      1 7KR        -0.0471
     17 C5          2.9640   35.9370   26.5400 C.ar      1 7KR        -0.0668
     18 C6          3.7610   36.4500   27.5510 C.ar      1 7KR        -0.0747
     19 C7          5.0730   36.8040   27.2890 C.ar      1 7KR        -0.0627
     20 C8          6.7950   40.0060   23.2230 C.3       1 7KR         0.0657
     21 N9          6.7320   39.2500   24.4870 N.am      1 7KR        -0.2617
     22 C10         5.7300   39.6200   22.2200 C.ar      1 7KR        -0.0100
     23 C14         4.6200   38.8930   22.6530 C.ar      1 7KR        -0.0369
     24 N15         2.5600   37.6830   22.2410 N.am      1 7KR        -0.2353
     25 S17         7.1860   40.7350   20.1020 S.o2      1 7KR        -0.0090
     26 O21         7.8770   41.5580   21.0580 O.2       1 7KR        -0.1720
     27 O22         6.7660   41.3330   18.8630 O.2       1 7KR        -0.1720
     28 C25         2.0490   37.6250   23.4900 C.2       1 7KR         0.2054
     29 O26         2.1670   38.5250   24.3200 O.2       1 7KR        -0.3847
     30 N28         7.9390   35.9250   25.5550 N.pl3     1 7KR        -0.2896
     31 C29         8.4330   35.1640   26.6140 C.ar      1 7KR         0.0448
     32 C30         9.0760   33.9600   26.3270 C.ar      1 7KR        -0.0354
     33 C31         9.5290   33.1480   27.3240 C.ar      1 7KR        -0.0511
     34 C32         9.3970   33.5220   28.6910 C.ar      1 7KR         0.0242
     35 C35         9.8940   32.7510   29.8120 C.ar      1 7KR         0.1155
     36 N36         9.7860   33.2200   31.1100 N.ar      1 7KR        -0.2974
     37 C37         9.1790   34.4000   31.3240 C.ar      1 7KR        -0.0195
     38 C38         8.6530   35.1750   30.3400 C.ar      1 7KR        -0.0566
     39 N39        10.4370   31.5280   29.6490 N.pl3     1 7KR        -0.3167
     40 C40         7.1530   37.9660   24.4930 C.2       1 7KR         0.2169
     41 O41         7.6530   37.4680   23.4960 O.2       1 7KR        -0.3912
     42 H1          7.6055   38.4189   19.6901 H         1 7KR         0.0537
     43 H2         10.0369   38.2539   20.4516 H         1 7KR         0.0284
     44 H3         10.0582   40.0199   20.7792 H         1 7KR         0.0284
     45 H4          9.5294   40.4838   18.3130 H         1 7KR         0.0284
     46 H5          9.5081   38.7177   17.9854 H         1 7KR         0.0284
     47 H6          5.8809   40.9587   25.3654 H         1 7KR         0.0488
     48 H7          6.8479   39.9269   26.4730 H         1 7KR         0.0488
     49 H8          5.2191   39.3903   25.9385 H         1 7KR         0.0488
     50 H9          3.1722   35.1358   23.2301 H         1 7KR         0.0450
     51 H10         2.1228   34.3197   24.4381 H         1 7KR         0.0450
     52 H11         4.8006   39.9189   18.9451 H         1 7KR         0.0579
     53 H12         2.8824   38.6062   19.7617 H         1 7KR         0.0448
     54 H13         7.7822   36.5015   28.1459 H         1 7KR         0.0458
     55 H14         0.8195   36.4076   24.7458 H         1 7KR         0.0530
     56 H15         0.8345   35.9311   23.0140 H         1 7KR         0.0530
     57 H16         7.3916   37.6274   26.5932 H         1 7KR         0.0954
     58 H17         5.2024   35.9911   24.0107 H         1 7KR         0.0499
     59 H18         1.9389   35.6575   26.7549 H         1 7KR         0.0502
     60 H19         3.3560   36.5742   28.5488 H         1 7KR         0.0583
     61 H20         5.6885   37.2130   28.0820 H         1 7KR         0.0504
     62 H21         7.7800   39.8326   22.7652 H         1 7KR         0.0684
     63 H22         6.6811   41.0755   23.4538 H         1 7KR         0.0684
     64 H23         4.5470   38.6146   23.6981 H         1 7KR         0.0438
     65 H24         2.1532   37.0672   21.5663 H         1 7KR         0.2255
     66 H25         8.2272   35.6714   24.5992 H         1 7KR         0.1831
     67 H26         9.2179   33.6649   25.2936 H         1 7KR         0.0561
     68 H27         9.9968   32.2032   27.0719 H         1 7KR         0.0651
     69 H28         9.1045   34.7554   32.3454 H         1 7KR         0.0707
     70 H29         8.1499   36.1026   30.5880 H         1 7KR         0.0523
     71 H30        10.7816   31.0044   30.4663 H         1 7KR         0.1819
     72 H31        10.5073   31.1171   28.7071 H         1 7KR         0.1819
@<TRIPOS>BOND
     1    1    9 ar 
     2   23    1 ar 
     3    1   24 1  
     4    2    4 1  
     5    2    5 1  
     6   25    2 1  
     7    3    8 ar 
     8   22    3 ar 
     9    3   25 1  
    10    5    4 1  
    11   21    6 1  
    12    7   11 1  
    13   16    7 1  
    14    8    9 ar 
    15   10   12 ar 
    16   31   10 ar 
    17   11   28 1  
    18   12   34 ar 
    19   12   38 ar 
    20   13   14 1  
    21   30   13 1  
    22   13   40 1  
    23   14   15 ar 
    24   14   19 ar 
    25   15   16 ar 
    26   16   17 ar 
    27   18   17 ar 
    28   19   18 ar 
    29   21   20 1  
    30   20   22 1  
    31   40   21 am 
    32   22   23 ar 
    33   28   24 am 
    34   25   26 2  
    35   25   27 2  
    36   28   29 2  
    37   30   31 1  
    38   31   32 ar 
    39   32   33 ar 
    40   33   34 ar 
    41   34   35 ar 
    42   35   36 ar 
    43   35   39 1  
    44   36   37 ar 
    45   37   38 ar 
    46   40   41 2  
    47    2   42 1  
    48    4   43 1  
    49    4   44 1  
    50    5   45 1  
    51    5   46 1  
    52    6   47 1  
    53    6   48 1  
    54    6   49 1  
    55    7   50 1  
    56    7   51 1  
    57    8   52 1  
    58    9   53 1  
    59   10   54 1  
    60   11   55 1  
    61   11   56 1  
    62   13   57 1  
    63   15   58 1  
    64   17   59 1  
    65   18   60 1  
    66   19   61 1  
    67   20   62 1  
    68   20   63 1  
    69   23   64 1  
    70   24   65 1  
    71   30   66 1  
    72   32   67 1  
    73   33   68 1  
    74   37   69 1  
    75   38   70 1  
    76   39   71 1  
    77   39   72 1  
@<TRIPOS>SUBSTRUCTURE
     1 7KR         1

