### 
### Created by X-TOOL on Mon Sep 10 21:13:32 2018
### 

@<TRIPOS>MOLECULE
5tqg_ligand
   82    87     1     0     0
SMALL
GAST_HUCK


@<TRIPOS>ATOM
      1 C13         3.6070   38.6060   21.9550 C.ar      1 7KS         0.0594
      2 C18         8.0440   39.5060   19.4650 C.3       1 7KS         0.0793
      3 C16         5.7130   40.0820   20.8980 C.ar      1 7KS         0.0763
      4 C19         9.1310   38.9080   20.3000 C.3       1 7KS        -0.0289
      5 C20         9.4780   39.7120   19.0950 C.3       1 7KS        -0.0289
      6 C23         6.2720   40.2320   25.6320 C.3       1 7KS         0.0249
      7 C24         2.7310   35.3090   24.6150 C.3       1 7KS         0.0039
      8 C11         4.6350   39.7210   20.0950 C.ar      1 7KS        -0.0571
      9 C12         3.5900   38.9830   20.6200 C.ar      1 7KS        -0.0464
     10 C34         8.3780   35.8050   28.0980 C.ar      1 7KS        -0.0369
     11 C27         1.6400   36.2820   24.1310 C.3       1 7KS         0.0537
     12 C33         8.8410   34.9870   29.1530 C.ar      1 7KS         0.0082
     13 C1          7.2310   37.3900   25.8640 C.3       1 7KS         0.1531
     14 C2          5.7850   37.0620   26.2090 C.ar      1 7KS        -0.0170
     15 C3          4.9770   36.3630   25.3090 C.ar      1 7KS        -0.0621
     16 C4          3.6730   35.9680   25.6330 C.ar      1 7KS        -0.0145
     17 C5          3.2120   36.2680   26.9260 C.ar      1 7KS         0.0866
     18 C6          4.0080   36.9790   27.8290 C.ar      1 7KS        -0.0455
     19 C7          5.2750   37.3760   27.4590 C.ar      1 7KS        -0.0712
     20 C8          6.8600   40.1510   23.2040 C.3       1 7KS         0.0657
     21 N9          6.8370   39.4710   24.5170 N.am      1 7KS        -0.2619
     22 C10         5.7450   39.7410   22.2650 C.ar      1 7KS        -0.0100
     23 C14         4.6670   39.0050   22.7650 C.ar      1 7KS        -0.0369
     24 N15         2.6160   37.7320   22.4620 N.am      1 7KS        -0.2353
     25 S17         7.0480   40.8870   20.0250 S.o2      1 7KS        -0.0090
     26 O21         6.5000   41.5300   18.8600 O.2       1 7KS        -0.1720
     27 O22         7.8420   41.6750   20.9290 O.2       1 7KS        -0.1720
     28 C25         2.1860   37.6390   23.7400 C.2       1 7KS         0.2055
     29 O26         2.2950   38.5500   24.5640 O.2       1 7KS        -0.3847
     30 N28         8.0220   36.1770   25.7350 N.pl3     1 7KS        -0.2915
     31 C29         8.5130   35.4070   26.7830 C.ar      1 7KS         0.0441
     32 C30         9.1430   34.2030   26.4790 C.ar      1 7KS        -0.0361
     33 C31         9.5740   33.3700   27.4680 C.ar      1 7KS        -0.0524
     34 C32         9.4460   33.7260   28.8370 C.ar      1 7KS         0.0233
     35 C35         9.9190   32.9130   29.9380 C.ar      1 7KS         0.1106
     36 N36         9.8140   33.3160   31.2220 N.ar      1 7KS        -0.3016
     37 C37         9.2370   34.4890   31.5020 C.ar      1 7KS         0.0130
     38 C38         8.7390   35.3590   30.5180 C.ar      1 7KS         0.1382
     39 N39        10.4480   31.6880   29.7480 N.pl3     1 7KS        -0.3195
     40 C40         7.2690   38.1890   24.5560 C.2       1 7KS         0.2151
     41 O41         7.7250   37.6510   23.5630 O.2       1 7KS        -0.3916
     42 O42         1.9670   35.7840   27.2410 O.3       1 7KS        -0.3204
     43 F43         8.1380   36.5360   30.8570 F         1 7KS        -0.1904
     44 C44         1.5630   35.8440   28.6160 C.3       1 7KS         0.1276
     45 C45         0.2050   35.1360   28.6980 C.3       1 7KS         0.2660
     46 F46        -0.6790   35.7170   27.8440 F         1 7KS        -0.2064
     47 F47        -0.3140   35.3950   29.9280 F         1 7KS        -0.2064
     48 C48         3.4160   34.6400   23.4050 C.3       1 7KS        -0.0521
     49 H1          7.4134   38.8423   18.8552 H         1 7KS         0.0537
     50 H2          9.2893   37.8195   20.2987 H         1 7KS         0.0284
     51 H3          9.3351   39.3071   21.3045 H         1 7KS         0.0284
     52 H4          9.9383   40.7044   19.2103 H         1 7KS         0.0284
     53 H5          9.8925   39.2168   18.2045 H         1 7KS         0.0284
     54 H6          6.0145   41.2456   25.2909 H         1 7KS         0.0488
     55 H7          7.0108   40.2952   26.4445 H         1 7KS         0.0488
     56 H8          5.3660   39.7273   25.9986 H         1 7KS         0.0488
     57 H9          2.2197   34.5021   25.1604 H         1 7KS         0.0460
     58 H10         4.6145   40.0198   19.0532 H         1 7KS         0.0579
     59 H11         2.7566   38.6988   19.9877 H         1 7KS         0.0448
     60 H12         7.9110   36.7568   28.3240 H         1 7KS         0.0462
     61 H13         0.9086   36.4191   24.9411 H         1 7KS         0.0530
     62 H14         1.1400   35.8405   23.2563 H         1 7KS         0.0530
     63 H15         7.6580   38.0040   26.6706 H         1 7KS         0.0932
     64 H16         5.3716   36.1187   24.3294 H         1 7KS         0.0472
     65 H17         3.6301   37.2172   28.8167 H         1 7KS         0.0506
     66 H18         5.8818   37.9424   28.1562 H         1 7KS         0.0477
     67 H19         7.8200   39.9250   22.7168 H         1 7KS         0.0684
     68 H20         6.7826   41.2346   23.3768 H         1 7KS         0.0684
     69 H21         4.6559   38.7367   23.8152 H         1 7KS         0.0438
     70 H22         2.1867   37.1154   21.8021 H         1 7KS         0.2255
     71 H23         8.2384   35.8590   24.7795 H         1 7KS         0.1825
     72 H24         9.2926   33.9245   25.4421 H         1 7KS         0.0561
     73 H25        10.0225   32.4188   27.2050 H         1 7KS         0.0644
     74 H26         9.1490   34.7838   32.5414 H         1 7KS         0.0675
     75 H27        10.7745   31.1372   30.5548 H         1 7KS         0.1802
     76 H28        10.5258   31.3026   28.7960 H         1 7KS         0.1802
     77 H29         1.4665   36.8910   28.9391 H         1 7KS         0.0665
     78 H30         2.2991   35.3303   29.2518 H         1 7KS         0.0665
     79 H31         0.3090   34.0578   28.5063 H         1 7KS         0.1046
     80 H32         4.1931   33.9473   23.7604 H         1 7KS         0.0253
     81 H33         3.8755   35.4122   22.7705 H         1 7KS         0.0253
     82 H34         2.6678   34.0835   22.8215 H         1 7KS         0.0253
@<TRIPOS>BOND
     1    1    9 ar 
     2   23    1 ar 
     3    1   24 1  
     4    2    4 1  
     5    2    5 1  
     6   25    2 1  
     7    3    8 ar 
     8   22    3 ar 
     9    3   25 1  
    10    5    4 1  
    11   21    6 1  
    12    7   11 1  
    13   16    7 1  
    14    7   48 1  
    15    8    9 ar 
    16   10   12 ar 
    17   31   10 ar 
    18   11   28 1  
    19   12   34 ar 
    20   12   38 ar 
    21   13   14 1  
    22   30   13 1  
    23   13   40 1  
    24   14   15 ar 
    25   14   19 ar 
    26   15   16 ar 
    27   16   17 ar 
    28   18   17 ar 
    29   17   42 1  
    30   19   18 ar 
    31   21   20 1  
    32   20   22 1  
    33   40   21 am 
    34   22   23 ar 
    35   28   24 am 
    36   25   26 2  
    37   25   27 2  
    38   28   29 2  
    39   30   31 1  
    40   31   32 ar 
    41   32   33 ar 
    42   33   34 ar 
    43   34   35 ar 
    44   35   36 ar 
    45   35   39 1  
    46   36   37 ar 
    47   37   38 ar 
    48   38   43 1  
    49   40   41 2  
    50   42   44 1  
    51   44   45 1  
    52   45   46 1  
    53   45   47 1  
    54    2   49 1  
    55    4   50 1  
    56    4   51 1  
    57    5   52 1  
    58    5   53 1  
    59    6   54 1  
    60    6   55 1  
    61    6   56 1  
    62    7   57 1  
    63    8   58 1  
    64    9   59 1  
    65   10   60 1  
    66   11   61 1  
    67   11   62 1  
    68   13   63 1  
    69   15   64 1  
    70   18   65 1  
    71   19   66 1  
    72   20   67 1  
    73   20   68 1  
    74   23   69 1  
    75   24   70 1  
    76   30   71 1  
    77   32   72 1  
    78   33   73 1  
    79   37   74 1  
    80   39   75 1  
    81   39   76 1  
    82   44   77 1  
    83   44   78 1  
    84   45   79 1  
    85   48   80 1  
    86   48   81 1  
    87   48   82 1  
@<TRIPOS>SUBSTRUCTURE
     1 7KS         1

