### 
### Created by X-TOOL on Tue Oct 16 15:18:04 2018
### 

@<TRIPOS>MOLECULE
5tqu_ligand
   53    56     1     0     0
SMALL
GAST_HUCK


@<TRIPOS>ATOM
      1 C1        -40.3560   11.0250    7.8570 C.3       1 I53         0.0753
      2 C2        -42.2990   12.6430    7.5260 C.2       1 I53         0.0894
      3 C3        -43.3460   11.5710    7.6410 C.3       1 I53         0.0251
      4 C4        -44.1080   11.6880   10.0350 C.3       1 I53        -0.0301
      5 C6        -44.9690   12.0840   12.3900 C.3       1 I53         0.0384
      6 C7        -43.9580   14.0550   13.4610 C.2       1 I53         0.2131
      7 C8        -43.5270   15.8620   14.5550 C.ar      1 I53         0.0750
      8 C9        -42.9560   16.9770   15.1620 C.ar      1 I53        -0.0448
      9 C11       -45.1320   17.5620   16.0410 C.ar      1 I53        -0.0809
     10 C12       -45.7110   16.4540   15.4400 C.ar      1 I53        -0.0694
     11 C13       -44.8900   15.6160   14.7010 C.ar      1 I53         0.0112
     12 C14       -42.4480   13.9810    7.3170 C.2       1 I53        -0.0606
     13 C15       -41.1420   14.5760    7.2860 C.ar      1 I53        -0.0241
     14 C16       -40.6070   15.8580    7.1160 C.ar      1 I53         0.0221
     15 C17       -39.2470   16.0960    7.1410 C.ar      1 I53        -0.0550
     16 C18       -38.3920   15.0310    7.3400 C.ar      1 I53         0.0225
     17 C20       -40.2300   13.5300    7.4840 C.ar      1 I53         0.0627
     18 CL1       -36.6750   15.3210    7.3720 Cl        1 I53        -0.0828
     19 CL        -41.6690   17.2060    6.8650 Cl        1 I53        -0.0818
     20 C19       -38.8570   13.7440    7.5130 C.ar      1 I53        -0.0330
     21 N         -40.9410   12.3510    7.6310 N.pl3     1 I53        -0.2523
     22 C         -40.7650   10.4390    9.1890 C.3       1 I53         0.0704
     23 O         -40.4840   11.3400   10.2470 O.3       1 I53        -0.3924
     24 N1        -44.3910   11.8710    8.6110 N.4       1 I53         0.2425
     25 C5        -45.2810   12.0840   10.9080 C.3       1 I53         0.0081
     26 N2        -43.8470   12.9550   12.7110 N.pl3     1 I53        -0.2746
     27 N4        -45.1370   14.4540   13.9910 N.2       1 I53        -0.3137
     28 N3        -42.9550   14.8630   13.7670 N.pl3     1 I53        -0.2303
     29 C10       -43.7720   17.8200   15.9030 C.ar      1 I53        -0.0787
     30 H1        -39.2598   11.1123    7.8303 H         1 I53         0.0621
     31 H2        -40.6897   10.3495    7.0556 H         1 I53         0.0621
     32 H3        -42.8524   10.6350    7.9414 H         1 I53         0.1028
     33 H4        -43.8157   11.4379    6.6553 H         1 I53         0.1028
     34 H5        -43.2401   12.3071   10.3060 H         1 I53         0.0815
     35 H6        -43.8736   10.6287   10.2162 H         1 I53         0.0815
     36 H7        -44.7225   11.0581   12.7011 H         1 I53         0.0528
     37 H8        -45.8564   12.4307   12.9398 H         1 I53         0.0528
     38 H9        -41.8967   17.1823   15.0581 H         1 I53         0.0533
     39 H10       -45.7475   18.2358   16.6260 H         1 I53         0.0508
     40 H11       -46.7705   16.2500   15.5447 H         1 I53         0.0516
     41 H12       -43.3934   14.5075    7.1947 H         1 I53         0.0170
     42 H13       -38.8587   17.0992    7.0070 H         1 I53         0.0517
     43 H14       -38.1692   12.9205    7.6676 H         1 I53         0.0542
     44 H15       -40.2108    9.5036    9.3561 H         1 I53         0.0583
     45 H16       -41.8444   10.2279    9.1732 H         1 I53         0.0583
     46 H17       -40.9633   12.1484   10.1087 H         1 I53         0.2095
     47 H18       -45.1790   11.2833    8.3882 H         1 I53         0.2031
     48 H19       -44.6457   12.8377    8.4819 H         1 I53         0.2031
     49 H20       -46.1026   11.3754   10.7269 H         1 I53         0.0337
     50 H21       -45.6002   13.0968   10.6211 H         1 I53         0.0337
     51 H22       -42.9180   12.7098   12.3399 H         1 I53         0.1896
     52 H23       -41.9684   14.7736   13.4850 H         1 I53         0.2311
     53 H24       -43.3431   18.6929   16.3816 H         1 I53         0.0513
@<TRIPOS>BOND
     1   21    1 1  
     2    1   22 1  
     3    3    2 1  
     4    2   12 2  
     5    2   21 1  
     6   24    3 1  
     7    4   24 1  
     8   25    4 1  
     9    5   25 1  
    10   26    5 1  
    11    6   26 1  
    12    6   27 2  
    13   28    6 1  
    14    8    7 ar 
    15    7   11 ar 
    16    7   28 1  
    17   29    8 ar 
    18    9   10 ar 
    19    9   29 ar 
    20   10   11 ar 
    21   11   27 1  
    22   12   13 1  
    23   13   14 ar 
    24   13   17 ar 
    25   14   15 ar 
    26   14   19 1  
    27   15   16 ar 
    28   16   18 1  
    29   16   20 ar 
    30   17   20 ar 
    31   17   21 1  
    32   22   23 1  
    33    1   30 1  
    34    1   31 1  
    35    3   32 1  
    36    3   33 1  
    37    4   34 1  
    38    4   35 1  
    39    5   36 1  
    40    5   37 1  
    41    8   38 1  
    42    9   39 1  
    43   10   40 1  
    44   12   41 1  
    45   15   42 1  
    46   20   43 1  
    47   22   44 1  
    48   22   45 1  
    49   23   46 1  
    50   24   47 1  
    51   24   48 1  
    52   25   49 1  
    53   25   50 1  
    54   26   51 1  
    55   28   52 1  
    56   29   53 1  
@<TRIPOS>SUBSTRUCTURE
     1 I53         1

