### 
### Created by X-TOOL on Mon Sep 10 21:13:28 2018
### 

@<TRIPOS>MOLECULE
5tr6_ligand
   47    50     1     0     0
SMALL
GAST_HUCK


@<TRIPOS>ATOM
      1 C4         -1.1880    0.2530   14.7710 C.2       1 7KG         0.0158
      2 C5          0.0850    0.0120   14.2070 C.2       1 7KG         0.0095
      3 C7         -2.3690   -0.6310   14.5290 C.ar      1 7KG         0.0276
      4 C13        -1.2170   -4.9490   11.0790 C.3       1 7KG        -0.0248
      5 C15         1.0630   -5.7490   11.8900 C.3       1 7KG        -0.0478
      6 C17        -0.5490   -4.6280   13.5260 C.3       1 7KG        -0.0011
      7 C20        -4.3720   -2.4520   13.9000 C.ar      1 7KG         0.1771
      8 C22        -4.6910   -1.3420   14.6480 C.ar      1 7KG         0.0344
      9 C1          0.7950    3.0490   16.0220 C.3       1 7KG         0.0625
     10 N2          0.2070    1.8510   15.4060 N.pl3     1 7KG        -0.2023
     11 C3         -1.0720    1.4110   15.5080 C.2       1 7KG         0.0696
     12 N6          0.9030    0.9580   14.5820 N.2       1 7KG        -0.2112
     13 N8         -2.1320   -1.7280   13.7920 N.ar      1 7KG        -0.2968
     14 C9         -3.0510   -2.6390   13.4610 C.ar      1 7KG         0.1347
     15 N10        -2.7150   -3.7580   12.6920 N.pl3     1 7KG        -0.3001
     16 C11        -1.3070   -4.0270   12.3190 C.3       1 7KG         0.0804
     17 C14         0.2650   -5.1720   10.7030 C.3       1 7KG        -0.0506
     18 C16         0.9340   -4.8550   13.1460 C.3       1 7KG        -0.0076
     19 N19        -1.1730   -5.8900   13.9810 N.4       1 7KG         0.2224
     20 F21        -5.3490   -3.3310   13.6050 F         1 7KG        -0.1927
     21 C23        -5.9880   -0.8880   15.2570 C.3       1 7KG         0.0700
     22 N24        -5.6680    0.3400   15.9800 N.am      1 7KG        -0.2761
     23 C25        -4.3770    0.6320   15.8200 C.2       1 7KG         0.1950
     24 O26        -3.8740    1.6050   16.3460 O.2       1 7KG        -0.3945
     25 C27        -3.6960   -0.3890   14.9930 C.ar      1 7KG         0.0619
     26 H1          0.3424   -0.8277   13.5631 H         1 7KG         0.0687
     27 H2         -1.7417   -4.4785   10.2345 H         1 7KG         0.0289
     28 H3         -1.6858   -5.9173   11.3084 H         1 7KG         0.0289
     29 H4          2.1239   -5.8184   11.6078 H         1 7KG         0.0267
     30 H5          0.6795   -6.7529   12.1246 H         1 7KG         0.0267
     31 H6         -0.5904   -3.9069   14.3556 H         1 7KG         0.0873
     32 H7          0.0296    3.5684   16.6173 H         1 7KG         0.0609
     33 H8          1.1660    3.7216   15.2347 H         1 7KG         0.0609
     34 H9          1.6293    2.7536   16.6751 H         1 7KG         0.0609
     35 H10        -1.8691    1.8902   16.0744 H         1 7KG         0.1083
     36 H11        -3.4557   -4.4028   12.3813 H         1 7KG         0.1809
     37 H12        -0.8329   -3.0687   12.0605 H         1 7KG         0.0610
     38 H13         0.7084   -4.2098   10.4070 H         1 7KG         0.0266
     39 H14         0.3188   -5.8756    9.8592 H         1 7KG         0.0266
     40 H15         1.4046   -3.8818   12.9427 H         1 7KG         0.0320
     41 H16         1.4486   -5.3426   13.9871 H         1 7KG         0.0320
     42 H17        -2.1366   -5.7201   14.2231 H         1 7KG         0.1998
     43 H18        -0.6797   -6.2366   14.7889 H         1 7KG         0.1998
     44 H19        -1.1278   -6.5730   13.2411 H         1 7KG         0.1998
     45 H20        -6.3769   -1.6509   15.9475 H         1 7KG         0.0707
     46 H21        -6.7330   -0.6896   14.4724 H         1 7KG         0.0707
     47 H22        -6.3186    0.8799   16.5141 H         1 7KG         0.1868
@<TRIPOS>BOND
     1    1    2 1  
     2    3    1 1  
     3    1   11 2  
     4    2   12 2  
     5   13    3 ar 
     6    3   25 ar 
     7   16    4 1  
     8    4   17 1  
     9   17    5 1  
    10   18    5 1  
    11   16    6 1  
    12    6   18 1  
    13    6   19 1  
    14    7    8 ar 
    15   14    7 ar 
    16    7   20 1  
    17    8   21 1  
    18    8   25 ar 
    19   10    9 1  
    20   11   10 1  
    21   10   12 1  
    22   14   13 ar 
    23   15   14 1  
    24   15   16 1  
    25   21   22 1  
    26   22   23 am 
    27   23   24 2  
    28   23   25 1  
    29    2   26 1  
    30    4   27 1  
    31    4   28 1  
    32    5   29 1  
    33    5   30 1  
    34    6   31 1  
    35    9   32 1  
    36    9   33 1  
    37    9   34 1  
    38   11   35 1  
    39   15   36 1  
    40   16   37 1  
    41   17   38 1  
    42   17   39 1  
    43   18   40 1  
    44   18   41 1  
    45   19   42 1  
    46   19   43 1  
    47   19   44 1  
    48   21   45 1  
    49   21   46 1  
    50   22   47 1  
@<TRIPOS>SUBSTRUCTURE
     1 7KG         1

