### 
### Created by X-TOOL on Mon Sep 10 21:13:28 2018
### 

@<TRIPOS>MOLECULE
5trf_ligand
   73    77     1     0     0
SMALL
GAST_HUCK


@<TRIPOS>ATOM
      1 O3        -12.1650   17.1860   22.2720 O.2       1 7HC        -0.3202
      2 C9        -11.1330   14.0330   28.2800 C.3       1 7HC         0.0424
      3 C8        -11.7120   15.9220   26.7680 C.2       1 7HC         0.2258
      4 O1        -11.9850   16.7030   27.6760 O.2       1 7HC        -0.3907
      5 C12       -11.4570   11.7650   30.1580 C.3       1 7HC         0.0554
      6 C13       -10.1240   12.0590   29.4950 C.3       1 7HC        -0.0248
      7 C11       -12.2870   13.0270   30.2880 C.3       1 7HC        -0.0248
      8 C10       -12.4730   13.7270   28.9350 C.3       1 7HC        -0.0276
      9 N1        -11.3190   15.3750   24.3610 N.4       1 7HC         0.2407
     10 C14       -10.3070   12.7590   28.1450 C.3       1 7HC        -0.0276
     11 C15       -10.9500   17.6970   25.0640 C.3       1 7HC         0.0374
     12 O2        -11.2270   11.2320   31.4660 O.3       1 7HC        -0.3918
     13 C7        -11.8200   16.3680   25.3160 C.3       1 7HC         0.0672
     14 C5         -9.5450   15.0940   22.6020 C.3       1 7HC        -0.0158
     15 C4         -7.2540   14.2610   23.2290 C.3       1 7HC        -0.0599
     16 C2         -8.6340   13.8520   22.7290 C.3       1 7HC        -0.0339
     17 C1         -8.4860   13.2120   21.3540 C.3       1 7HC        -0.0599
     18 C25        -8.1220   19.6340   21.6770 C.ar      1 7HC         0.0042
     19 C26        -6.9570   19.8050   22.4010 C.ar      1 7HC         0.0579
     20 C24        -9.1160   18.8050   22.1930 C.ar      1 7HC         0.0940
     21 N2        -11.3220   14.6560   26.9720 N.am      1 7HC        -0.2792
     22 C23       -11.0520   17.6600   22.4910 C.2       1 7HC         0.2158
     23 C22       -10.1700   17.3530   23.7380 C.3       1 7HC         0.0941
     24 C21       -10.8700   20.1790   25.4840 C.ar      1 7HC         0.1466
     25 C19       -12.7080   21.6500   25.0080 C.ar      1 7HC        -0.0566
     26 C20       -11.4120   21.4390   25.4480 C.ar      1 7HC         0.0668
     27 C18       -13.4750   20.5580   24.6170 C.ar      1 7HC        -0.0720
     28 C16       -11.6310   19.0570   25.0870 C.ar      1 7HC        -0.0093
     29 C28        -7.7340   18.3140   24.1010 C.ar      1 7HC        -0.0548
     30 C29        -8.9300   18.1490   23.4080 C.ar      1 7HC        -0.0202
     31 N3        -10.3700   18.5030   21.6840 N.am      1 7HC        -0.2203
     32 C17       -12.9440   19.2700   24.6670 C.ar      1 7HC        -0.0624
     33 C27        -6.7450   19.1470   23.6050 C.ar      1 7HC        -0.0343
     34 C3         -9.2410   12.8310   23.6920 C.3       1 7HC        -0.0599
     35 C6         -9.9850   15.8170   23.8860 C.3       1 7HC        -0.0373
     36 CL2        -5.7380   20.8830   21.7900 Cl        1 7HC        -0.0481
     37 F          -9.6100   20.0720   25.9300 F         1 7HC        -0.1883
     38 CL1       -10.4430   22.7850   25.9450 Cl        1 7HC        -0.0741
     39 H1        -10.5854   14.7373   28.9235 H         1 7HC         0.0556
     40 H2        -12.0068   11.0300   29.5518 H         1 7HC         0.0593
     41 H3         -9.5880   11.1117   29.3359 H         1 7HC         0.0291
     42 H4         -9.5321   12.7087   30.1564 H         1 7HC         0.0291
     43 H5        -11.7808   13.7168   30.9794 H         1 7HC         0.0291
     44 H6        -13.2757   12.7632   30.6916 H         1 7HC         0.0291
     45 H7        -13.0553   13.0721   28.2702 H         1 7HC         0.0288
     46 H8        -13.0186   14.6693   29.0914 H         1 7HC         0.0288
     47 H9        -11.9523   15.3034   23.5801 H         1 7HC         0.2027
     48 H10       -11.2397   14.4774   24.8127 H         1 7HC         0.2027
     49 H11        -9.3174   13.0166   27.7396 H         1 7HC         0.0288
     50 H12       -10.8191   12.0732   27.4541 H         1 7HC         0.0288
     51 H13       -10.2121   17.7497   25.8781 H         1 7HC         0.0399
     52 H14       -10.7071   10.4398   31.3970 H         1 7HC         0.2098
     53 H15       -12.8787   16.5728   25.0989 H         1 7HC         0.1112
     54 H16       -10.4590   14.7740   22.0803 H         1 7HC         0.0312
     55 H17        -9.0080   15.8285   21.9838 H         1 7HC         0.0312
     56 H18        -6.6160   13.3691   23.3150 H         1 7HC         0.0235
     57 H19        -7.3483   14.7407   24.2144 H         1 7HC         0.0235
     58 H20        -6.8014   14.9684   22.5186 H         1 7HC         0.0235
     59 H21        -9.4762   12.9117   20.9809 H         1 7HC         0.0235
     60 H22        -7.8385   12.3260   21.4297 H         1 7HC         0.0235
     61 H23        -8.0365   13.9363   20.6588 H         1 7HC         0.0235
     62 H24        -8.2597   20.1353   20.7258 H         1 7HC         0.0594
     63 H25       -11.1464   14.0929   26.1645 H         1 7HC         0.1856
     64 H26       -13.1188   22.6524   24.9689 H         1 7HC         0.0555
     65 H27       -14.4913   20.7091   24.2715 H         1 7HC         0.0565
     66 H28        -7.5758   17.7870   25.0350 H         1 7HC         0.0770
     67 H29       -10.7270   18.8654   20.8231 H         1 7HC         0.2402
     68 H30       -13.5579   18.4251   24.3764 H         1 7HC         0.0547
     69 H31        -5.8177   19.2834   24.1496 H         1 7HC         0.0595
     70 H32        -9.3509   13.2861   24.6874 H         1 7HC         0.0235
     71 H33        -8.5806   11.9540   23.7608 H         1 7HC         0.0235
     72 H34       -10.2281   12.5185   23.3207 H         1 7HC         0.0235
     73 H35        -9.2271   15.6126   24.6566 H         1 7HC         0.0704
@<TRIPOS>BOND
     1   22    1 2  
     2    2    8 1  
     3    2   10 1  
     4   21    2 1  
     5    3    4 2  
     6   13    3 1  
     7    3   21 am 
     8    6    5 1  
     9    7    5 1  
    10    5   12 1  
    11   10    6 1  
    12    8    7 1  
    13   13    9 1  
    14   35    9 1  
    15   11   13 1  
    16   11   23 1  
    17   28   11 1  
    18   14   16 1  
    19   35   14 1  
    20   16   15 1  
    21   16   17 1  
    22   16   34 1  
    23   18   19 ar 
    24   20   18 ar 
    25   19   33 ar 
    26   19   36 1  
    27   30   20 ar 
    28   20   31 1  
    29   23   22 1  
    30   22   31 am 
    31   23   30 1  
    32   23   35 1  
    33   24   26 ar 
    34   24   28 ar 
    35   24   37 1  
    36   26   25 ar 
    37   25   27 ar 
    38   26   38 1  
    39   27   32 ar 
    40   28   32 ar 
    41   30   29 ar 
    42   29   33 ar 
    43    2   39 1  
    44    5   40 1  
    45    6   41 1  
    46    6   42 1  
    47    7   43 1  
    48    7   44 1  
    49    8   45 1  
    50    8   46 1  
    51    9   47 1  
    52    9   48 1  
    53   10   49 1  
    54   10   50 1  
    55   11   51 1  
    56   12   52 1  
    57   13   53 1  
    58   14   54 1  
    59   14   55 1  
    60   15   56 1  
    61   15   57 1  
    62   15   58 1  
    63   17   59 1  
    64   17   60 1  
    65   17   61 1  
    66   18   62 1  
    67   21   63 1  
    68   25   64 1  
    69   27   65 1  
    70   29   66 1  
    71   31   67 1  
    72   32   68 1  
    73   33   69 1  
    74   34   70 1  
    75   34   71 1  
    76   34   72 1  
    77   35   73 1  
@<TRIPOS>SUBSTRUCTURE
     1 7HC         1

