### 
### Created by X-TOOL on Mon Sep 10 21:13:31 2018
### 

@<TRIPOS>MOLECULE
5trg_ligand
   87    90     1     0     0
SMALL
GAST_HUCK


@<TRIPOS>ATOM
      1 C37        -8.4230  -26.9150   31.8420 C.2       1 7HJ         0.1803
      2 O46        -8.1370  -27.9760   32.3810 O.2       1 7HJ        -0.3967
      3 C38        -7.4740  -25.7380   31.8920 C.3       1 7HJ         0.0470
      4 C39        -6.2190  -25.8650   31.0460 C.3       1 7HJ        -0.0022
      5 C40        -5.2420  -24.7560   31.1990 C.ar      1 7HJ        -0.0408
      6 C41        -5.3750  -23.6090   30.4380 C.ar      1 7HJ        -0.0602
      7 C42        -4.4950  -22.5560   30.5830 C.ar      1 7HJ        -0.0686
      8 C43        -3.4540  -22.6020   31.5050 C.ar      1 7HJ        -0.0687
      9 C44        -3.3120  -23.7280   32.2920 C.ar      1 7HJ        -0.0686
     10 C45        -4.1990  -24.7850   32.1390 C.ar      1 7HJ        -0.0602
     11 O01       -10.0520  -28.0810   28.7260 O.2       1 7HJ        -0.3942
     12 C02       -10.3480  -28.6880   29.7260 C.2       1 7HJ         0.2064
     13 C27       -10.6720  -27.8510   31.0120 C.3       1 7HJ         0.1475
     14 C28       -12.0810  -27.2580   30.7000 C.3       1 7HJ         0.0777
     15 C29       -12.9630  -26.7810   31.8350 C.2       1 7HJ         0.1830
     16 N30       -13.8160  -25.6310   31.5980 N.am      1 7HJ        -0.2736
     17 C31       -14.6710  -25.1370   32.6630 C.3       1 7HJ         0.0310
     18 C32       -13.9710  -24.4780   33.8500 C.3       1 7HJ        -0.0446
     19 C33       -13.8650  -24.8810   30.3310 C.3       1 7HJ         0.0310
     20 C34       -14.8820  -25.4470   29.3690 C.3       1 7HJ        -0.0446
     21 O35       -12.9620  -27.3430   32.9100 O.2       1 7HJ        -0.3966
     22 N36        -9.6610  -26.7880   31.1680 N.am      1 7HJ        -0.2634
     23 N03       -10.3880  -30.0580   29.7010 N.am      1 7HJ        -0.2619
     24 C04       -10.1230  -30.8270   28.5500 C.3       1 7HJ         0.1399
     25 C05       -11.3620  -31.4480   28.0880 C.2       1 7HJ         0.2056
     26 O18       -12.1500  -31.8330   28.9160 O.2       1 7HJ        -0.3942
     27 C19        -9.0750  -31.9010   28.8950 C.3       1 7HJ         0.0196
     28 C20        -7.7220  -31.2680   29.0840 C.ar      1 7HJ        -0.0424
     29 C21        -7.2850  -30.7890   30.3330 C.ar      1 7HJ        -0.0618
     30 C26        -6.8920  -31.0420   27.9890 C.ar      1 7HJ        -0.0618
     31 C22        -6.0550  -30.1660   30.4740 C.ar      1 7HJ        -0.0349
     32 C25        -5.6640  -30.4270   28.0920 C.ar      1 7HJ        -0.0349
     33 C23        -5.2550  -29.9990   29.3350 C.ar      1 7HJ         0.1248
     34 F24        -4.0630  -29.4090   29.4310 F         1 7HJ        -0.1893
     35 C11       -15.0620  -29.2500   23.5950 C.ar      1 7HJ        -0.0631
     36 C10       -14.3550  -30.2460   23.0190 C.ar      1 7HJ        -0.0706
     37 C12       -15.0780  -29.1060   25.0010 C.ar      1 7HJ        -0.0242
     38 C14       -14.4570  -29.8160   27.1910 C.ar      1 7HJ        -0.0547
     39 C13       -14.3810  -29.9990   25.7830 C.ar      1 7HJ        -0.0102
     40 C15       -15.1800  -28.8250   27.7770 C.ar      1 7HJ        -0.0625
     41 N06       -11.6280  -31.4980   26.7280 N.am      1 7HJ        -0.2727
     42 C07       -12.8530  -32.0430   26.0770 C.3       1 7HJ         0.0668
     43 C08       -13.6410  -31.0520   25.2060 C.ar      1 7HJ        -0.0103
     44 C09       -13.6390  -31.1390   23.8280 C.ar      1 7HJ        -0.0588
     45 C16       -15.8910  -27.9270   26.9690 C.ar      1 7HJ        -0.0629
     46 C17       -15.8320  -28.0780   25.6040 C.ar      1 7HJ        -0.0569
     47 H1         -7.1633  -25.5990   32.9380 H         1 7HJ         0.0525
     48 H2         -8.0223  -24.8475   31.5509 H         1 7HJ         0.0525
     49 H3         -6.5228  -25.9084   29.9897 H         1 7HJ         0.0451
     50 H4         -5.7155  -26.8034   31.3216 H         1 7HJ         0.0451
     51 H5         -6.1817  -23.5361   29.7176 H         1 7HJ         0.0557
     52 H6         -4.6174  -21.6738   29.9651 H         1 7HJ         0.0599
     53 H7         -2.7670  -21.7693   31.6038 H         1 7HJ         0.0559
     54 H8         -2.5141  -23.7860   33.0235 H         1 7HJ         0.0599
     55 H9         -4.0827  -25.6617   32.7658 H         1 7HJ         0.0557
     56 H10       -10.6961  -28.4822   31.9125 H         1 7HJ         0.0826
     57 H11       -12.6436  -28.0372   30.1649 H         1 7HJ         0.0551
     58 H12       -11.9241  -26.3964   30.0344 H         1 7HJ         0.0551
     59 H13       -15.2509  -25.9887   33.0481 H         1 7HJ         0.0519
     60 H14       -15.3554  -24.3955   32.2251 H         1 7HJ         0.0519
     61 H15       -14.7228  -24.1490   34.5825 H         1 7HJ         0.0249
     62 H16       -13.3953  -23.6086   33.4997 H         1 7HJ         0.0249
     63 H17       -13.2909  -25.2019   34.3227 H         1 7HJ         0.0249
     64 H18       -12.8722  -24.9188   29.8589 H         1 7HJ         0.0519
     65 H19       -14.1279  -23.8353   30.5488 H         1 7HJ         0.0519
     66 H20       -14.8797  -24.8543   28.4424 H         1 7HJ         0.0249
     67 H21       -15.8814  -25.4077   29.8269 H         1 7HJ         0.0249
     68 H22       -14.6257  -26.4912   29.1369 H         1 7HJ         0.0249
     69 H23        -9.8690  -25.8984   30.7613 H         1 7HJ         0.1884
     70 H24       -10.6182  -30.5389   30.5471 H         1 7HJ         0.1885
     71 H25        -9.7272  -30.1760   27.7565 H         1 7HJ         0.0823
     72 H26        -9.0220  -32.6330   28.0756 H         1 7HJ         0.0466
     73 H27        -9.3701  -32.4110   29.8239 H         1 7HJ         0.0466
     74 H28        -7.9226  -30.9096   31.2014 H         1 7HJ         0.0547
     75 H29        -7.2279  -31.3650   27.0103 H         1 7HJ         0.0547
     76 H30        -5.7191  -29.8157   31.4433 H         1 7HJ         0.0587
     77 H31        -5.0373  -30.2840   27.2192 H         1 7HJ         0.0587
     78 H32       -15.6202  -28.5572   22.9757 H         1 7HJ         0.0542
     79 H33       -14.3413  -30.3539   21.9405 H         1 7HJ         0.0595
     80 H34       -13.9110  -30.5012   27.8293 H         1 7HJ         0.0628
     81 H35       -15.2063  -28.7304   28.8565 H         1 7HJ         0.0601
     82 H36       -10.9242  -31.1298   26.1204 H         1 7HJ         0.1881
     83 H37       -13.5246  -32.4047   26.8695 H         1 7HJ         0.0696
     84 H38       -12.5502  -32.8867   25.4395 H         1 7HJ         0.0696
     85 H39       -13.0631  -31.9261   23.3549 H         1 7HJ         0.0530
     86 H40       -16.4759  -27.1290   27.4119 H         1 7HJ         0.0616
     87 H41       -16.3804  -27.3876   24.9734 H         1 7HJ         0.0609
@<TRIPOS>BOND
     1    1    2 2  
     2    1    3 1  
     3   22    1 am 
     4    3    4 1  
     5    4    5 1  
     6    5    6 ar 
     7    5   10 ar 
     8    6    7 ar 
     9    7    8 ar 
    10    9    8 ar 
    11   10    9 ar 
    12   12   11 2  
    13   12   13 1  
    14   23   12 am 
    15   13   14 1  
    16   13   22 1  
    17   14   15 1  
    18   15   16 am 
    19   15   21 2  
    20   16   17 1  
    21   16   19 1  
    22   17   18 1  
    23   19   20 1  
    24   24   23 1  
    25   25   24 1  
    26   24   27 1  
    27   25   26 2  
    28   41   25 am 
    29   27   28 1  
    30   28   29 ar 
    31   28   30 ar 
    32   29   31 ar 
    33   30   32 ar 
    34   31   33 ar 
    35   32   33 ar 
    36   33   34 1  
    37   35   36 ar 
    38   37   35 ar 
    39   36   44 ar 
    40   39   37 ar 
    41   37   46 ar 
    42   39   38 ar 
    43   38   40 ar 
    44   43   39 ar 
    45   40   45 ar 
    46   42   41 1  
    47   42   43 1  
    48   43   44 ar 
    49   45   46 ar 
    50    3   47 1  
    51    3   48 1  
    52    4   49 1  
    53    4   50 1  
    54    6   51 1  
    55    7   52 1  
    56    8   53 1  
    57    9   54 1  
    58   10   55 1  
    59   13   56 1  
    60   14   57 1  
    61   14   58 1  
    62   17   59 1  
    63   17   60 1  
    64   18   61 1  
    65   18   62 1  
    66   18   63 1  
    67   19   64 1  
    68   19   65 1  
    69   20   66 1  
    70   20   67 1  
    71   20   68 1  
    72   22   69 1  
    73   23   70 1  
    74   24   71 1  
    75   27   72 1  
    76   27   73 1  
    77   29   74 1  
    78   30   75 1  
    79   31   76 1  
    80   32   77 1  
    81   35   78 1  
    82   36   79 1  
    83   38   80 1  
    84   40   81 1  
    85   41   82 1  
    86   42   83 1  
    87   42   84 1  
    88   44   85 1  
    89   45   86 1  
    90   46   87 1  
@<TRIPOS>SUBSTRUCTURE
     1 7HJ         1

