### 
### Created by X-TOOL on Mon Sep 10 21:13:29 2018
### 

@<TRIPOS>MOLECULE
5trh_ligand
   42    44     1     0     0
SMALL
GAST_HUCK


@<TRIPOS>ATOM
      1 C18        21.8990    5.5610   10.2320 C.ar      1 7HL        -0.0415
      2 C17        24.2780    7.2850   13.9110 C.ar      1 7HL        -0.0130
      3 C15        20.7640    5.0440   10.8440 C.ar      1 7HL         0.0557
      4 C19        19.5760    4.9990   10.1260 C.ar      1 7HL        -0.0415
      5 C20        24.6620    7.1770   12.5830 C.ar      1 7HL        -0.0572
      6 C21        23.8350    8.5200   14.3700 C.ar      1 7HL        -0.0572
      7 C22        21.8450    5.9990    8.9220 C.ar      1 7HL        -0.0562
      8 C23        19.5340    5.4270    8.8140 C.ar      1 7HL        -0.0562
      9 C24        24.5590    8.2530   11.7170 C.ar      1 7HL        -0.0545
     10 C11        24.1960    6.0550   14.7690 C.3       1 7HL         0.1014
     11 C12        22.7760    2.2640   16.3490 C.ar      1 7HL        -0.0825
     12 C27        24.0680    9.4520   12.1890 C.ar      1 7HL         0.0330
     13 CL1        23.8270   10.7760   11.0780 Cl        1 7HL        -0.0771
     14 C2         22.1100    3.2110   13.8210 C.ar      1 7HL         0.1120
     15 C3         22.9130    3.9800   14.6790 C.ar      1 7HL         0.1195
     16 C4         21.5860    1.9840   14.2680 C.ar      1 7HL         0.0227
     17 N5         21.8310    3.6690   12.5060 N.am      1 7HL        -0.2325
     18 O6         23.0950    5.2800   14.2720 O.3       1 7HL        -0.3107
     19 C7         23.2780    3.4850   15.9240 C.ar      1 7HL        -0.0431
     20 C8         21.9240    1.5270   15.5410 C.ar      1 7HL        -0.0724
     21 C9         20.6550    1.1900   13.4100 C.2       1 7HL         0.0518
     22 C10        20.8070    4.5090   12.2320 C.2       1 7HL         0.2312
     23 O13        21.2670    0.3930   12.5800 O.co2     1 7HL        -0.5660
     24 O14        19.4290    1.3190   13.4520 O.co2     1 7HL        -0.5660
     25 O16        19.9620    4.8360   13.0560 O.2       1 7HL        -0.3737
     26 C25        23.7170    9.6040   13.5120 C.ar      1 7HL        -0.0545
     27 C26        20.6630    5.9350    8.2150 C.ar      1 7HL        -0.0576
     28 H1         22.8302    5.6211   10.7837 H         1 7HL         0.0669
     29 H2         18.6752    4.6251   10.5991 H         1 7HL         0.0669
     30 H3         25.0497    6.2336   12.2160 H         1 7HL         0.0558
     31 H4         23.5773    8.6383   15.4163 H         1 7HL         0.0558
     32 H5         22.7362    6.3947    8.4483 H         1 7HL         0.0629
     33 H6         18.6080    5.3624    8.2541 H         1 7HL         0.0629
     34 H7         24.8608    8.1538   10.6806 H         1 7HL         0.0606
     35 H8         24.0197    6.3352   15.8180 H         1 7HL         0.0774
     36 H9         25.1297    5.4782   14.6955 H         1 7HL         0.0774
     37 H10        23.0531    1.8814   17.3246 H         1 7HL         0.0468
     38 H11        22.4134    3.3589   11.7546 H         1 7HL         0.2240
     39 H12        23.9509    4.0492   16.5595 H         1 7HL         0.0515
     40 H13        21.5178    0.5889   15.9015 H         1 7HL         0.0516
     41 H14        23.3535   10.5574   13.8780 H         1 7HL         0.0606
     42 H15        20.6237    6.2842    7.1895 H         1 7HL         0.0652
@<TRIPOS>BOND
     1    3    1 ar 
     2    1    7 ar 
     3    2    5 ar 
     4    2    6 ar 
     5   10    2 1  
     6    3    4 ar 
     7   22    3 1  
     8    4    8 ar 
     9    5    9 ar 
    10    6   26 ar 
    11    7   27 ar 
    12    8   27 ar 
    13    9   12 ar 
    14   18   10 1  
    15   19   11 ar 
    16   20   11 ar 
    17   12   13 1  
    18   26   12 ar 
    19   14   15 ar 
    20   14   16 ar 
    21   17   14 1  
    22   15   18 1  
    23   15   19 ar 
    24   16   20 ar 
    25   16   21 1  
    26   17   22 am 
    27   21   23 ar 
    28   21   24 ar 
    29   22   25 2  
    30    1   28 1  
    31    4   29 1  
    32    5   30 1  
    33    6   31 1  
    34    7   32 1  
    35    8   33 1  
    36    9   34 1  
    37   10   35 1  
    38   10   36 1  
    39   11   37 1  
    40   17   38 1  
    41   19   39 1  
    42   20   40 1  
    43   26   41 1  
    44   27   42 1  
@<TRIPOS>SUBSTRUCTURE
     1 7HL         1

