### 
### Created by X-TOOL on Mon Sep 10 21:13:28 2018
### 

@<TRIPOS>MOLECULE
5tri_ligand
   43    46     1     0     0
SMALL
GAST_HUCK


@<TRIPOS>ATOM
      1 C13        23.9510    7.8320   14.8110 C.3       1 7HM         0.1014
      2 C18        22.7090   10.8130   12.8610 C.ar      1 7HM        -0.0545
      3 C17        23.4570   10.6990   11.7140 C.ar      1 7HM         0.0330
      4 C16        24.4510    9.7480   11.6010 C.ar      1 7HM        -0.0545
      5 C15        24.6800    8.8850   12.6590 C.ar      1 7HM        -0.0572
      6 C19        22.9500    9.9460   13.9090 C.ar      1 7HM        -0.0572
      7 C20        22.7220    5.6110   11.5320 C.3       1 7HM         0.0911
      8 C21        21.6800    5.5750   10.4540 C.ar      1 7HM         0.0055
      9 C22        20.5200    4.9910   10.9370 C.ar      1 7HM         0.0599
     10 C23        20.7400    4.5680   12.3370 C.2       1 7HM         0.2309
     11 C27        19.4910    5.2300    8.7870 C.ar      1 7HM        -0.0631
     12 CL1        23.1090   11.7380   10.3630 Cl        1 7HM        -0.0771
     13 C2         23.5620    2.7780   15.3150 C.ar      1 7HM        -0.0724
     14 C3         22.9120    3.1600   14.1400 C.ar      1 7HM         0.0230
     15 C4         22.7900    4.5200   13.8140 C.ar      1 7HM         0.1167
     16 C5         23.3520    5.4790   14.6670 C.ar      1 7HM         0.1198
     17 C6         24.0150    5.0850   15.8290 C.ar      1 7HM        -0.0431
     18 C7         24.1160    3.7390   16.1450 C.ar      1 7HM        -0.0826
     19 C8         22.4110    2.0990   13.2120 C.2       1 7HM         0.0518
     20 O9         21.5030    1.3080   13.7130 O.co2     1 7HM        -0.5660
     21 O10        22.8060    2.0300   12.0490 O.co2     1 7HM        -0.5660
     22 N11        22.0590    4.9100   12.6370 N.am      1 7HM        -0.2069
     23 O12        23.1330    6.7790   14.2840 O.3       1 7HM        -0.3107
     24 C14        23.9090    8.9470   13.8100 C.ar      1 7HM        -0.0130
     25 O24        19.9750    4.0270   13.1030 O.2       1 7HM        -0.3772
     26 C25        21.7360    6.0080    9.1370 C.ar      1 7HM        -0.0520
     27 C26        20.6400    5.8300    8.3070 C.ar      1 7HM        -0.0642
     28 C28        19.4130    4.8270   10.1070 C.ar      1 7HM        -0.0480
     29 H1         24.9846    7.4797   14.9439 H         1 7HM         0.0774
     30 H2         23.5531    8.1744   15.7777 H         1 7HM         0.0774
     31 H3         21.9403   11.5729   12.9423 H         1 7HM         0.0606
     32 H4         25.0441    9.6778   10.6964 H         1 7HM         0.0606
     33 H5         25.4736    8.1501   12.5867 H         1 7HM         0.0558
     34 H6         22.3800   10.0475   14.8254 H         1 7HM         0.0558
     35 H7         22.9710    6.6457   11.8100 H         1 7HM         0.0763
     36 H8         23.6362    5.0853   11.2191 H         1 7HM         0.0763
     37 H9         18.6468    5.0747    8.1250 H         1 7HM         0.0571
     38 H10        23.6333    1.7288   15.5781 H         1 7HM         0.0516
     39 H11        24.4508    5.8304   16.4843 H         1 7HM         0.0514
     40 H12        24.6325    3.4361   17.0486 H         1 7HM         0.0468
     41 H13        22.6335    6.4837    8.7585 H         1 7HM         0.0569
     42 H14        20.6843    6.1630    7.2764 H         1 7HM         0.0635
     43 H15        18.4999    4.3879   10.4924 H         1 7HM         0.0650
@<TRIPOS>BOND
     1   23    1 1  
     2    1   24 1  
     3    2    3 ar 
     4    6    2 ar 
     5    4    3 ar 
     6    3   12 1  
     7    5    4 ar 
     8   24    5 ar 
     9   24    6 ar 
    10    7    8 1  
    11   22    7 1  
    12    9    8 ar 
    13    8   26 ar 
    14   10    9 1  
    15    9   28 ar 
    16   22   10 am 
    17   10   25 2  
    18   11   27 ar 
    19   28   11 ar 
    20   14   13 ar 
    21   13   18 ar 
    22   15   14 ar 
    23   14   19 1  
    24   16   15 ar 
    25   15   22 1  
    26   16   17 ar 
    27   16   23 1  
    28   17   18 ar 
    29   19   20 ar 
    30   19   21 ar 
    31   26   27 ar 
    32    1   29 1  
    33    1   30 1  
    34    2   31 1  
    35    4   32 1  
    36    5   33 1  
    37    6   34 1  
    38    7   35 1  
    39    7   36 1  
    40   11   37 1  
    41   13   38 1  
    42   17   39 1  
    43   18   40 1  
    44   26   41 1  
    45   27   42 1  
    46   28   43 1  
@<TRIPOS>SUBSTRUCTURE
     1 7HM         1

