### 
### Created by X-TOOL on Mon Sep 10 21:13:29 2018
### 

@<TRIPOS>MOLECULE
5trj_ligand
   48    50     1     0     0
SMALL
GAST_HUCK


@<TRIPOS>ATOM
      1 C13        24.1760    7.4280   14.7700 C.3       1 7HO         0.1014
      2 C18        22.9090   10.4640   12.9240 C.ar      1 7HO        -0.0545
      3 C17        23.6630   10.4040   11.7740 C.ar      1 7HO         0.0330
      4 C16        24.7000    9.5060   11.6520 C.ar      1 7HO        -0.0545
      5 C15        24.9370    8.6060   12.6770 C.ar      1 7HO        -0.0572
      6 C19        23.1630    9.5660   13.9440 C.ar      1 7HO        -0.0572
      7 C20        21.0830    4.4880   12.4400 C.2       1 7HO         0.2256
      8 C21        20.8110    4.8230   10.9990 C.ar      1 7HO         0.0844
      9 C23        19.4960    4.6330   10.5630 C.ar      1 7HO        -0.0499
     10 C24        19.1170    4.9740    9.2740 C.ar      1 7HO        -0.0671
     11 C27        21.7330    5.3510   10.0820 C.ar      1 7HO         0.1155
     12 CL1        23.2360   11.4090   10.4180 Cl        1 7HO        -0.0771
     13 C2         23.1360    2.5890   16.0130 C.ar      1 7HO        -0.0724
     14 C3         22.5790    2.8270   14.7540 C.ar      1 7HO         0.0226
     15 C4         22.8150    4.0680   14.1250 C.ar      1 7HO         0.1117
     16 C5         23.5720    5.0520   14.7890 C.ar      1 7HO         0.1194
     17 C6         24.1130    4.7900   16.0420 C.ar      1 7HO        -0.0431
     18 C7         23.9090    3.5550   16.6360 C.ar      1 7HO        -0.0826
     19 C8         21.7690    1.7390   14.1190 C.2       1 7HO         0.0518
     20 O9         22.2920    1.2340   13.0340 O.co2     1 7HO        -0.5660
     21 O10        20.6940    1.3720   14.5820 O.co2     1 7HO        -0.5660
     22 N11        22.3780    4.2800   12.7840 N.am      1 7HO        -0.2344
     23 O12        23.7340    6.2280   14.0880 O.3       1 7HO        -0.3108
     24 C14        24.1390    8.5890   13.8140 C.ar      1 7HO        -0.0130
     25 O22        20.1660    4.4120   13.2500 O.2       1 7HO        -0.3799
     26 C25        20.0270    5.5330    8.4060 C.ar      1 7HO        -0.0662
     27 C26        21.3310    5.7490    8.8090 C.ar      1 7HO        -0.0266
     28 O28        23.0540    5.2910   10.4440 O.3       1 7HO        -0.2985
     29 C29        23.9460    4.5620    9.5880 C.3       1 7HO         0.1243
     30 C30        25.0660    5.4960    9.2340 C.2       1 7HO         0.0656
     31 O31        25.0030    6.6370    9.8710 O.co2     1 7HO        -0.5662
     32 O32        25.8820    5.2520    8.3850 O.co2     1 7HO        -0.5662
     33 H1         25.2040    7.2854   15.1344 H         1 7HO         0.0774
     34 H2         23.5102    7.6325   15.6214 H         1 7HO         0.0774
     35 H3         22.1258   11.2061   13.0286 H         1 7HO         0.0606
     36 H4         25.3227    9.5039   10.7647 H         1 7HO         0.0606
     37 H5         25.7581    7.9036   12.5910 H         1 7HO         0.0558
     38 H6         22.5892    9.6265   14.8617 H         1 7HO         0.0558
     39 H7         18.7629    4.2133   11.2424 H         1 7HO         0.0640
     40 H8         18.0981    4.7994    8.9478 H         1 7HO         0.0536
     41 H9         22.9617    1.6398   16.5067 H         1 7HO         0.0516
     42 H10        24.6930    5.5498   16.5532 H         1 7HO         0.0514
     43 H11        24.3593    3.3424   17.5989 H         1 7HO         0.0468
     44 H12        23.0648    4.2750   12.0571 H         1 7HO         0.2236
     45 H13        19.7197    5.8048    7.4026 H         1 7HO         0.0624
     46 H14        22.0370    6.2254    8.1384 H         1 7HO         0.0555
     47 H15        23.4190    4.2403    8.6776 H         1 7HO         0.0788
     48 H16        24.3402    3.6803   10.1145 H         1 7HO         0.0788
@<TRIPOS>BOND
     1   23    1 1  
     2    1   24 1  
     3    2    3 ar 
     4    6    2 ar 
     5    4    3 ar 
     6    3   12 1  
     7    5    4 ar 
     8   24    5 ar 
     9   24    6 ar 
    10    7    8 1  
    11   22    7 am 
    12    7   25 2  
    13    8    9 ar 
    14    8   11 ar 
    15    9   10 ar 
    16   10   26 ar 
    17   11   27 ar 
    18   11   28 1  
    19   14   13 ar 
    20   13   18 ar 
    21   15   14 ar 
    22   14   19 1  
    23   16   15 ar 
    24   15   22 1  
    25   16   17 ar 
    26   16   23 1  
    27   17   18 ar 
    28   19   20 ar 
    29   19   21 ar 
    30   26   27 ar 
    31   28   29 1  
    32   29   30 1  
    33   30   31 ar 
    34   30   32 ar 
    35    1   33 1  
    36    1   34 1  
    37    2   35 1  
    38    4   36 1  
    39    5   37 1  
    40    6   38 1  
    41    9   39 1  
    42   10   40 1  
    43   13   41 1  
    44   17   42 1  
    45   18   43 1  
    46   22   44 1  
    47   26   45 1  
    48   27   46 1  
    49   29   47 1  
    50   29   48 1  
@<TRIPOS>SUBSTRUCTURE
     1 7HO         1

