### 
### Created by X-TOOL on Mon Sep 10 21:13:27 2018
### 

@<TRIPOS>MOLECULE
5trk_ligand
   49    51     1     0     0
SMALL
GAST_HUCK


@<TRIPOS>ATOM
      1 N14        23.9970    0.9160   17.3980 N.am      1 7HH        -0.2752
      2 C16        23.6580   -0.4750   19.4430 C.2       1 7HH         0.0569
      3 C15        23.8950   -0.4220   17.9490 C.3       1 7HH         0.0826
      4 C20        24.1300    7.6200   14.8000 C.3       1 7HH         0.1027
      5 C21        24.1030    8.7170   13.7870 C.ar      1 7HH        -0.0128
      6 C22        24.5930    8.4990   12.5110 C.ar      1 7HH        -0.0572
      7 C23        24.3040    9.3780   11.4830 C.ar      1 7HH        -0.0545
      8 C24        23.5400   10.4920   11.7450 C.ar      1 7HH         0.0330
      9 C12        23.0080    1.4800   16.6830 C.2       1 7HH         0.1948
     10 C27        21.5640    5.9630   10.3930 C.ar      1 7HH        -0.0416
     11 CL1        23.1080   11.5690   10.4440 Cl        1 7HH        -0.0771
     12 C2         23.3210    2.7540   15.9680 C.ar      1 7HH         0.0249
     13 C3         22.7130    3.0080   14.7370 C.ar      1 7HH        -0.0294
     14 C4         22.8670    4.2480   14.1250 C.ar      1 7HH         0.1025
     15 C5         23.6040    5.2530   14.7810 C.ar      1 7HH         0.1212
     16 C6         24.2050    4.9990   16.0050 C.ar      1 7HH        -0.0391
     17 C7         24.0970    3.7440   16.5690 C.ar      1 7HH        -0.0656
     18 N8         22.3800    4.5280   12.8230 N.am      1 7HH        -0.2349
     19 C9         21.0850    4.5040   12.4110 C.2       1 7HH         0.2296
     20 C10        20.8070    4.9780   11.0180 C.ar      1 7HH         0.0554
     21 O11        20.1670    4.1140   13.1230 O.2       1 7HH        -0.3745
     22 O13        21.8790    1.0010   16.5990 O.2       1 7HH        -0.3897
     23 O17        24.0900   -1.6260   19.9890 O.co2     1 7HH        -0.5669
     24 O18        23.1410    0.4180   20.0860 O.co2     1 7HH        -0.5669
     25 O19        23.6860    6.4390   14.1060 O.3       1 7HH        -0.3079
     26 C25        23.0900   10.7570   13.0090 C.ar      1 7HH        -0.0545
     27 C26        23.3920    9.8780   14.0290 C.ar      1 7HH        -0.0572
     28 C28        21.2520    6.3730    9.1080 C.ar      1 7HH        -0.0562
     29 C29        20.1830    5.8230    8.4380 C.ar      1 7HH        -0.0576
     30 C30        19.4090    4.8760    9.0540 C.ar      1 7HH        -0.0562
     31 C31        19.7180    4.4430   10.3320 C.ar      1 7HH        -0.0416
     32 H1         24.8348    1.4387   17.5560 H         1 7HH         0.1863
     33 H2         24.8328   -0.9543   17.7319 H         1 7HH         0.0689
     34 H3         23.0587   -0.9346   17.4512 H         1 7HH         0.0689
     35 H4         23.4524    7.8519   15.6349 H         1 7HH         0.0777
     36 H5         25.1507    7.4780   15.1847 H         1 7HH         0.0777
     37 H6         25.2102    7.6296   12.3152 H         1 7HH         0.0558
     38 H7         24.6753    9.1913   10.4818 H         1 7HH         0.0606
     39 H8         22.4019    6.4117   10.9142 H         1 7HH         0.0669
     40 H9         22.1200    2.2378   14.2573 H         1 7HH         0.0515
     41 H10        24.7558    5.7809   16.5152 H         1 7HH         0.0511
     42 H11        24.6225    3.5252   17.4915 H         1 7HH         0.0517
     43 H12        23.0630    4.7691   12.1336 H         1 7HH         0.2219
     44 H13        22.5033   11.6467   13.2072 H         1 7HH         0.0606
     45 H14        23.0659   10.1017   15.0383 H         1 7HH         0.0558
     46 H15        21.8549    7.1338    8.6254 H         1 7HH         0.0629
     47 H16        19.9545    6.1383    7.4263 H         1 7HH         0.0652
     48 H17        18.5497    4.4632    8.5380 H         1 7HH         0.0629
     49 H18        19.1077    3.6812   10.8034 H         1 7HH         0.0669
@<TRIPOS>BOND
     1    1    3 1  
     2    9    1 am 
     3    3    2 1  
     4    2   23 ar 
     5    2   24 ar 
     6    4    5 1  
     7   25    4 1  
     8    5    6 ar 
     9    5   27 ar 
    10    6    7 ar 
    11    7    8 ar 
    12    8   11 1  
    13    8   26 ar 
    14   12    9 1  
    15    9   22 2  
    16   20   10 ar 
    17   10   28 ar 
    18   13   12 ar 
    19   12   17 ar 
    20   14   13 ar 
    21   14   15 ar 
    22   18   14 1  
    23   15   16 ar 
    24   15   25 1  
    25   16   17 ar 
    26   19   18 am 
    27   19   20 1  
    28   19   21 2  
    29   20   31 ar 
    30   26   27 ar 
    31   28   29 ar 
    32   29   30 ar 
    33   30   31 ar 
    34    1   32 1  
    35    3   33 1  
    36    3   34 1  
    37    4   35 1  
    38    4   36 1  
    39    6   37 1  
    40    7   38 1  
    41   10   39 1  
    42   13   40 1  
    43   16   41 1  
    44   17   42 1  
    45   18   43 1  
    46   26   44 1  
    47   27   45 1  
    48   28   46 1  
    49   29   47 1  
    50   30   48 1  
    51   31   49 1  
@<TRIPOS>SUBSTRUCTURE
     1 7HH         1

