### 
### Created by X-TOOL on Mon Sep 10 21:13:31 2018
### 

@<TRIPOS>MOLECULE
5trr_ligand
   77    79     1     0     0
SMALL
GAST_HUCK


@<TRIPOS>ATOM
      1 C30        -6.5620  -29.7570   36.9370 C.2       1 7HY         0.1803
      2 O39        -6.1870  -30.9240   37.0580 O.2       1 7HY        -0.3967
      3 C31        -5.5930  -28.6170   37.1040 C.3       1 7HY         0.0470
      4 C32        -4.2160  -28.8380   36.4440 C.3       1 7HY        -0.0022
      5 C33        -3.2500  -27.7110   36.5260 C.ar      1 7HY        -0.0408
      6 C34        -3.1680  -26.7090   35.5660 C.ar      1 7HY        -0.0602
      7 C35        -2.2370  -25.6650   35.6910 C.ar      1 7HY        -0.0686
      8 C36        -1.3690  -25.6130   36.7850 C.ar      1 7HY        -0.0687
      9 C37        -1.4450  -26.6160   37.7540 C.ar      1 7HY        -0.0686
     10 C38        -2.3820  -27.6460   37.6150 C.ar      1 7HY        -0.0602
     11 O01        -8.0870  -30.7640   34.2040 O.2       1 7HY        -0.3942
     12 C02        -8.4480  -31.3820   35.1920 C.2       1 7HY         0.2062
     13 C20        -8.8310  -30.6120   36.4740 C.3       1 7HY         0.1475
     14 C21       -10.2670  -30.0550   36.2030 C.3       1 7HY         0.0777
     15 C22       -11.1010  -29.4950   37.3240 C.2       1 7HY         0.1830
     16 N23       -11.9380  -28.3470   37.1010 N.am      1 7HY        -0.2736
     17 C26       -12.7510  -27.8190   38.2050 C.3       1 7HY         0.0310
     18 C27       -11.9360  -27.0700   39.2830 C.3       1 7HY        -0.0446
     19 C24       -12.0270  -27.6710   35.7860 C.3       1 7HY         0.0310
     20 C25       -13.0570  -28.3230   34.8200 C.3       1 7HY        -0.0446
     21 O28       -11.0570  -30.0230   38.4440 O.2       1 7HY        -0.3966
     22 N29        -7.9060  -29.5390   36.6380 N.am      1 7HY        -0.2634
     23 N03        -8.5220  -32.7840   35.1580 N.am      1 7HY        -0.2639
     24 C04        -8.2030  -33.5440   33.9660 C.3       1 7HY         0.1282
     25 C05        -9.5260  -33.9980   33.3200 C.2       1 7HY         0.2034
     26 O18       -10.5090  -34.0980   34.0660 O.2       1 7HY        -0.3944
     27 C19        -7.3900  -34.7470   34.3560 C.3       1 7HY        -0.0244
     28 C11       -13.1270  -31.8620   28.8250 C.ar      1 7HY        -0.0631
     29 C10       -12.3750  -32.8740   28.2420 C.ar      1 7HY        -0.0706
     30 C12       -13.1950  -31.7340   30.2560 C.ar      1 7HY        -0.0242
     31 C14       -12.6050  -32.4750   32.4620 C.ar      1 7HY        -0.0547
     32 C13       -12.4960  -32.6440   31.0580 C.ar      1 7HY        -0.0102
     33 C15       -13.3600  -31.4620   33.0610 C.ar      1 7HY        -0.0625
     34 N06        -9.6540  -34.2770   31.9570 N.am      1 7HY        -0.2729
     35 C07       -10.9400  -34.7220   31.3210 C.3       1 7HY         0.0668
     36 C08       -11.7050  -33.7030   30.4550 C.ar      1 7HY        -0.0103
     37 C09       -11.6600  -33.7980   29.0700 C.ar      1 7HY        -0.0588
     38 C16       -14.0470  -30.5570   32.2490 C.ar      1 7HY        -0.0629
     39 C17       -13.9610  -30.7040   30.8650 C.ar      1 7HY        -0.0569
     40 H1         -5.4349  -28.4569   38.1807 H         1 7HY         0.0525
     41 H2         -6.0441  -27.7165   36.6617 H         1 7HY         0.0525
     42 H3         -4.3871  -29.0540   35.3791 H         1 7HY         0.0451
     43 H4         -3.7515  -29.7113   36.9253 H         1 7HY         0.0451
     44 H5         -3.8317  -26.7338   34.7093 H         1 7HY         0.0557
     45 H6         -2.1913  -24.8925   34.9320 H         1 7HY         0.0599
     46 H7         -0.6491  -24.8081   36.8799 H         1 7HY         0.0559
     47 H8         -0.7807  -26.5966   38.6104 H         1 7HY         0.0599
     48 H9         -2.4345  -28.4159   38.3763 H         1 7HY         0.0557
     49 H10        -8.8211  -31.2675   37.3573 H         1 7HY         0.0826
     50 H11       -10.8460  -30.8807   35.7636 H         1 7HY         0.0551
     51 H12       -10.1564  -29.2497   35.4619 H         1 7HY         0.0551
     52 H13       -13.2695  -28.6613   38.6864 H         1 7HY         0.0519
     53 H14       -13.4927  -27.1229   37.7863 H         1 7HY         0.0519
     54 H15       -12.6142  -26.7081   40.0698 H         1 7HY         0.0249
     55 H16       -11.4184  -26.2151   38.8233 H         1 7HY         0.0249
     56 H17       -11.1952  -27.7535   39.7234 H         1 7HY         0.0249
     57 H18       -11.0356  -27.7030   35.3106 H         1 7HY         0.0519
     58 H19       -12.3204  -26.6240   35.9522 H         1 7HY         0.0519
     59 H20       -13.0682  -27.7707   33.8688 H         1 7HY         0.0249
     60 H21       -14.0580  -28.2902   35.2748 H         1 7HY         0.0249
     61 H22       -12.7732  -29.3692   34.6331 H         1 7HY         0.0249
     62 H23        -8.2322  -28.5993   36.5351 H         1 7HY         0.1884
     63 H24        -8.8039  -33.2738   35.9830 H         1 7HY         0.1883
     64 H25        -7.6335  -32.9214   33.2603 H         1 7HY         0.0797
     65 H26        -7.1432  -35.3301   33.4565 H         1 7HY         0.0277
     66 H27        -7.9703  -35.3723   35.0505 H         1 7HY         0.0277
     67 H28        -6.4616  -34.4189   34.8463 H         1 7HY         0.0277
     68 H29       -13.6669  -31.1631   28.1964 H         1 7HY         0.0542
     69 H30       -12.3295  -32.9641   27.1627 H         1 7HY         0.0595
     70 H31       -12.0747  -33.1682   33.1049 H         1 7HY         0.0628
     71 H32       -13.4114  -31.3802   34.1407 H         1 7HY         0.0601
     72 H33        -8.8475  -34.1751   31.3745 H         1 7HY         0.1881
     73 H34       -11.6149  -35.0359   32.1309 H         1 7HY         0.0696
     74 H35       -10.7076  -35.5864   30.6817 H         1 7HY         0.0696
     75 H36       -11.0740  -34.5845   28.6083 H         1 7HY         0.0530
     76 H37       -14.6346  -29.7573   32.6853 H         1 7HY         0.0616
     77 H38       -14.4978  -30.0075   30.2311 H         1 7HY         0.0609
@<TRIPOS>BOND
     1    1    2 2  
     2    1    3 1  
     3   22    1 am 
     4    3    4 1  
     5    4    5 1  
     6    5    6 ar 
     7    5   10 ar 
     8    6    7 ar 
     9    7    8 ar 
    10    9    8 ar 
    11   10    9 ar 
    12   12   11 2  
    13   12   13 1  
    14   23   12 am 
    15   13   14 1  
    16   13   22 1  
    17   14   15 1  
    18   15   16 am 
    19   15   21 2  
    20   16   17 1  
    21   16   19 1  
    22   17   18 1  
    23   19   20 1  
    24   24   23 1  
    25   25   24 1  
    26   24   27 1  
    27   25   26 2  
    28   34   25 am 
    29   28   29 ar 
    30   30   28 ar 
    31   29   37 ar 
    32   32   30 ar 
    33   30   39 ar 
    34   32   31 ar 
    35   31   33 ar 
    36   36   32 ar 
    37   33   38 ar 
    38   35   34 1  
    39   35   36 1  
    40   36   37 ar 
    41   38   39 ar 
    42    3   40 1  
    43    3   41 1  
    44    4   42 1  
    45    4   43 1  
    46    6   44 1  
    47    7   45 1  
    48    8   46 1  
    49    9   47 1  
    50   10   48 1  
    51   13   49 1  
    52   14   50 1  
    53   14   51 1  
    54   17   52 1  
    55   17   53 1  
    56   18   54 1  
    57   18   55 1  
    58   18   56 1  
    59   19   57 1  
    60   19   58 1  
    61   20   59 1  
    62   20   60 1  
    63   20   61 1  
    64   22   62 1  
    65   23   63 1  
    66   24   64 1  
    67   27   65 1  
    68   27   66 1  
    69   27   67 1  
    70   28   68 1  
    71   29   69 1  
    72   31   70 1  
    73   33   71 1  
    74   34   72 1  
    75   35   73 1  
    76   35   74 1  
    77   37   75 1  
    78   38   76 1  
    79   39   77 1  
@<TRIPOS>SUBSTRUCTURE
     1 7HY         1

