### 
### Created by X-TOOL on Mon Sep 10 21:13:32 2018
### 

@<TRIPOS>MOLECULE
5trs_ligand
   75    77     1     0     0
SMALL
GAST_HUCK


@<TRIPOS>ATOM
      1 C39        -4.3810  -25.2970   35.8710 C.2       1 7HZ        -0.0165
      2 C37        -3.4510  -24.3240   36.2660 C.2       1 7HZ         0.1392
      3 C38        -2.3070  -23.7340   35.5260 C.3       1 7HZ         0.0097
      4 O36        -3.7910  -23.9790   37.5520 O.3       1 7HZ        -0.1606
      5 N35        -4.8590  -24.6600   37.9860 N.2       1 7HZ        -0.1328
      6 C34        -5.2830  -25.4970   37.0110 C.2       1 7HZ         0.1131
      7 C33        -6.4420  -26.4240   37.0940 C.2       1 7HZ         0.2114
      8 O40        -6.9750  -26.5790   38.2130 O.2       1 7HZ        -0.3853
      9 O01        -7.9100  -28.5120   33.9640 O.2       1 7HZ        -0.3942
     10 C02        -8.1220  -28.9890   35.0980 C.2       1 7HZ         0.2063
     11 C22        -8.1590  -28.0140   36.2110 C.3       1 7HZ         0.1471
     12 C23        -9.5020  -27.2670   36.1460 C.3       1 7HZ         0.0792
     13 C24       -10.3200  -27.0340   37.3670 C.2       1 7HZ         0.2035
     14 N25       -10.7960  -25.7390   37.6880 N.am      1 7HZ        -0.1606
     15 O26       -11.5560  -25.4690   38.7970 O.3       1 7HZ        -0.2508
     16 C27       -12.9130  -25.0860   38.4920 C.3       1 7HZ         0.0925
     17 C28       -13.7030  -26.1990   37.8480 C.3       1 7HZ        -0.0335
     18 C29       -13.6160  -24.6620   39.7710 C.3       1 7HZ        -0.0335
     19 C30       -12.8830  -23.8720   37.5610 C.3       1 7HZ        -0.0335
     20 O31       -10.6080  -28.0010   38.1030 O.2       1 7HZ        -0.3967
     21 N32        -7.0110  -27.1380   36.0620 N.am      1 7HZ        -0.2628
     22 O20        -6.2120  -32.3710   33.9360 O.3       1 7HZ        -0.3783
     23 N03        -8.3100  -30.3400   35.1490 N.am      1 7HZ        -0.2614
     24 C04        -8.2610  -31.1270   33.9540 C.3       1 7HZ         0.1542
     25 C05        -9.6990  -31.3660   33.4360 C.2       1 7HZ         0.2059
     26 O18       -10.5730  -31.4590   34.3240 O.2       1 7HZ        -0.3943
     27 C19        -7.5840  -32.4670   34.2530 C.3       1 7HZ         0.0874
     28 C21        -5.8510  -33.3630   32.9900 C.3       1 7HZ         0.0367
     29 C11       -13.4000  -28.6830   29.2240 C.ar      1 7HZ        -0.0631
     30 C10       -12.7620  -29.7440   28.6330 C.ar      1 7HZ        -0.0706
     31 C12       -13.3990  -28.5570   30.6340 C.ar      1 7HZ        -0.0242
     32 C14       -12.7940  -29.3110   32.7920 C.ar      1 7HZ        -0.0547
     33 C13       -12.7630  -29.4860   31.3890 C.ar      1 7HZ        -0.0102
     34 C15       -13.4320  -28.2540   33.3850 C.ar      1 7HZ        -0.0625
     35 N06       -10.0370  -31.4570   32.1120 N.am      1 7HZ        -0.2728
     36 C07       -11.3630  -31.6960   31.5760 C.3       1 7HZ         0.0668
     37 C08       -12.0760  -30.6030   30.7940 C.ar      1 7HZ        -0.0103
     38 C09       -12.1050  -30.6980   29.4240 C.ar      1 7HZ        -0.0588
     39 C16       -14.0800  -27.3040   32.5990 C.ar      1 7HZ        -0.0629
     40 C17       -14.0640  -27.4480   31.2410 C.ar      1 7HZ        -0.0569
     41 H1         -4.4249  -25.8040   34.9082 H         1 7HZ         0.0312
     42 H2         -1.8001  -22.9946   36.1635 H         1 7HZ         0.0449
     43 H3         -2.6752  -23.2409   34.6143 H         1 7HZ         0.0449
     44 H4         -1.5981  -24.5293   35.2521 H         1 7HZ         0.0449
     45 H5         -8.0881  -28.5383   37.1754 H         1 7HZ         0.0826
     46 H6        -10.1383  -27.8319   35.4489 H         1 7HZ         0.0550
     47 H7         -9.2856  -26.2749   35.7231 H         1 7HZ         0.0550
     48 H8        -10.5661  -24.9833   37.0747 H         1 7HZ         0.2219
     49 H9        -14.7251  -25.8500   37.6394 H         1 7HZ         0.0258
     50 H10       -13.7421  -27.0623   38.5286 H         1 7HZ         0.0258
     51 H11       -13.2177  -26.4960   36.9066 H         1 7HZ         0.0258
     52 H12       -14.6511  -24.3695   39.5408 H         1 7HZ         0.0258
     53 H13       -13.0841  -23.8082   40.2161 H         1 7HZ         0.0258
     54 H14       -13.6217  -25.5014   40.4819 H         1 7HZ         0.0258
     55 H15       -13.9127  -23.5691   37.3202 H         1 7HZ         0.0258
     56 H16       -12.3515  -24.1337   36.6342 H         1 7HZ         0.0258
     57 H17       -12.3633  -23.0404   38.0594 H         1 7HZ         0.0258
     58 H18        -6.6071  -27.0469   35.1517 H         1 7HZ         0.1879
     59 H19        -8.4834  -30.7837   36.0282 H         1 7HZ         0.1884
     60 H20        -7.6827  -30.5910   33.1870 H         1 7HZ         0.0824
     61 H21        -7.6998  -32.7084   35.3199 H         1 7HZ         0.0608
     62 H22        -8.0481  -33.2580   33.6456 H         1 7HZ         0.0608
     63 H23        -4.7801  -33.2732   32.7552 H         1 7HZ         0.0524
     64 H24        -6.4405  -33.2256   32.0715 H         1 7HZ         0.0524
     65 H25        -6.0521  -34.3599   33.4092 H         1 7HZ         0.0524
     66 H26       -13.9037  -27.9429   28.6128 H         1 7HZ         0.0542
     67 H27       -12.7656  -29.8452   27.5537 H         1 7HZ         0.0595
     68 H28       -12.2949  -30.0396   33.4206 H         1 7HZ         0.0628
     69 H29       -13.4326  -28.1569   34.4646 H         1 7HZ         0.0601
     70 H30        -9.2961  -31.3478   31.4493 H         1 7HZ         0.1881
     71 H31       -12.0095  -31.9491   32.4292 H         1 7HZ         0.0696
     72 H32       -11.2829  -32.5648   30.9062 H         1 7HZ         0.0696
     73 H33       -11.6074  -31.5316   28.9418 H         1 7HZ         0.0530
     74 H34       -14.5888  -26.4639   33.0578 H         1 7HZ         0.0616
     75 H35       -14.5609  -26.7135   30.6176 H         1 7HZ         0.0609
@<TRIPOS>BOND
     1    1    2 2  
     2    6    1 1  
     3    2    3 1  
     4    4    2 1  
     5    5    4 1  
     6    6    5 2  
     7    7    6 1  
     8    7    8 2  
     9   21    7 am 
    10   10    9 2  
    11   10   11 1  
    12   23   10 am 
    13   11   12 1  
    14   11   21 1  
    15   12   13 1  
    16   13   14 am 
    17   13   20 2  
    18   14   15 1  
    19   15   16 1  
    20   16   17 1  
    21   16   18 1  
    22   16   19 1  
    23   27   22 1  
    24   22   28 1  
    25   24   23 1  
    26   25   24 1  
    27   24   27 1  
    28   25   26 2  
    29   35   25 am 
    30   29   30 ar 
    31   31   29 ar 
    32   30   38 ar 
    33   33   31 ar 
    34   31   40 ar 
    35   33   32 ar 
    36   32   34 ar 
    37   37   33 ar 
    38   34   39 ar 
    39   36   35 1  
    40   36   37 1  
    41   37   38 ar 
    42   39   40 ar 
    43    1   41 1  
    44    3   42 1  
    45    3   43 1  
    46    3   44 1  
    47   11   45 1  
    48   12   46 1  
    49   12   47 1  
    50   14   48 1  
    51   17   49 1  
    52   17   50 1  
    53   17   51 1  
    54   18   52 1  
    55   18   53 1  
    56   18   54 1  
    57   19   55 1  
    58   19   56 1  
    59   19   57 1  
    60   21   58 1  
    61   23   59 1  
    62   24   60 1  
    63   27   61 1  
    64   27   62 1  
    65   28   63 1  
    66   28   64 1  
    67   28   65 1  
    68   29   66 1  
    69   30   67 1  
    70   32   68 1  
    71   34   69 1  
    72   35   70 1  
    73   36   71 1  
    74   36   72 1  
    75   38   73 1  
    76   39   74 1  
    77   40   75 1  
@<TRIPOS>SUBSTRUCTURE
     1 7HZ         1

