### 
### Created by X-TOOL on Mon Sep 10 21:13:32 2018
### 

@<TRIPOS>MOLECULE
5try_ligand
   82    85     1     0     0
SMALL
GAST_HUCK


@<TRIPOS>ATOM
      1 C33        77.2550  -27.5390  197.3590 C.2       1 7J0         0.1803
      2 O42        77.8320  -28.6010  197.4660 O.2       1 7J0        -0.3967
      3 C34        78.1100  -26.2410  197.5590 C.3       1 7J0         0.0470
      4 C35        79.2010  -25.8880  196.4530 C.3       1 7J0        -0.0022
      5 C36        80.4640  -25.1020  196.8760 C.ar      1 7J0        -0.0408
      6 C37        80.7290  -24.8300  198.2210 C.ar      1 7J0        -0.0602
      7 C38        81.8580  -24.1250  198.6510 C.ar      1 7J0        -0.0686
      8 C39        82.7940  -23.6500  197.7420 C.ar      1 7J0        -0.0687
      9 C40        82.5650  -23.9000  196.3900 C.ar      1 7J0        -0.0686
     10 C41        81.4300  -24.6090  195.9700 C.ar      1 7J0        -0.0602
     11 C22        74.9510  -28.7290  196.8430 C.3       1 7J0         0.1475
     12 C23        73.3820  -28.4370  196.9120 C.3       1 7J0         0.0777
     13 C24        72.7760  -27.6790  198.1530 C.2       1 7J0         0.1830
     14 C26        71.5140  -25.6930  199.1600 C.3       1 7J0         0.0339
     15 C27        70.0540  -25.2160  198.9700 C.3       1 7J0        -0.0325
     16 C28        69.8740  -24.4000  197.7030 C.3       1 7J0        -0.0494
     17 C29        70.3880  -25.2080  196.5190 C.3       1 7J0        -0.0325
     18 C30        71.8340  -25.7160  196.7220 C.3       1 7J0         0.0339
     19 O01        75.5120  -28.8360  194.5120 O.2       1 7J0        -0.3942
     20 C02        75.1590  -29.4570  195.4960 C.2       1 7J0         0.2063
     21 N25        72.0690  -26.4400  197.9860 N.am      1 7J0        -0.2730
     22 O31        72.9100  -28.1430  199.2660 O.2       1 7J0        -0.3966
     23 N32        75.8210  -27.5230  197.0450 N.am      1 7J0        -0.2634
     24 O20        76.9260  -33.1210  194.0000 O.3       1 7J0        -0.3783
     25 N03        74.9210  -30.8300  195.5260 N.am      1 7J0        -0.2614
     26 C04        75.0520  -31.5790  194.2910 C.3       1 7J0         0.1542
     27 C05        73.6200  -31.9280  193.6870 C.2       1 7J0         0.2059
     28 O18        72.6650  -32.1220  194.4050 O.2       1 7J0        -0.3943
     29 C19        75.7100  -32.9510  194.7080 C.3       1 7J0         0.0874
     30 C21        77.0230  -34.3100  193.2370 C.3       1 7J0         0.0367
     31 C11        70.0770  -29.0850  189.6400 C.ar      1 7J0        -0.0631
     32 C10        70.6830  -30.0710  188.9170 C.ar      1 7J0        -0.0706
     33 C12        70.1100  -29.0780  191.0620 C.ar      1 7J0        -0.0242
     34 C14        70.8010  -30.0810  193.1600 C.ar      1 7J0        -0.0547
     35 C13        70.7920  -30.1240  191.7390 C.ar      1 7J0        -0.0102
     36 C15        70.1900  -29.0900  193.8870 C.ar      1 7J0        -0.0625
     37 N06        73.4940  -31.9790  192.2770 N.am      1 7J0        -0.2728
     38 C07        72.1670  -32.2890  191.6550 C.3       1 7J0         0.0668
     39 C08        71.4250  -31.1540  190.9620 C.ar      1 7J0        -0.0103
     40 C09        71.3720  -31.1230  189.5890 C.ar      1 7J0        -0.0588
     41 C16        69.5120  -28.0510  193.2030 C.ar      1 7J0        -0.0629
     42 C17        69.4850  -28.0570  191.8330 C.ar      1 7J0        -0.0569
     43 H1         78.6376  -26.3412  198.5190 H         1 7J0         0.0525
     44 H2         77.4109  -25.3933  197.6115 H         1 7J0         0.0525
     45 H3         78.6950  -25.2937  195.6779 H         1 7J0         0.0451
     46 H4         79.5426  -26.8400  196.0205 H         1 7J0         0.0451
     47 H5         80.0257  -25.1823  198.9669 H         1 7J0         0.0557
     48 H6         82.0045  -23.9467  199.7102 H         1 7J0         0.0599
     49 H7         83.6709  -23.1046  198.0718 H         1 7J0         0.0559
     50 H8         83.2741  -23.5414  195.6527 H         1 7J0         0.0599
     51 H9         81.2884  -24.7855  194.9099 H         1 7J0         0.0557
     52 H10        75.2044  -29.4293  197.6525 H         1 7J0         0.0826
     53 H11        72.8748  -29.4115  196.8564 H         1 7J0         0.0551
     54 H12        73.1303  -27.8413  196.0222 H         1 7J0         0.0551
     55 H13        71.5504  -26.3536  200.0388 H         1 7J0         0.0522
     56 H14        72.1458  -24.8104  199.3383 H         1 7J0         0.0522
     57 H15        69.7693  -24.5963  199.8331 H         1 7J0         0.0285
     58 H16        69.3978  -26.0974  198.9191 H         1 7J0         0.0285
     59 H17        70.4422  -23.4616  197.7842 H         1 7J0         0.0267
     60 H18        68.8076  -24.1717  197.5591 H         1 7J0         0.0267
     61 H19        70.3618  -24.5721  195.6218 H         1 7J0         0.0285
     62 H20        69.7281  -26.0758  196.3729 H         1 7J0         0.0285
     63 H21        72.5078  -24.8469  196.6963 H         1 7J0         0.0522
     64 H22        72.0776  -26.3935  195.8904 H         1 7J0         0.0522
     65 H23        75.3845  -26.6275  196.9578 H         1 7J0         0.1884
     66 H24        74.6662  -31.2873  196.3780 H         1 7J0         0.1884
     67 H25        75.6645  -31.0331  193.5583 H         1 7J0         0.0824
     68 H26        75.9115  -32.9483  195.7894 H         1 7J0         0.0608
     69 H27        75.0246  -33.7763  194.4648 H         1 7J0         0.0608
     70 H28        77.9993  -34.3424  192.7312 H         1 7J0         0.0524
     71 H29        76.2199  -34.3301  192.4856 H         1 7J0         0.0524
     72 H30        76.9253  -35.1811  193.9015 H         1 7J0         0.0524
     73 H31        69.5584  -28.2886  189.1185 H         1 7J0         0.0542
     74 H32        70.6407  -30.0545  187.8339 H         1 7J0         0.0595
     75 H33        71.3160  -30.8701  193.6959 H         1 7J0         0.0628
     76 H34        70.2258  -29.1022  194.9703 H         1 7J0         0.0601
     77 H35        74.2906  -31.8081  191.6971 H         1 7J0         0.1881
     78 H36        71.5121  -32.6705  192.4522 H         1 7J0         0.0696
     79 H37        72.3318  -33.0782  190.9067 H         1 7J0         0.0696
     80 H38        71.8570  -31.9031  189.0134 H         1 7J0         0.0530
     81 H39        69.0200  -27.2600  193.7573 H         1 7J0         0.0616
     82 H40        68.9690  -27.2552  191.3173 H         1 7J0         0.0609
@<TRIPOS>BOND
     1    1    2 2  
     2    1    3 1  
     3   23    1 am 
     4    3    4 1  
     5    4    5 1  
     6    5    6 ar 
     7    5   10 ar 
     8    6    7 ar 
     9    7    8 ar 
    10    9    8 ar 
    11   10    9 ar 
    12   11   12 1  
    13   20   11 1  
    14   11   23 1  
    15   12   13 1  
    16   13   21 am 
    17   13   22 2  
    18   14   15 1  
    19   21   14 1  
    20   15   16 1  
    21   17   16 1  
    22   18   17 1  
    23   21   18 1  
    24   20   19 2  
    25   25   20 am 
    26   29   24 1  
    27   24   30 1  
    28   26   25 1  
    29   27   26 1  
    30   26   29 1  
    31   27   28 2  
    32   37   27 am 
    33   31   32 ar 
    34   33   31 ar 
    35   32   40 ar 
    36   35   33 ar 
    37   33   42 ar 
    38   35   34 ar 
    39   34   36 ar 
    40   39   35 ar 
    41   36   41 ar 
    42   38   37 1  
    43   38   39 1  
    44   39   40 ar 
    45   41   42 ar 
    46    3   43 1  
    47    3   44 1  
    48    4   45 1  
    49    4   46 1  
    50    6   47 1  
    51    7   48 1  
    52    8   49 1  
    53    9   50 1  
    54   10   51 1  
    55   11   52 1  
    56   12   53 1  
    57   12   54 1  
    58   14   55 1  
    59   14   56 1  
    60   15   57 1  
    61   15   58 1  
    62   16   59 1  
    63   16   60 1  
    64   17   61 1  
    65   17   62 1  
    66   18   63 1  
    67   18   64 1  
    68   23   65 1  
    69   25   66 1  
    70   26   67 1  
    71   29   68 1  
    72   29   69 1  
    73   30   70 1  
    74   30   71 1  
    75   30   72 1  
    76   31   73 1  
    77   32   74 1  
    78   34   75 1  
    79   36   76 1  
    80   37   77 1  
    81   38   78 1  
    82   38   79 1  
    83   40   80 1  
    84   41   81 1  
    85   42   82 1  
@<TRIPOS>SUBSTRUCTURE
     1 7J0         1

