### 
### Created by X-TOOL on Mon Sep 10 21:13:32 2018
### 

@<TRIPOS>MOLECULE
5ts0_ligand
   79    82     1     0     0
SMALL
GAST_HUCK


@<TRIPOS>ATOM
      1 C32        75.8570  -27.6510  198.2130 C.2       1 7J1         0.1803
      2 O41        76.2930  -28.7740  198.3210 O.2       1 7J1        -0.3967
      3 C33        76.7690  -26.4550  198.3980 C.3       1 7J1         0.0470
      4 C34        77.8690  -26.3640  197.3450 C.3       1 7J1        -0.0022
      5 C35        78.9800  -25.4310  197.7200 C.ar      1 7J1        -0.0408
      6 C36        79.4900  -24.4970  196.8000 C.ar      1 7J1        -0.0602
      7 C37        80.5190  -23.6370  197.1630 C.ar      1 7J1        -0.0686
      8 C38        81.0530  -23.6900  198.4540 C.ar      1 7J1        -0.0687
      9 C39        80.5500  -24.6080  199.3700 C.ar      1 7J1        -0.0686
     10 C40        79.5260  -25.4620  199.0090 C.ar      1 7J1        -0.0602
     11 N31        74.5240  -27.5080  197.9050 N.am      1 7J1        -0.2634
     12 C22        73.6640  -28.6610  197.7320 C.3       1 7J1         0.1475
     13 C23        72.1730  -28.2820  197.5580 C.3       1 7J1         0.0777
     14 C24        71.6200  -27.6450  198.7680 C.2       1 7J1         0.1830
     15 O30        71.9200  -28.0360  199.8790 O.2       1 7J1        -0.3966
     16 N25        70.7610  -26.5750  198.6580 N.am      1 7J1        -0.2730
     17 C29        70.2590  -25.9390  197.4430 C.3       1 7J1         0.0339
     18 C28        69.4180  -24.7330  197.9200 C.3       1 7J1        -0.0307
     19 C26        70.2100  -25.9100  199.8890 C.3       1 7J1         0.0339
     20 C27        69.0780  -24.9990  199.3900 C.3       1 7J1        -0.0307
     21 C02        74.0360  -29.3860  196.4260 C.2       1 7J1         0.2063
     22 O01        74.5150  -28.8060  195.4630 O.2       1 7J1        -0.3942
     23 O20        75.8990  -33.0210  194.9940 O.3       1 7J1        -0.3783
     24 N03        73.8070  -30.7280  196.3750 N.am      1 7J1        -0.2614
     25 C04        74.0730  -31.5160  195.2800 C.3       1 7J1         0.1542
     26 C05        72.6800  -31.9980  194.6990 C.2       1 7J1         0.2059
     27 O18        71.7250  -32.1900  195.4620 O.2       1 7J1        -0.3943
     28 C19        74.8400  -32.7360  195.8490 C.3       1 7J1         0.0874
     29 C21        75.6060  -34.0370  194.0330 C.3       1 7J1         0.0367
     30 C11        69.1270  -29.6010  190.3510 C.ar      1 7J1        -0.0631
     31 C10        69.8400  -30.5730  189.7530 C.ar      1 7J1        -0.0706
     32 C12        69.0790  -29.5380  191.7360 C.ar      1 7J1        -0.0242
     33 C14        69.6940  -30.3530  193.9090 C.ar      1 7J1        -0.0547
     34 C13        69.7730  -30.4720  192.5050 C.ar      1 7J1        -0.0102
     35 C15        68.9560  -29.3510  194.4700 C.ar      1 7J1        -0.0625
     36 N06        72.5230  -32.1430  193.3290 N.am      1 7J1        -0.2728
     37 C07        71.2870  -32.5510  192.7060 C.3       1 7J1         0.0668
     38 C08        70.5290  -31.4830  191.8890 C.ar      1 7J1        -0.0103
     39 C09        70.5430  -31.5200  190.5250 C.ar      1 7J1        -0.0588
     40 C16        68.2630  -28.4240  193.6670 C.ar      1 7J1        -0.0629
     41 C17        68.3260  -28.5140  192.3270 C.ar      1 7J1        -0.0569
     42 H1         77.2403  -26.5258  199.3894 H         1 7J1         0.0525
     43 H2         76.1599  -25.5405  198.3459 H         1 7J1         0.0525
     44 H3         77.4217  -26.0120  196.4037 H         1 7J1         0.0451
     45 H4         78.2929  -27.3681  197.1966 H         1 7J1         0.0451
     46 H5         79.0765  -24.4478  195.7991 H         1 7J1         0.0557
     47 H6         80.9081  -22.9244  196.4448 H         1 7J1         0.0599
     48 H7         81.8550  -23.0190  198.7397 H         1 7J1         0.0559
     49 H8         80.9632  -24.6534  200.3711 H         1 7J1         0.0599
     50 H9         79.1389  -26.1675  199.7353 H         1 7J1         0.0557
     51 H10        74.1411  -26.5904  197.7984 H         1 7J1         0.1884
     52 H11        73.7832  -29.3308  198.5964 H         1 7J1         0.0826
     53 H12        71.5975  -29.1943  197.3424 H         1 7J1         0.0551
     54 H13        72.0805  -27.5821  196.7144 H         1 7J1         0.0551
     55 H14        69.6334  -26.6414  196.8726 H         1 7J1         0.0522
     56 H15        71.0951  -25.5990  196.8143 H         1 7J1         0.0522
     57 H16        68.4965  -24.6522  197.3248 H         1 7J1         0.0285
     58 H17        69.9981  -23.8032  197.8257 H         1 7J1         0.0285
     59 H18        70.9903  -25.3160  200.3873 H         1 7J1         0.0522
     60 H19        69.8180  -26.6619  200.5896 H         1 7J1         0.0522
     61 H20        68.1049  -25.5043  199.4786 H         1 7J1         0.0285
     62 H21        69.0561  -24.0586  199.9602 H         1 7J1         0.0285
     63 H22        73.4208  -31.1681  197.1857 H         1 7J1         0.1884
     64 H23        74.6609  -30.9837  194.5177 H         1 7J1         0.0824
     65 H24        75.2246  -32.4992  196.8520 H         1 7J1         0.0608
     66 H25        74.1667  -33.6037  195.9099 H         1 7J1         0.0608
     67 H26        76.4875  -34.2051  193.3969 H         1 7J1         0.0524
     68 H27        74.7587  -33.7176  193.4084 H         1 7J1         0.0524
     69 H28        75.3463  -34.9704  194.5538 H         1 7J1         0.0524
     70 H29        68.5929  -28.8710  189.7536 H         1 7J1         0.0542
     71 H30        69.8740  -30.6281  188.6709 H         1 7J1         0.0595
     72 H31        70.2199  -31.0580  194.5426 H         1 7J1         0.0628
     73 H32        68.9024  -29.2674  195.5494 H         1 7J1         0.0601
     74 H33        73.3093  -31.9545  192.7405 H         1 7J1         0.1881
     75 H34        70.6131  -32.8998  193.5024 H         1 7J1         0.0696
     76 H35        71.5168  -33.3862  192.0281 H         1 7J1         0.0696
     77 H36        71.1085  -32.2966  190.0229 H         1 7J1         0.0530
     78 H37        67.6783  -27.6373  194.1299 H         1 7J1         0.0616
     79 H38        67.7975  -27.7988  191.7072 H         1 7J1         0.0609
@<TRIPOS>BOND
     1    1    2 2  
     2    1    3 1  
     3   11    1 am 
     4    3    4 1  
     5    4    5 1  
     6    5    6 ar 
     7    5   10 ar 
     8    6    7 ar 
     9    7    8 ar 
    10    9    8 ar 
    11   10    9 ar 
    12   12   11 1  
    13   12   13 1  
    14   21   12 1  
    15   13   14 1  
    16   14   15 2  
    17   14   16 am 
    18   16   17 1  
    19   16   19 1  
    20   17   18 1  
    21   20   18 1  
    22   19   20 1  
    23   21   22 2  
    24   24   21 am 
    25   28   23 1  
    26   23   29 1  
    27   25   24 1  
    28   26   25 1  
    29   25   28 1  
    30   26   27 2  
    31   36   26 am 
    32   30   31 ar 
    33   32   30 ar 
    34   31   39 ar 
    35   34   32 ar 
    36   32   41 ar 
    37   34   33 ar 
    38   33   35 ar 
    39   38   34 ar 
    40   35   40 ar 
    41   37   36 1  
    42   37   38 1  
    43   38   39 ar 
    44   40   41 ar 
    45    3   42 1  
    46    3   43 1  
    47    4   44 1  
    48    4   45 1  
    49    6   46 1  
    50    7   47 1  
    51    8   48 1  
    52    9   49 1  
    53   10   50 1  
    54   11   51 1  
    55   12   52 1  
    56   13   53 1  
    57   13   54 1  
    58   17   55 1  
    59   17   56 1  
    60   18   57 1  
    61   18   58 1  
    62   19   59 1  
    63   19   60 1  
    64   20   61 1  
    65   20   62 1  
    66   24   63 1  
    67   25   64 1  
    68   28   65 1  
    69   28   66 1  
    70   29   67 1  
    71   29   68 1  
    72   29   69 1  
    73   30   70 1  
    74   31   71 1  
    75   33   72 1  
    76   35   73 1  
    77   36   74 1  
    78   37   75 1  
    79   37   76 1  
    80   39   77 1  
    81   40   78 1  
    82   41   79 1  
@<TRIPOS>SUBSTRUCTURE
     1 7J1         1

