### 
### Created by X-TOOL on Mon Sep 10 21:13:33 2018
### 

@<TRIPOS>MOLECULE
5tt3_ligand
   26    27     1     0     0
SMALL
GAST_HUCK


@<TRIPOS>ATOM
      1 N1         51.3810   40.4670   91.5590 N.am      1 EZL        -0.2548
      2 C2         53.7480   41.7170   87.6900 C.ar      1 EZL         0.0296
      3 C3         54.4630   42.8220   88.2390 C.ar      1 EZL         0.0510
      4 C4         55.0690   43.7420   87.3950 C.ar      1 EZL        -0.0189
      5 C5         54.9780   43.5830   86.0080 C.ar      1 EZL         0.0844
      6 C8         55.7340   44.8280   84.1550 C.3       1 EZL         0.0670
      7 O1         53.4480   41.3330   92.7620 O.2       1 EZL        -0.1431
      8 O2         53.6700   39.3710   91.7440 O.2       1 EZL        -0.1431
      9 S1         53.0130   40.6390   91.5810 S.o2      1 EZL         0.1041
     10 C1         53.5630   41.4640   90.1110 C.2       1 EZL         0.2500
     11 N2         53.1740   40.8510   88.8870 N.2       1 EZL        -0.2771
     12 S2         54.3840   42.7210   89.7730 S.3       1 EZL         0.0259
     13 C6         54.2720   42.4900   85.4650 C.ar      1 EZL        -0.0391
     14 C7         53.6600   41.5630   86.3140 C.ar      1 EZL        -0.0596
     15 O3         55.7060   44.6950   85.5570 O.3       1 EZL        -0.3212
     16 C9         57.1350   44.5590   83.6510 C.3       1 EZL        -0.0372
     17 H1         50.7950   41.2701   91.4514 H         1 EZL         0.1640
     18 H2         50.9726   39.5591   91.6532 H         1 EZL         0.1640
     19 H3         55.6124   44.5831   87.8101 H         1 EZL         0.0487
     20 H4         55.4343   45.8493   83.8775 H         1 EZL         0.0610
     21 H5         55.0372   44.1061   83.7041 H         1 EZL         0.0610
     22 H6         54.2038   42.3685   84.3900 H         1 EZL         0.0502
     23 H7         53.1162   40.7232   85.8968 H         1 EZL         0.0565
     24 H8         57.1570   44.6628   82.5561 H         1 EZL         0.0255
     25 H9         57.4347   43.5377   83.9285 H         1 EZL         0.0255
     26 H10        57.8318   45.2809   84.1018 H         1 EZL         0.0255
@<TRIPOS>BOND
     1    9    1 am 
     2    2    3 ar 
     3   11    2 1  
     4    2   14 ar 
     5    3    4 ar 
     6    3   12 1  
     7    4    5 ar 
     8    5   13 ar 
     9    5   15 1  
    10   15    6 1  
    11    6   16 1  
    12    9    7 2  
    13    9    8 2  
    14   10    9 1  
    15   10   11 2  
    16   10   12 1  
    17   13   14 ar 
    18    1   17 1  
    19    1   18 1  
    20    4   19 1  
    21    6   20 1  
    22    6   21 1  
    23   13   22 1  
    24   14   23 1  
    25   16   24 1  
    26   16   25 1  
    27   16   26 1  
@<TRIPOS>SUBSTRUCTURE
     1 EZL         1

