### 
### Created by X-TOOL on Mon Sep 10 21:13:29 2018
### 

@<TRIPOS>MOLECULE
5tt7_ligand
   51    54     1     0     0
SMALL
GAST_HUCK


@<TRIPOS>ATOM
      1 C4          1.6500    0.0920   13.2420 C.ar      1 7KF        -0.0777
      2 C5          0.2930   -0.1740   13.4320 C.ar      1 7KF        -0.0448
      3 C6         -0.4840    0.6370   14.2790 C.ar      1 7KF         0.0582
      4 C8         -2.7050   -0.5870   14.1850 C.ar      1 7KF         0.1453
      5 C10        -3.2270   -2.6250   13.1490 C.ar      1 7KF         0.1709
      6 C15         0.2180   -4.7320   10.3110 C.3       1 7KF        -0.0505
      7 C17         0.8940   -4.6310   12.7580 C.3       1 7KF        -0.0076
      8 C22        -4.9270   -1.5640   14.3000 C.ar      1 7KF         0.0601
      9 C28         0.1240    1.7210   14.9170 C.ar      1 7KF        -0.0373
     10 C1          2.0980    3.1690   15.4380 C.3       1 7KF        -0.0337
     11 C2          1.4740    1.9850   14.7330 C.ar      1 7KF        -0.0556
     12 C3          2.2400    1.1740   13.8940 C.ar      1 7KF        -0.0719
     13 N7         -1.8570    0.4550   14.5300 N.pl3     1 7KF        -0.2556
     14 N9         -2.3620   -1.6440   13.4460 N.ar      1 7KF        -0.2415
     15 N11        -2.8120   -3.7060   12.3920 N.pl3     1 7KF        -0.2828
     16 C12        -1.3980   -3.8530   12.0000 C.3       1 7KF         0.0849
     17 C14        -1.2730   -4.6830   10.7090 C.3       1 7KF        -0.0241
     18 C16         1.0290   -5.4050   11.4320 C.3       1 7KF        -0.0478
     19 C18        -0.5850   -4.4580   13.1700 C.3       1 7KF        -0.0004
     20 N20        -1.1310   -5.7630   13.6080 N.4       1 7KF         0.2224
     21 N21        -4.4960   -2.5870   13.5720 N.ar      1 7KF        -0.2644
     22 C23        -6.2380   -1.2020   14.9440 C.3       1 7KF         0.0814
     23 N24        -5.9980    0.0590   15.6730 N.am      1 7KF        -0.2737
     24 C25        -4.7340    0.4610   15.4580 C.2       1 7KF         0.1987
     25 O26        -4.2010    1.4580   15.9240 O.2       1 7KF        -0.3965
     26 C27        -4.0430   -0.5130   14.6260 C.ar      1 7KF         0.1096
     27 H1          2.2426   -0.5399   12.5904 H         1 7KF         0.0571
     28 H2         -0.1663   -1.0132   12.9222 H         1 7KF         0.0482
     29 H3          0.5891   -3.7084   10.1545 H         1 7KF         0.0266
     30 H4          0.3300   -5.3088    9.3811 H         1 7KF         0.0266
     31 H5          1.3495   -3.6369   12.6386 H         1 7KF         0.0320
     32 H6          1.4221   -5.1837   13.5489 H         1 7KF         0.0320
     33 H7         -0.4649    2.3626   15.5625 H         1 7KF         0.0473
     34 H8          3.1659    3.2278   15.1808 H         1 7KF         0.0389
     35 H9          1.9890    3.0472   16.5258 H         1 7KF         0.0389
     36 H10         1.5929    4.0930   15.1200 H         1 7KF         0.0389
     37 H11         3.2933    1.3854   13.7494 H         1 7KF         0.0463
     38 H12        -2.3046    1.2197   15.0551 H         1 7KF         0.2177
     39 H13        -3.4982   -4.4160   12.0989 H         1 7KF         0.1881
     40 H14        -0.9944   -2.8509   11.7927 H         1 7KF         0.0619
     41 H15        -1.6456   -5.7030   10.8843 H         1 7KF         0.0290
     42 H16        -1.8579   -4.2121    9.9052 H         1 7KF         0.0290
     43 H17         2.0891   -5.4346   11.1400 H         1 7KF         0.0267
     44 H18         0.6595   -6.4310   11.5761 H         1 7KF         0.0267
     45 H19        -0.6347   -3.7603   14.0190 H         1 7KF         0.0873
     46 H20        -0.5751   -6.1216   14.3686 H         1 7KF         0.1998
     47 H21        -1.1061   -6.4131   12.8381 H         1 7KF         0.1998
     48 H22        -2.0833   -5.6426   13.9155 H         1 7KF         0.1998
     49 H23        -6.5528   -1.9926   15.6411 H         1 7KF         0.0744
     50 H24        -7.0138   -1.0587   14.1775 H         1 7KF         0.0744
     51 H25        -6.6699    0.5383   16.2376 H         1 7KF         0.1871
@<TRIPOS>BOND
     1    2    1 ar 
     2    1   12 ar 
     3    3    2 ar 
     4    3    9 ar 
     5   13    3 1  
     6    4   13 1  
     7   14    4 ar 
     8    4   26 ar 
     9    5   14 ar 
    10   15    5 1  
    11    5   21 ar 
    12   17    6 1  
    13    6   18 1  
    14   18    7 1  
    15    7   19 1  
    16   21    8 ar 
    17    8   22 1  
    18    8   26 ar 
    19    9   11 ar 
    20   11   10 1  
    21   11   12 ar 
    22   16   15 1  
    23   16   17 1  
    24   16   19 1  
    25   19   20 1  
    26   22   23 1  
    27   23   24 am 
    28   24   25 2  
    29   24   26 1  
    30    1   27 1  
    31    2   28 1  
    32    6   29 1  
    33    6   30 1  
    34    7   31 1  
    35    7   32 1  
    36    9   33 1  
    37   10   34 1  
    38   10   35 1  
    39   10   36 1  
    40   12   37 1  
    41   13   38 1  
    42   15   39 1  
    43   16   40 1  
    44   17   41 1  
    45   17   42 1  
    46   18   43 1  
    47   18   44 1  
    48   19   45 1  
    49   20   46 1  
    50   20   47 1  
    51   20   48 1  
    52   22   49 1  
    53   22   50 1  
    54   23   51 1  
@<TRIPOS>SUBSTRUCTURE
     1 7KF         1

