### 
### Created by X-TOOL on Mon Sep 10 21:13:33 2018
### 

@<TRIPOS>MOLECULE
5tt8_ligand
   27    28     1     0     0
SMALL
GAST_HUCK


@<TRIPOS>ATOM
      1 C1          5.9050  -42.7590  -78.7750 C.ar      1 D8W        -0.0344
      2 C2          4.5660  -43.1060  -78.6300 C.ar      1 D8W        -0.0599
      3 C3          4.2110  -44.4320  -78.4370 C.ar      1 D8W        -0.0616
      4 C4          5.1920  -45.4150  -78.3880 C.ar      1 D8W        -0.0599
      5 C5          6.5360  -45.0670  -78.5330 C.ar      1 D8W        -0.0344
      6 C6          6.8910  -43.7450  -78.7250 C.ar      1 D8W         0.1159
      7 S1          8.6100  -43.2990  -78.9110 S.o2      1 D8W         0.0983
      8 O1          9.3210  -43.4880  -77.5990 O.2       1 D8W        -0.1429
      9 O2          9.2560  -44.1890  -79.9730 O.2       1 D8W        -0.1429
     10 N1          8.7230  -41.7290  -79.3720 N.am      1 D8W        -0.1424
     11 C7          9.1680  -40.7340  -78.4290 C.2       1 D8W         0.2195
     12 S2          9.2720  -40.8660  -76.7190 S.3       1 D8W         0.0830
     13 N2          9.6020  -39.4780  -78.6860 N.2       1 D8W        -0.2658
     14 N3          9.9770  -38.7040  -77.6250 N.2       1 D8W        -0.2520
     15 C8          9.8760  -39.2780  -76.4100 C.2       1 D8W         0.2540
     16 S3         10.2810  -38.5510  -74.8180 S.o2      1 D8W         0.0983
     17 O3          9.5790  -37.2170  -74.6780 O.2       1 D8W        -0.1454
     18 O4          9.8330  -39.4700  -73.7210 O.2       1 D8W        -0.1454
     19 N4         11.9060  -38.3270  -74.7150 N.am      1 D8W        -0.2566
     20 H1          6.1827  -41.7222  -78.9269 H         1 D8W         0.0637
     21 H2          3.8002  -42.3397  -78.6679 H         1 D8W         0.0618
     22 H3          3.1673  -44.7023  -78.3242 H         1 D8W         0.0618
     23 H4          4.9136  -46.4517  -78.2372 H         1 D8W         0.0618
     24 H5          7.3014  -45.8336  -78.4950 H         1 D8W         0.0637
     25 H6          8.4836  -41.4626  -80.3057 H         1 D8W         0.2341
     26 H7         12.3045  -37.9288  -73.8887 H         1 D8W         0.1638
     27 H8         12.4962  -38.5889  -75.4786 H         1 D8W         0.1638
@<TRIPOS>BOND
     1    1    2 ar 
     2    1    6 ar 
     3    2    3 ar 
     4    3    4 ar 
     5    4    5 ar 
     6    5    6 ar 
     7    6    7 1  
     8    7    8 2  
     9    7    9 2  
    10    7   10 am 
    11   10   11 1  
    12   11   12 1  
    13   11   13 2  
    14   12   15 1  
    15   13   14 1  
    16   14   15 2  
    17   15   16 1  
    18   16   17 2  
    19   16   18 2  
    20   16   19 am 
    21    1   20 1  
    22    2   21 1  
    23    3   22 1  
    24    4   23 1  
    25    5   24 1  
    26   10   25 1  
    27   19   26 1  
    28   19   27 1  
@<TRIPOS>SUBSTRUCTURE
     1 D8W         1

