### 
### Created by X-TOOL on Wed Jan  1 15:39:34 2020
### 

@<TRIPOS>MOLECULE
5ttf_ligand
   50    52     1     0     0
SMALL
GAST_HUCK


@<TRIPOS>ATOM
      1 C4         -4.4600   -4.8470   18.7030 C.3       1 7KZ        -0.0446
      2 C5         -5.0990   -3.7290   17.9090 C.3       1 7KZ         0.0273
      3 C6         -7.4190   -4.2250   17.0410 C.ar      1 7KZ         0.1533
      4 N1         -8.7190   -4.1580   17.3600 N.ar      1 7KZ        -0.2473
      5 C7         -9.6250   -4.5690   16.4770 C.ar      1 7KZ         0.1243
      6 C8        -11.4450   -4.0520   18.1360 C.3       1 7KZ         0.0528
      7 N2        -10.9130   -4.4910   16.8540 N.pl3     1 7KZ        -0.2935
      8 C9        -11.6690   -5.2820   19.0030 C.3       1 7KZ         0.0115
      9 C10       -12.3730   -4.9030   20.2970 C.3       1 7KZ        -0.0314
     10 C12       -13.3840   -2.9900   19.3000 C.3       1 7KZ        -0.0314
     11 N3        -13.6390   -4.2300   20.0280 N.4       1 7KZ         0.2271
     12 C13       -12.7350   -3.2720   17.9500 C.3       1 7KZ         0.0115
     13 C14        -9.2230   -5.0630   15.1850 C.ar      1 7KZ         0.0267
     14 C15       -10.1000   -5.5450   14.1910 C.ar      1 7KZ        -0.0226
     15 N4         -6.9090   -4.6790   15.8750 N.ar      1 7KZ        -0.3045
     16 C19        -6.5910   -6.3840   11.0400 C.3       1 7KZ         0.0599
     17 O1         -7.8660   -6.6970   11.6050 O.3       1 7KZ        -0.3173
     18 C18        -8.2240   -6.1010   12.7840 C.ar      1 7KZ         0.1276
     19 C16        -9.6220   -6.0570   13.0230 C.ar      1 7KZ         0.1272
     20 O         -10.3970   -6.5860   12.0260 O.3       1 7KZ        -0.3230
     21 C17       -11.7780   -6.8420   12.2970 C.3       1 7KZ         0.0572
     22 C20        -7.3510   -5.6270   13.7220 C.ar      1 7KZ        -0.0244
     23 C21        -7.8260   -5.1000   14.9440 C.ar      1 7KZ         0.0078
     24 N          -6.5520   -3.7670   17.9690 N.pl3     1 7KZ        -0.2964
     25 H1         -3.3653   -4.7729   18.6249 H         1 7KZ         0.0249
     26 H2         -4.7913   -5.8166   18.3030 H         1 7KZ         0.0249
     27 H3         -4.7587   -4.7644   19.7584 H         1 7KZ         0.0249
     28 H4         -4.7863   -3.8184   16.8582 H         1 7KZ         0.0521
     29 H5         -4.7538   -2.7662   18.3136 H         1 7KZ         0.0521
     30 H6        -10.7089   -3.3972   18.6254 H         1 7KZ         0.0571
     31 H7        -11.6083   -4.7767   16.1499 H         1 7KZ         0.1902
     32 H8        -10.6970   -5.7389   19.2406 H         1 7KZ         0.0340
     33 H9        -12.2891   -6.0046   18.4523 H         1 7KZ         0.0340
     34 H10       -11.7237   -4.2292   20.8753 H         1 7KZ         0.0814
     35 H11       -12.5678   -5.8149   20.8805 H         1 7KZ         0.0814
     36 H12       -12.7124   -2.3546   19.8961 H         1 7KZ         0.0814
     37 H13       -14.3372   -2.4655   19.1381 H         1 7KZ         0.0814
     38 H14       -14.0999   -4.0196   20.8994 H         1 7KZ         0.2013
     39 H15       -14.2280   -4.8308   19.4729 H         1 7KZ         0.2013
     40 H16       -13.4281   -3.8599   17.3303 H         1 7KZ         0.0340
     41 H17       -12.5131   -2.3186   17.4482 H         1 7KZ         0.0340
     42 H18       -11.1702   -5.5074   14.3592 H         1 7KZ         0.0541
     43 H19        -6.4591   -6.9418   10.1011 H         1 7KZ         0.0579
     44 H20        -5.7973   -6.6649   11.7479 H         1 7KZ         0.0579
     45 H21        -6.5353   -5.3045   10.8361 H         1 7KZ         0.0579
     46 H22       -12.2558   -7.2628   11.4000 H         1 7KZ         0.0573
     47 H23       -12.2782   -5.9017   12.5719 H         1 7KZ         0.0573
     48 H24       -11.8621   -7.5584   13.1274 H         1 7KZ         0.0573
     49 H25        -6.2850   -5.6554   13.5271 H         1 7KZ         0.0461
     50 H26        -6.9744   -3.3961   18.8321 H         1 7KZ         0.1855
@<TRIPOS>BOND
     1    2    1 1  
     2   24    2 1  
     3    4    3 ar 
     4   15    3 ar 
     5    3   24 1  
     6    5    4 ar 
     7    5    7 1  
     8   13    5 ar 
     9    7    6 1  
    10    6    8 1  
    11    6   12 1  
    12    8    9 1  
    13    9   11 1  
    14   10   11 1  
    15   12   10 1  
    16   14   13 ar 
    17   13   23 ar 
    18   19   14 ar 
    19   23   15 ar 
    20   17   16 1  
    21   18   17 1  
    22   18   19 ar 
    23   18   22 ar 
    24   19   20 1  
    25   20   21 1  
    26   22   23 ar 
    27    1   25 1  
    28    1   26 1  
    29    1   27 1  
    30    2   28 1  
    31    2   29 1  
    32    6   30 1  
    33    7   31 1  
    34    8   32 1  
    35    8   33 1  
    36    9   34 1  
    37    9   35 1  
    38   10   36 1  
    39   10   37 1  
    40   11   38 1  
    41   11   39 1  
    42   12   40 1  
    43   12   41 1  
    44   14   42 1  
    45   16   43 1  
    46   16   44 1  
    47   16   45 1  
    48   21   46 1  
    49   21   47 1  
    50   21   48 1  
    51   22   49 1  
    52   24   50 1  
@<TRIPOS>SUBSTRUCTURE
     1 7KZ         1

