### 
### Created by X-TOOL on Wed Jan  1 15:39:34 2020
### 

@<TRIPOS>MOLECULE
5ttg_ligand
   53    55     1     0     0
SMALL
GAST_HUCK


@<TRIPOS>ATOM
      1 C4         -2.1120  -14.7970   -5.0940 C.3       1 7KZ        -0.0446
      2 C5         -2.5730  -16.0690   -5.7750 C.3       1 7KZ         0.0273
      3 C6         -1.8180  -18.0430   -4.3750 C.ar      1 7KZ         0.1533
      4 N1         -2.2420  -18.8990   -3.4370 N.ar      1 7KZ        -0.2473
      5 C7         -1.3800  -19.7530   -2.8990 C.ar      1 7KZ         0.1243
      6 C8         -3.2190  -20.7020   -1.4360 C.3       1 7KZ         0.0528
      7 N2         -1.8570  -20.5800   -1.9530 N.pl3     1 7KZ        -0.2935
      8 C9         -3.2220  -20.7160    0.0830 C.3       1 7KZ         0.0116
      9 C10        -4.6290  -20.9950    0.6080 C.3       1 7KZ        -0.0299
     10 C11        -6.4690  -22.5750    0.6750 C.3       1 7KZ        -0.0431
     11 C12        -5.2300  -22.1860   -1.3670 C.3       1 7KZ        -0.0299
     12 N3         -5.1420  -22.2600    0.0880 N.4       1 7KZ         0.2332
     13 C13        -3.8540  -21.9650   -1.9890 C.3       1 7KZ         0.0116
     14 C14        -0.0010  -19.7760   -3.3270 C.ar      1 7KZ         0.0267
     15 C15         0.9990  -20.6380   -2.8120 C.ar      1 7KZ        -0.0226
     16 N4         -0.5660  -17.9740   -4.8820 N.ar      1 7KZ        -0.3045
     17 C19         4.3630  -18.8100   -5.7320 C.3       1 7KZ         0.0599
     18 O1          3.9060  -19.7790   -4.7820 O.3       1 7KZ        -0.3173
     19 C18         2.6080  -19.7000   -4.3480 C.ar      1 7KZ         0.1276
     20 C16         2.2710  -20.6060   -3.3070 C.ar      1 7KZ         0.1272
     21 O           3.3020  -21.3980   -2.8740 O.3       1 7KZ        -0.3230
     22 C17         3.0220  -22.4030   -1.8970 C.3       1 7KZ         0.0572
     23 C20         1.6650  -18.8510   -4.8550 C.ar      1 7KZ        -0.0244
     24 C21         0.3430  -18.8580   -4.3510 C.ar      1 7KZ         0.0078
     25 N          -2.7300  -17.1500   -4.8180 N.pl3     1 7KZ        -0.2964
     26 H1         -2.0026  -13.9990   -5.8431 H         1 7KZ         0.0249
     27 H2         -1.1438  -14.9741   -4.6030 H         1 7KZ         0.0249
     28 H3         -2.8548  -14.4940   -4.3414 H         1 7KZ         0.0249
     29 H4         -1.8278  -16.3627   -6.5289 H         1 7KZ         0.0521
     30 H5         -3.5389  -15.8826   -6.2673 H         1 7KZ         0.0521
     31 H6         -3.8043  -19.8350   -1.7762 H         1 7KZ         0.0571
     32 H7         -1.1656  -21.2176   -1.5331 H         1 7KZ         0.1902
     33 H8         -2.8831  -19.7381    0.4556 H         1 7KZ         0.0340
     34 H9         -2.5393  -21.5011    0.4400 H         1 7KZ         0.0340
     35 H10        -5.2978  -20.1799    0.2945 H         1 7KZ         0.0815
     36 H11        -4.5997  -21.0434    1.7065 H         1 7KZ         0.0815
     37 H12        -6.8325  -23.5302    0.2681 H         1 7KZ         0.0777
     38 H13        -7.1806  -21.7748    0.4234 H         1 7KZ         0.0777
     39 H14        -6.3770  -22.6535    1.7683 H         1 7KZ         0.0777
     40 H15        -5.8887  -21.3501   -1.6453 H         1 7KZ         0.0815
     41 H16        -5.6506  -23.1275   -1.7501 H         1 7KZ         0.0815
     42 H17        -4.4998  -22.9960    0.3370 H         1 7KZ         0.2030
     43 H18        -3.2094  -22.8258   -1.7577 H         1 7KZ         0.0340
     44 H19        -3.9606  -21.8693   -3.0796 H         1 7KZ         0.0340
     45 H20         0.7512  -21.3307   -2.0159 H         1 7KZ         0.0541
     46 H21         5.4169  -19.0067   -5.9783 H         1 7KZ         0.0579
     47 H22         4.2691  -17.8020   -5.3017 H         1 7KZ         0.0579
     48 H23         3.7543  -18.8769   -6.6458 H         1 7KZ         0.0579
     49 H24         3.9466  -22.9483   -1.6566 H         1 7KZ         0.0573
     50 H25         2.2756  -23.1052   -2.2967 H         1 7KZ         0.0573
     51 H26         2.6285  -21.9290   -0.9857 H         1 7KZ         0.0573
     52 H27         1.9324  -18.1655   -5.6510 H         1 7KZ         0.0461
     53 H28        -3.6742  -17.2506   -4.4188 H         1 7KZ         0.1855
@<TRIPOS>BOND
     1    2    1 1  
     2   25    2 1  
     3    4    3 ar 
     4   16    3 ar 
     5    3   25 1  
     6    5    4 ar 
     7    5    7 1  
     8   14    5 ar 
     9    7    6 1  
    10    6    8 1  
    11    6   13 1  
    12    8    9 1  
    13    9   12 1  
    14   12   10 1  
    15   11   12 1  
    16   13   11 1  
    17   15   14 ar 
    18   14   24 ar 
    19   20   15 ar 
    20   24   16 ar 
    21   18   17 1  
    22   19   18 1  
    23   19   20 ar 
    24   19   23 ar 
    25   20   21 1  
    26   21   22 1  
    27   23   24 ar 
    28    1   26 1  
    29    1   27 1  
    30    1   28 1  
    31    2   29 1  
    32    2   30 1  
    33    6   31 1  
    34    7   32 1  
    35    8   33 1  
    36    8   34 1  
    37    9   35 1  
    38    9   36 1  
    39   10   37 1  
    40   10   38 1  
    41   10   39 1  
    42   11   40 1  
    43   11   41 1  
    44   12   42 1  
    45   13   43 1  
    46   13   44 1  
    47   15   45 1  
    48   17   46 1  
    49   17   47 1  
    50   17   48 1  
    51   22   49 1  
    52   22   50 1  
    53   22   51 1  
    54   23   52 1  
    55   25   53 1  
@<TRIPOS>SUBSTRUCTURE
     1 7KZ         1

