### 
### Created by X-TOOL on Mon Sep 10 21:13:33 2018
### 

@<TRIPOS>MOLECULE
5tts_ligand
   39    41     1     0     0
SMALL
GAST_HUCK


@<TRIPOS>ATOM
      1 N3          1.3810   12.1060   -3.5390 N.pl3     1 7KU        -0.2665
      2 C4         -2.3540   19.5080   -6.3980 C.3       1 7KU         0.0340
      3 N2         -0.9730   15.9650   -4.5800 N.pl3     1 7KU        -0.2967
      4 C7         -1.2850   17.3800   -4.7330 C.3       1 7KU         0.0615
      5 C6         -2.7930   17.5770   -4.8470 C.3       1 7KU        -0.0257
      6 C9          0.1040   15.3720   -4.0230 C.ar      1 7KU         0.1190
      7 C13         1.4320   13.4700   -3.5060 C.ar      1 7KU         0.1355
      8 C8         -0.5780   17.9340   -5.9620 C.3       1 7KU         0.0572
      9 N5          1.1080   16.1750   -3.6020 N.ar      1 7KU        -0.2731
     10 C1         -0.3340   21.9600   -7.9910 C.3       1 7KU        -0.0482
     11 C2         -0.4550   21.7460   -6.4940 C.3       1 7KU         0.0346
     12 C3         -0.0040   20.3520   -6.1150 C.2       1 7KU         0.1782
     13 O1          1.1540   20.1660   -5.7660 O.2       1 7KU        -0.3969
     14 N1         -0.9140   19.3470   -6.1510 N.am      1 7KU        -0.2710
     15 C5         -3.1410   19.0310   -5.1840 C.3       1 7KU        -0.0303
     16 C10         0.1740   13.9410   -3.9950 C.ar      1 7KU         0.0433
     17 C11        -0.6170   12.7810   -4.3040 C.2       1 7KU        -0.0545
     18 C12         0.1500   11.7000   -4.0050 C.2       1 7KU         0.0249
     19 N4          2.4540   14.2420   -3.0840 N.ar      1 7KU        -0.2772
     20 C14         2.2100   15.5550   -3.1620 C.ar      1 7KU         0.0500
     21 H1          2.1464   11.4765   -3.2582 H         1 7KU         0.2318
     22 H2         -2.6427   18.9134   -7.2772 H         1 7KU         0.0522
     23 H3         -2.5765   20.5691   -6.5838 H         1 7KU         0.0522
     24 H4         -1.6825   15.3187   -4.9539 H         1 7KU         0.1866
     25 H5         -0.9256   17.9206   -3.8450 H         1 7KU         0.0582
     26 H6         -3.2628   17.3090   -3.8892 H         1 7KU         0.0289
     27 H7         -3.1808   16.9225   -5.6415 H         1 7KU         0.0289
     28 H8         -0.8933   17.3648   -6.8489 H         1 7KU         0.0546
     29 H9          0.5095   17.8347   -5.8301 H         1 7KU         0.0546
     30 H10        -0.6664   22.9776   -8.2439 H         1 7KU         0.0254
     31 H11        -0.9627   21.2273   -8.5182 H         1 7KU         0.0254
     32 H12         0.7148   21.8303   -8.2964 H         1 7KU         0.0254
     33 H13        -1.5047   21.8801   -6.1937 H         1 7KU         0.0500
     34 H14         0.1728   22.4831   -5.9719 H         1 7KU         0.0500
     35 H15        -4.2170   19.1034   -5.4005 H         1 7KU         0.0285
     36 H16        -2.8966   19.6693   -4.3222 H         1 7KU         0.0285
     37 H17        -1.6315   12.7707   -4.6999 H         1 7KU         0.0311
     38 H18        -0.1631   10.6631   -4.1175 H         1 7KU         0.0922
     39 H19         3.0107   16.2029   -2.8241 H         1 7KU         0.0975
@<TRIPOS>BOND
     1    7    1 1  
     2    1   18 1  
     3   14    2 1  
     4    2   15 1  
     5    4    3 1  
     6    3    6 1  
     7    4    5 1  
     8    8    4 1  
     9   15    5 1  
    10    6    9 ar 
    11    6   16 ar 
    12   16    7 ar 
    13    7   19 ar 
    14   14    8 1  
    15    9   20 ar 
    16   11   10 1  
    17   12   11 1  
    18   12   13 2  
    19   12   14 am 
    20   16   17 1  
    21   17   18 2  
    22   19   20 ar 
    23    1   21 1  
    24    2   22 1  
    25    2   23 1  
    26    3   24 1  
    27    4   25 1  
    28    5   26 1  
    29    5   27 1  
    30    8   28 1  
    31    8   29 1  
    32   10   30 1  
    33   10   31 1  
    34   10   32 1  
    35   11   33 1  
    36   11   34 1  
    37   15   35 1  
    38   15   36 1  
    39   17   37 1  
    40   18   38 1  
    41   20   39 1  
@<TRIPOS>SUBSTRUCTURE
     1 7KU         1

