### 
### Created by X-TOOL on Mon Sep 10 21:13:32 2018
### 

@<TRIPOS>MOLECULE
5ttu_ligand
   43    46     1     0     0
SMALL
GAST_HUCK


@<TRIPOS>ATOM
      1 N3          1.3870   11.9200   -3.5900 N.pl3     1 7KV        -0.2665
      2 C4          1.4790   13.2770   -3.5430 C.ar      1 7KV         0.1355
      3 N2          2.5470   13.9950   -3.1630 N.ar      1 7KV        -0.2772
      4 C7         -3.0560   16.3160   -5.5760 C.3       1 7KV        -0.0269
      5 C6         -0.6000   12.6320   -4.3280 C.2       1 7KV        -0.0545
      6 C9         -2.5350   17.5340   -4.8060 C.3       1 7KV        -0.0117
      7 C13        -2.9470   18.9230   -5.3190 C.3       1 7KV        -0.0274
      8 C8         -2.0970   15.1910   -5.1920 C.3       1 7KV         0.0337
      9 N5         -0.6820   19.2230   -6.3100 N.am      1 7KV        -0.2709
     10 C16        -0.2300   21.7690   -8.1900 C.3       1 7KV        -0.0482
     11 N1          1.2870   15.9830   -3.7230 N.ar      1 7KV        -0.2730
     12 C1          2.3690   15.3170   -3.3030 C.ar      1 7KV         0.0500
     13 C2          0.2490   15.2060   -4.0840 C.ar      1 7KV         0.1215
     14 C3          0.2170   13.7890   -4.0310 C.ar      1 7KV         0.0435
     15 C5          0.1560   11.5400   -4.0610 C.2       1 7KV         0.0249
     16 N4         -0.9400   15.8690   -4.5950 N.pl3     1 7KV        -0.2825
     17 C10        -1.0130   17.3290   -4.7930 C.3       1 7KV         0.0673
     18 C11        -0.2610   17.8520   -6.0130 C.3       1 7KV         0.0577
     19 C12        -2.1260   19.2880   -6.5650 C.3       1 7KV         0.0343
     20 C14         0.1810   20.2620   -6.2740 C.2       1 7KV         0.1782
     21 O1          1.3390   20.1190   -5.9110 O.2       1 7KV        -0.3969
     22 C15        -0.3290   21.6240   -6.6850 C.3       1 7KV         0.0346
     23 H1          2.1359   11.2701   -3.3113 H         1 7KV         0.2318
     24 H2         -3.0283   16.4989   -6.6603 H         1 7KV         0.0289
     25 H3         -4.0846   16.0727   -5.2713 H         1 7KV         0.0289
     26 H4         -1.6251   12.6380   -4.6954 H         1 7KV         0.0311
     27 H5         -2.9102   17.4664   -3.7742 H         1 7KV         0.0326
     28 H6         -2.7665   19.6702   -4.5322 H         1 7KV         0.0288
     29 H7         -4.0162   18.9135   -5.5773 H         1 7KV         0.0288
     30 H8         -1.7941   14.6198   -6.0819 H         1 7KV         0.0529
     31 H9         -2.5668   14.5135   -4.4638 H         1 7KV         0.0529
     32 H10        -0.6014   22.7606   -8.4880 H         1 7KV         0.0254
     33 H11        -0.8366   20.9895   -8.6742 H         1 7KV         0.0254
     34 H12         0.8199   21.6623   -8.5004 H         1 7KV         0.0254
     35 H13         3.2214   15.9324   -3.0388 H         1 7KV         0.0975
     36 H14        -0.1669   10.5093   -4.2002 H         1 7KV         0.0922
     37 H15        -0.5846   17.8400   -3.9182 H         1 7KV         0.0587
     38 H16         0.8197   17.8389   -5.8082 H         1 7KV         0.0546
     39 H17        -0.4781   17.2085   -6.8783 H         1 7KV         0.0546
     40 H18        -2.3863   20.3109   -6.8748 H         1 7KV         0.0522
     41 H19        -2.3759   18.5852   -7.3735 H         1 7KV         0.0522
     42 H20        -1.3789   21.7310   -6.3749 H         1 7KV         0.0500
     43 H21         0.2776   22.4037   -6.2011 H         1 7KV         0.0500
@<TRIPOS>BOND
     1    2    1 1  
     2   15    1 1  
     3    2    3 ar 
     4   14    2 ar 
     5   12    3 ar 
     6    6    4 1  
     7    4    8 1  
     8   14    5 1  
     9    5   15 2  
    10    7    6 1  
    11   17    6 1  
    12   19    7 1  
    13   16    8 1  
    14    9   18 1  
    15    9   19 1  
    16   20    9 am 
    17   22   10 1  
    18   11   12 ar 
    19   13   11 ar 
    20   13   14 ar 
    21   16   13 1  
    22   17   16 1  
    23   18   17 1  
    24   20   21 2  
    25   20   22 1  
    26    1   23 1  
    27    4   24 1  
    28    4   25 1  
    29    5   26 1  
    30    6   27 1  
    31    7   28 1  
    32    7   29 1  
    33    8   30 1  
    34    8   31 1  
    35   10   32 1  
    36   10   33 1  
    37   10   34 1  
    38   12   35 1  
    39   15   36 1  
    40   17   37 1  
    41   18   38 1  
    42   18   39 1  
    43   19   40 1  
    44   19   41 1  
    45   22   42 1  
    46   22   43 1  
@<TRIPOS>SUBSTRUCTURE
     1 7KV         1

