### 
### Created by X-TOOL on Mon Sep 10 21:13:32 2018
### 

@<TRIPOS>MOLECULE
5ttv_ligand
   34    36     1     0     0
SMALL
GAST_HUCK


@<TRIPOS>ATOM
      1 N3          3.1700   14.0330   -3.1230 N.ar      1 7KX        -0.2576
      2 C4         -0.9750   18.4280   -5.2930 C.ar      1 7KX         0.0697
      3 N2          1.7690   12.0880   -3.5160 N.pl3     1 7KX        -0.2590
      4 C7         -1.5300   16.0510   -3.9700 C.ar      1 7KX        -0.0640
      5 C6         -2.5670   16.8650   -4.3920 C.ar      1 7KX        -0.0712
      6 C9          0.0640   17.5880   -4.9010 C.ar      1 7KX        -0.0288
      7 C13         0.4800   11.8720   -3.9300 C.2       1 7KX         0.0315
      8 C8         -0.2030   16.3950   -4.2240 C.ar      1 7KX        -0.0112
      9 C1          0.7290   21.7370   -7.2960 C.3       1 7KX        -0.0477
     10 C2         -0.7820   21.6840   -7.1920 C.3       1 7KX         0.0403
     11 C3         -1.2820   20.2900   -6.9000 C.2       1 7KX         0.2032
     12 O1         -2.1490   19.7520   -7.5940 O.2       1 7KX        -0.3850
     13 N1         -0.6940   19.7020   -5.8330 N.am      1 7KX        -0.2335
     14 C5         -2.2950   18.0530   -5.0530 C.ar      1 7KX        -0.0380
     15 C10         0.9070   15.4980   -3.8060 C.ar      1 7KX         0.0508
     16 C11         0.8180   14.0820   -3.8520 C.ar      1 7KX         0.0285
     17 C12        -0.1430   13.0530   -4.1530 C.2       1 7KX        -0.0491
     18 C14         2.0200   13.4310   -3.4730 C.ar      1 7KX         0.1495
     19 C15         3.0780   15.3640   -3.1080 C.ar      1 7KX         0.0667
     20 N4          2.0310   16.1270   -3.4230 N.ar      1 7KX        -0.2813
     21 H1          2.4457   11.3501   -3.2740 H         1 7KX         0.2338
     22 H2         -1.7524   15.1346   -3.4354 H         1 7KX         0.0524
     23 H3         -3.5941   16.5730   -4.2052 H         1 7KX         0.0587
     24 H4          1.0891   17.8619   -5.1229 H         1 7KX         0.0531
     25 H5          0.0233   10.8920   -4.0606 H         1 7KX         0.0984
     26 H6          1.0459   22.7686   -7.5088 H         1 7KX         0.0254
     27 H7          1.0641   21.0756   -8.1085 H         1 7KX         0.0254
     28 H8          1.1738   21.4054   -6.3462 H         1 7KX         0.0254
     29 H9         -1.2153   22.0241   -8.1441 H         1 7KX         0.0505
     30 H10        -1.1056   22.3539   -6.3818 H         1 7KX         0.0505
     31 H11         0.0211   20.2297   -5.3745 H         1 7KX         0.2255
     32 H12        -3.1084   18.6892   -5.3826 H         1 7KX         0.0530
     33 H13        -1.1677   13.1963   -4.4927 H         1 7KX         0.0322
     34 H14         3.9715   15.8945   -2.7993 H         1 7KX         0.1018
@<TRIPOS>BOND
     1   18    1 ar 
     2    1   19 ar 
     3    6    2 ar 
     4    2   13 1  
     5    2   14 ar 
     6    7    3 1  
     7    3   18 1  
     8    4    5 ar 
     9    8    4 ar 
    10    5   14 ar 
    11    8    6 ar 
    12   17    7 2  
    13   15    8 1  
    14   10    9 1  
    15   11   10 1  
    16   11   12 2  
    17   13   11 am 
    18   16   15 ar 
    19   15   20 ar 
    20   16   17 1  
    21   16   18 ar 
    22   19   20 ar 
    23    3   21 1  
    24    4   22 1  
    25    5   23 1  
    26    6   24 1  
    27    7   25 1  
    28    9   26 1  
    29    9   27 1  
    30    9   28 1  
    31   10   29 1  
    32   10   30 1  
    33   13   31 1  
    34   14   32 1  
    35   17   33 1  
    36   19   34 1  
@<TRIPOS>SUBSTRUCTURE
     1 7KX         1

