### 
### Created by X-TOOL on Mon Sep 10 21:13:31 2018
### 

@<TRIPOS>MOLECULE
5ttw_ligand
  100   101     1     0     0
SMALL
GAST_HUCK


@<TRIPOS>ATOM
      1 N          18.8740  -13.9800   12.8920 N.4       1 PRO         0.2461
      2 CA         18.8340  -13.2120   11.6560 C.3       1 PRO         0.0670
      3 C          20.2050  -13.2380   11.0980 C.2       1 PRO         0.2268
      4 O          21.0360  -13.9830   11.6190 O.2       1 PRO        -0.3907
      5 CB         18.5000  -11.7860   12.1280 C.3       1 PRO         0.0127
      6 CG         17.8150  -11.9990   13.4360 C.3       1 PRO        -0.0053
      7 CD         18.5490  -13.1570   14.0480 C.3       1 PRO        -0.0313
      8 N          20.5210  -12.3450   10.1820 N.am      1 SER        -0.2589
      9 CA         21.7740  -12.4120    9.4940 C.3       1 SER         0.1540
     10 C          22.6590  -11.2040    9.8510 C.2       1 SER         0.2062
     11 O          22.1030  -10.1610   10.0720 O.2       1 SER        -0.3943
     12 CB         21.4430  -12.3750    8.0070 C.3       1 SER         0.0843
     13 OG         22.6550  -12.3590    7.3170 O.3       1 SER        -0.3903
     14 N          23.9550  -11.3850    9.9320 N.am      1 M3L        -0.2637
     15 CA         24.9200  -10.2700   10.1710 C.3       1 M3L         0.1310
     16 CB         26.2550  -10.8020   10.7130 C.3       1 M3L        -0.0122
     17 CG         27.2060   -9.7150   11.1660 C.3       1 M3L        -0.0440
     18 CD         28.3330  -10.2980   12.0480 C.3       1 M3L        -0.0123
     19 CE         29.3210   -9.1840   12.4210 C.3       1 M3L        -0.0309
     20 NZ         30.5380   -9.6280   13.1430 N.4       1 M3L         0.2369
     21 C          25.2280   -9.5950    8.8540 C.2       1 M3L         0.2040
     22 O          25.6230   -8.4360    8.8260 O.2       1 M3L        -0.3944
     23 CM1        30.1940  -10.3870   14.3650 C.3       1 M3L        -0.0418
     24 CM2        31.3190   -8.4250   13.4890 C.3       1 M3L        -0.0418
     25 CM3        31.4380  -10.4810   12.3290 C.3       1 M3L        -0.0418
     26 N          25.0570  -10.3280    7.7540 N.am      1 PHE        -0.2619
     27 CA         25.5210   -9.8640    6.4250 C.3       1 PHE         0.1404
     28 C          24.3810   -9.6430    5.4350 C.2       1 PHE         0.2060
     29 O          23.3360  -10.2810    5.5050 O.2       1 PHE        -0.3942
     30 CB         26.5800  -10.8090    5.8670 C.3       1 PHE         0.0214
     31 CG         27.7890  -10.9270    6.7270 C.ar      1 PHE        -0.0386
     32 CD1        28.6690   -9.8480    6.8550 C.ar      1 PHE        -0.0601
     33 CD2        28.0000  -12.0930    7.4890 C.ar      1 PHE        -0.0601
     34 CE1        29.7940   -9.9590    7.6880 C.ar      1 PHE        -0.0686
     35 CE2        29.1070  -12.1970    8.3450 C.ar      1 PHE        -0.0686
     36 CZ         29.9940  -11.1380    8.4310 C.ar      1 PHE        -0.0687
     37 CD2        22.6520   -4.8410    2.4250 C.3       1 NLW        -0.0625
     38 CG         22.3830   -6.2990    2.8030 C.3       1 NLW        -0.0425
     39 CD1        21.2130   -6.4660    3.7630 C.3       1 NLW        -0.0625
     40 CB         23.6280   -6.8770    3.4070 C.3       1 NLW        -0.0101
     41 CA         23.5370   -8.3980    3.5240 C.3       1 NLW         0.1309
     42 N          24.5780   -8.7490    4.4950 N.am      1 NLW        -0.2636
     43 C          23.7690   -9.0380    2.1780 C.2       1 NLW         0.1992
     44 O          24.8370   -8.8570    1.5960 O.2       1 NLW        -0.3947
     45 NH2        22.8450   -9.8150    1.6120 N.am      1 NLW        -0.2990
     46 H1         19.8003  -14.3593   13.0111 H         1 PRO         0.2035
     47 H2         18.2076  -14.7338   12.8300 H         1 PRO         0.2035
     48 H3         18.0956  -13.5968   10.9372 H         1 PRO         0.1099
     49 H4         17.8329  -11.2821   11.4131 H         1 PRO         0.0347
     50 H5         19.4159  -11.1907   12.2571 H         1 PRO         0.0347
     51 H6         16.7534  -12.2448   13.2857 H         1 PRO         0.0320
     52 H7         17.8979  -11.1045   14.0707 H         1 PRO         0.0320
     53 H8         19.4605  -12.8204   14.5636 H         1 PRO         0.0814
     54 H9         17.9078  -13.7031   14.7556 H         1 PRO         0.0814
     55 H10        19.8771  -11.6113    9.9649 H         1 SER         0.1885
     56 H11        22.2999  -13.3437    9.7496 H         1 SER         0.0823
     57 H12        20.8632  -11.4703    7.7720 H         1 SER         0.0606
     58 H13        20.8616  -13.2660    7.7276 H         1 SER         0.0606
     59 H14        22.4858  -12.3358    6.3825 H         1 SER         0.2097
     60 H15        24.3142  -12.3126    9.8290 H         1 M3L         0.1883
     61 H16        24.4844   -9.5506   10.8800 H         1 M3L         0.0800
     62 H17        26.7455  -11.3829    9.9181 H         1 M3L         0.0312
     63 H18        26.0446  -11.4583   11.5703 H         1 M3L         0.0312
     64 H19        26.6465   -8.9660   11.7457 H         1 M3L         0.0269
     65 H20        27.6523   -9.2360   10.2820 H         1 M3L         0.0269
     66 H21        28.8623  -11.0863   11.4926 H         1 M3L         0.0317
     67 H22        27.8981  -10.7239   12.9642 H         1 M3L         0.0317
     68 H23        28.7922   -8.4614   13.0599 H         1 M3L         0.0815
     69 H24        29.6395   -8.6880   11.4923 H         1 M3L         0.0815
     70 H25        31.1174  -10.7000   14.8743 H         1 M3L         0.0778
     71 H26        29.6068  -11.2760   14.0914 H         1 M3L         0.0778
     72 H27        29.6021   -9.7495   15.0382 H         1 M3L         0.0778
     73 H28        31.5667   -7.8721   12.5709 H         1 M3L         0.0778
     74 H29        32.2469   -8.7242   13.9984 H         1 M3L         0.0778
     75 H30        30.7257   -7.7818   14.1555 H         1 M3L         0.0778
     76 H31        30.9082  -11.4002   12.0384 H         1 M3L         0.0778
     77 H32        32.3287  -10.7422   12.9193 H         1 M3L         0.0778
     78 H33        31.7444   -9.9333   11.4256 H         1 M3L         0.0778
     79 H34        24.6029  -11.2159    7.8274 H         1 PHE         0.1885
     80 H35        26.0031   -8.8869    6.5763 H         1 PHE         0.0823
     81 H36        26.8912  -10.4377    4.8794 H         1 PHE         0.0474
     82 H37        26.1320  -11.8078    5.7588 H         1 PHE         0.0474
     83 H38        28.4832   -8.9281    6.3125 H         1 PHE         0.0557
     84 H39        27.3005  -12.9177    7.4133 H         1 PHE         0.0557
     85 H40        30.5036   -9.1425    7.7585 H         1 PHE         0.0599
     86 H41        29.2654  -13.0950    8.9312 H         1 PHE         0.0599
     87 H42        30.8574  -11.2177    9.0815 H         1 PHE         0.0559
     88 H43        21.7456   -4.4044    1.9802 H         1 NLW         0.0232
     89 H44        23.4755   -4.7968    1.6971 H         1 NLW         0.0232
     90 H45        22.9282   -4.2736    3.3260 H         1 NLW         0.0232
     91 H46        22.1460   -6.8528    1.8826 H         1 NLW         0.0298
     92 H47        21.0758   -7.5332    3.9916 H         1 NLW         0.0232
     93 H48        20.2980   -6.0700    3.2983 H         1 NLW         0.0232
     94 H49        21.4200   -5.9155    4.6926 H         1 NLW         0.0232
     95 H50        23.7712   -6.4489    4.4101 H         1 NLW         0.0315
     96 H51        24.4877   -6.6178    2.7716 H         1 NLW         0.0315
     97 H52        22.5485   -8.7003    3.9002 H         1 NLW         0.0800
     98 H53        25.4661   -8.2927    4.4391 H         1 NLW         0.1883
     99 H54        23.0192  -10.2296    0.7188 H         1 NLW         0.1815
    100 H55        21.9778   -9.9831    2.0807 H         1 NLW         0.1815
@<TRIPOS>BOND
     1    2    1 1  
     2    1    7 1  
     3    3    2 1  
     4    2    5 1  
     5    3    4 2  
     6    8    3 am 
     7    5    6 1  
     8    6    7 1  
     9    9    8 1  
    10   10    9 1  
    11    9   12 1  
    12   10   11 2  
    13   14   10 am 
    14   12   13 1  
    15   15   14 1  
    16   15   16 1  
    17   21   15 1  
    18   16   17 1  
    19   17   18 1  
    20   18   19 1  
    21   19   20 1  
    22   20   23 1  
    23   20   24 1  
    24   20   25 1  
    25   21   22 2  
    26   26   21 am 
    27   27   26 1  
    28   28   27 1  
    29   27   30 1  
    30   28   29 2  
    31   42   28 am 
    32   30   31 1  
    33   31   32 ar 
    34   31   33 ar 
    35   32   34 ar 
    36   33   35 ar 
    37   34   36 ar 
    38   35   36 ar 
    39   38   37 1  
    40   38   39 1  
    41   40   38 1  
    42   41   40 1  
    43   41   42 1  
    44   41   43 1  
    45   43   44 2  
    46   43   45 am 
    47    1   46 1  
    48    1   47 1  
    49    2   48 1  
    50    5   49 1  
    51    5   50 1  
    52    6   51 1  
    53    6   52 1  
    54    7   53 1  
    55    7   54 1  
    56    8   55 1  
    57    9   56 1  
    58   12   57 1  
    59   12   58 1  
    60   13   59 1  
    61   14   60 1  
    62   15   61 1  
    63   16   62 1  
    64   16   63 1  
    65   17   64 1  
    66   17   65 1  
    67   18   66 1  
    68   18   67 1  
    69   19   68 1  
    70   19   69 1  
    71   23   70 1  
    72   23   71 1  
    73   23   72 1  
    74   24   73 1  
    75   24   74 1  
    76   24   75 1  
    77   25   76 1  
    78   25   77 1  
    79   25   78 1  
    80   26   79 1  
    81   27   80 1  
    82   30   81 1  
    83   30   82 1  
    84   32   83 1  
    85   33   84 1  
    86   34   85 1  
    87   35   86 1  
    88   36   87 1  
    89   37   88 1  
    90   37   89 1  
    91   37   90 1  
    92   38   91 1  
    93   39   92 1  
    94   39   93 1  
    95   39   94 1  
    96   40   95 1  
    97   40   96 1  
    98   41   97 1  
    99   42   98 1  
   100   45   99 1  
   101   45  100 1  
@<TRIPOS>SUBSTRUCTURE
     1 PRO         1

