### 
### Created by X-TOOL on Mon Sep 10 21:13:34 2018
### 

@<TRIPOS>MOLECULE
5tuo_ligand
   14    14     1     0     0
SMALL
GAST_HUCK


@<TRIPOS>ATOM
      1 S1          9.0790  -39.4540  -76.7550 S.o2      1 1SA         0.0999
      2 O1          7.9800  -40.3400  -76.5860 O.2       1 1SA        -0.1450
      3 O2          9.0450  -38.2280  -77.4700 O.2       1 1SA        -0.1450
      4 N1          9.5870  -39.0700  -75.2260 N.am      1 1SA        -0.2563
      5 N2         10.3080  -41.6220  -78.0260 N.2       1 1SA        -0.2437
      6 N3         11.3210  -42.1720  -78.5380 N.2       1 1SA        -0.2552
      7 S2         12.0770  -40.0160  -77.7840 S.3       1 1SA         0.0861
      8 C1         10.3530  -40.4120  -77.5080 C.2       1 1SA         0.2585
      9 C2         12.5010  -41.5670  -78.5750 C.2       1 1SA         0.1966
     10 N4         13.7140  -42.0070  -79.0850 N.pl3     1 1SA        -0.2964
     11 H1          9.6868  -39.7880  -74.5372 H         1 1SA         0.1639
     12 H2          9.7939  -38.1201  -74.9917 H         1 1SA         0.1639
     13 H3         13.7842  -42.9412  -79.5130 H         1 1SA         0.1863
     14 H4         14.5443  -41.3994  -79.0356 H         1 1SA         0.1863
@<TRIPOS>BOND
     1    1    2 2  
     2    1    3 2  
     3    1    4 am 
     4    8    1 1  
     5    5    6 1  
     6    5    8 2  
     7    6    9 2  
     8    8    7 1  
     9    7    9 1  
    10    9   10 1  
    11    4   11 1  
    12    4   12 1  
    13   10   13 1  
    14   10   14 1  
@<TRIPOS>SUBSTRUCTURE
     1 1SA         1

