### 
### Created by X-TOOL on Mon Sep 10 21:13:33 2018
### 

@<TRIPOS>MOLECULE
5tuq_ligand
   58    60     1     0     0
SMALL
GAST_HUCK


@<TRIPOS>ATOM
      1 O01        53.9010  -27.1080   33.2330 O.2       1 J63        -0.4166
      2 C02        52.8710  -27.6620   33.6550 C.2       1 J63         0.2117
      3 C03        52.3910  -27.5280   35.0770 C.2       1 J63         0.0228
      4 C04        53.0990  -26.7370   36.1990 C.3       1 J63        -0.0330
      5 C05        54.3230  -27.4800   36.7280 C.3       1 J63        -0.0619
      6 C06        53.3500  -25.2550   35.9130 C.3       1 J63        -0.0619
      7 C07        51.2360  -28.1550   35.5410 C.2       1 J63         0.0706
      8 C08        50.8720  -27.9420   37.0060 C.3       1 J63         0.0123
      9 C09        49.4850  -27.2130   37.1650 C.3       1 J63        -0.0269
     10 C10        48.5930  -27.7490   38.3210 C.3       1 J63        -0.0480
     11 C11        47.3470  -26.8750   38.5800 C.3       1 J63        -0.0526
     12 C12        47.6820  -25.3850   38.6830 C.3       1 J63        -0.0530
     13 C13        48.4790  -24.8950   37.4670 C.3       1 J63        -0.0526
     14 C14        49.7580  -25.7120   37.2790 C.3       1 J63        -0.0480
     15 N15        50.4570  -28.9800   34.6010 N.am      1 J63        -0.1665
     16 C16        49.2100  -29.6970   34.9790 C.3       1 J63         0.1651
     17 O17        49.6160  -31.0220   35.3510 O.3       1 J63        -0.3380
     18 C18        49.4670  -32.0020   34.3280 C.3       1 J63         0.0847
     19 C19        50.5190  -33.0710   34.4240 C.ar      1 J63        -0.0174
     20 C20        51.5860  -33.0910   33.5490 C.ar      1 J63        -0.0581
     21 C21        52.5430  -34.1050   33.6380 C.ar      1 J63        -0.0685
     22 C22        52.4230  -35.0910   34.5950 C.ar      1 J63        -0.0687
     23 C23        51.3540  -35.0750   35.4640 C.ar      1 J63        -0.0685
     24 C24        50.3990  -34.0670   35.3700 C.ar      1 J63        -0.0581
     25 C25        50.9040  -29.1280   33.1900 C.2       1 J63         0.3556
     26 N26        52.1410  -28.4390   32.7510 N.am      1 J63        -0.0436
     27 O27        52.5810  -28.5650   31.4220 O.3       1 J63        -0.2429
     28 O28        50.2960  -29.7800   32.4190 O.2       1 J63        -0.3843
     29 H1         52.3826  -26.7348   37.0337 H         1 J63         0.0327
     30 H2         54.7975  -26.8857   37.5228 H         1 J63         0.0240
     31 H3         55.0402  -27.6353   35.9086 H         1 J63         0.0240
     32 H4         54.0134  -28.4544   37.1339 H         1 J63         0.0240
     33 H5         52.4254  -24.7924   35.5372 H         1 J63         0.0240
     34 H6         54.1428  -25.1566   35.1568 H         1 J63         0.0240
     35 H7         53.6621  -24.7505   36.8393 H         1 J63         0.0240
     36 H8         51.6524  -27.3296   37.4812 H         1 J63         0.0487
     37 H9         50.8190  -28.9206   37.5055 H         1 J63         0.0487
     38 H10        48.9201  -27.3805   36.2361 H         1 J63         0.0328
     39 H11        49.1948  -27.7819   39.2412 H         1 J63         0.0270
     40 H12        48.2602  -28.7654   38.0639 H         1 J63         0.0270
     41 H13        46.8811  -27.1969   39.5230 H         1 J63         0.0265
     42 H14        46.6373  -27.0197   37.7522 H         1 J63         0.0265
     43 H15        48.2788  -25.2162   39.5914 H         1 J63         0.0265
     44 H16        46.7447  -24.8130   38.7484 H         1 J63         0.0265
     45 H17        48.7466  -23.8384   37.6153 H         1 J63         0.0265
     46 H18        47.8553  -24.9923   36.5661 H         1 J63         0.0265
     47 H19        50.2600  -25.3743   36.3604 H         1 J63         0.0270
     48 H20        50.4172  -25.5382   38.1422 H         1 J63         0.0270
     49 H21        48.5166  -29.7346   34.1259 H         1 J63         0.0920
     50 H22        48.7215  -29.1943   35.8267 H         1 J63         0.0920
     51 H23        49.5481  -31.5093   33.3479 H         1 J63         0.0725
     52 H24        48.4753  -32.4684   34.4230 H         1 J63         0.0725
     53 H25        51.6816  -32.3202   32.7929 H         1 J63         0.0557
     54 H26        53.3827  -34.1169   32.9526 H         1 J63         0.0599
     55 H27        53.1674  -35.8760   34.6632 H         1 J63         0.0559
     56 H28        51.2569  -35.8462   36.2196 H         1 J63         0.0599
     57 H29        49.5525  -34.0649   36.0471 H         1 J63         0.0557
     58 H30        53.3812  -28.0662   31.3059 H         1 J63         0.2559
@<TRIPOS>BOND
     1    1    2 2  
     2    2    3 1  
     3    2   26 am 
     4    3    4 1  
     5    3    7 2  
     6    4    5 1  
     7    4    6 1  
     8    7    8 1  
     9    7   15 1  
    10    8    9 1  
    11    9   10 1  
    12    9   14 1  
    13   10   11 1  
    14   11   12 1  
    15   12   13 1  
    16   13   14 1  
    17   15   16 1  
    18   15   25 am 
    19   16   17 1  
    20   17   18 1  
    21   18   19 1  
    22   19   20 ar 
    23   19   24 ar 
    24   20   21 ar 
    25   21   22 ar 
    26   22   23 ar 
    27   23   24 ar 
    28   25   26 am 
    29   25   28 2  
    30   26   27 1  
    31    4   29 1  
    32    5   30 1  
    33    5   31 1  
    34    5   32 1  
    35    6   33 1  
    36    6   34 1  
    37    6   35 1  
    38    8   36 1  
    39    8   37 1  
    40    9   38 1  
    41   10   39 1  
    42   10   40 1  
    43   11   41 1  
    44   11   42 1  
    45   12   43 1  
    46   12   44 1  
    47   13   45 1  
    48   13   46 1  
    49   14   47 1  
    50   14   48 1  
    51   16   49 1  
    52   16   50 1  
    53   18   51 1  
    54   18   52 1  
    55   20   53 1  
    56   21   54 1  
    57   22   55 1  
    58   23   56 1  
    59   24   57 1  
    60   27   58 1  
@<TRIPOS>SUBSTRUCTURE
     1 J63         1

