### 
### Created by X-TOOL on Mon Sep 10 21:13:33 2018
### 

@<TRIPOS>MOLECULE
5tur_ligand
   44    47     1     0     0
SMALL
GAST_HUCK


@<TRIPOS>ATOM
      1 CAA        25.8820   47.6780    3.2780 C.ar      1 7LK        -0.0185
      2 CAB        26.3760   48.9270    3.6150 C.ar      1 7LK         0.0055
      3 CAD        25.6590   47.3710    1.9460 C.ar      1 7LK         0.0962
      4 CAF        26.1900   49.3850   -0.8100 C.2       1 7LK         0.0679
      5 CAG        25.7890   48.2150   -0.3240 C.2       1 7LK        -0.0438
      6 CAH        25.9170   48.2700    1.0000 C.ar      1 7LK         0.0307
      7 CAI        26.3910   49.4770    1.3190 C.ar      1 7LK         0.1474
      8 CAJ        25.1560   46.0940    1.6050 C.1       1 7LK         0.0976
      9 CAL        26.1750   49.6570   -2.1220 C.ar      1 7LK        -0.0006
     10 CAM        26.5540   50.8960   -2.6310 C.ar      1 7LK        -0.0596
     11 CAN        26.5190   51.1530   -3.9910 C.ar      1 7LK        -0.0400
     12 CAO        26.1030   50.1630   -4.8690 C.ar      1 7LK         0.0449
     13 CAP        25.7110   48.9220   -4.3790 C.ar      1 7LK        -0.0400
     14 CAQ        25.7490   48.6730   -3.0100 C.ar      1 7LK        -0.0596
     15 CAS        26.4560   51.7520   -6.7080 C.3       1 7LK         0.0679
     16 CAT        25.5650   52.1150   -7.8850 C.3       1 7LK        -0.0133
     17 CAV        25.1860   49.8740   -8.3880 C.3       1 7LK        -0.0133
     18 CAW        26.0630   49.4110   -7.2290 C.3       1 7LK         0.0679
     19 CAX        27.0900   51.5560    0.4120 C.3       1 7LK         0.0427
     20 NAC        26.6260   49.8290    2.5900 N.ar      1 7LK        -0.2755
     21 NAE        26.5600   50.1750    0.2070 N.pl3     1 7LK        -0.2464
     22 NAK        24.7570   45.0790    1.3430 N.1       1 7LK        -0.3308
     23 NAR        26.0640   50.4380   -6.1790 N.pl3     1 7LK        -0.2963
     24 NAU        25.6390   51.1430   -8.9950 N.4       1 7LK         0.2298
     25 H1         25.6716   46.9468    4.0501 H         1 7LK         0.0706
     26 H2         26.5621   49.1926    4.6494 H         1 7LK         0.0759
     27 H3         25.4232   47.3676   -0.9020 H         1 7LK         0.0318
     28 H4         26.8823   51.6733   -1.9505 H         1 7LK         0.0610
     29 H5         26.8158   52.1249   -4.3685 H         1 7LK         0.0529
     30 H6         25.3763   48.1497   -5.0621 H         1 7LK         0.0529
     31 H7         25.4441   47.7040   -2.6318 H         1 7LK         0.0610
     32 H8         26.3478   52.5111   -5.9193 H         1 7LK         0.0570
     33 H9         27.5040   51.7150   -7.0401 H         1 7LK         0.0570
     34 H10        25.8711   53.1014   -8.2636 H         1 7LK         0.0834
     35 H11        24.5241   52.1643   -7.5329 H         1 7LK         0.0834
     36 H12        24.1601   50.0120   -8.0158 H         1 7LK         0.0834
     37 H13        25.1928   49.0942   -9.1638 H         1 7LK         0.0834
     38 H14        27.0907   49.2511   -7.5872 H         1 7LK         0.0570
     39 H15        25.6661   48.4696   -6.8214 H         1 7LK         0.0570
     40 H16        27.1967   52.0561   -0.5619 H         1 7LK         0.0563
     41 H17        28.0713   51.5026    0.9061 H         1 7LK         0.0563
     42 H18        26.3924   52.1266    1.0427 H         1 7LK         0.0563
     43 H19        26.5838   51.0599   -9.3364 H         1 7LK         0.2015
     44 H20        25.0311   51.4156   -9.7514 H         1 7LK         0.2015
@<TRIPOS>BOND
     1    2    1 ar 
     2    3    1 ar 
     3   20    2 ar 
     4    6    3 ar 
     5    3    8 1  
     6    4    5 2  
     7    9    4 1  
     8    4   21 1  
     9    5    6 1  
    10    7    6 ar 
    11    7   20 ar 
    12   21    7 1  
    13    8   22 3  
    14   10    9 ar 
    15   14    9 ar 
    16   11   10 ar 
    17   12   11 ar 
    18   12   13 ar 
    19   23   12 1  
    20   13   14 ar 
    21   16   15 1  
    22   15   23 1  
    23   24   16 1  
    24   17   18 1  
    25   17   24 1  
    26   18   23 1  
    27   21   19 1  
    28    1   25 1  
    29    2   26 1  
    30    5   27 1  
    31   10   28 1  
    32   11   29 1  
    33   13   30 1  
    34   14   31 1  
    35   15   32 1  
    36   15   33 1  
    37   16   34 1  
    38   16   35 1  
    39   17   36 1  
    40   17   37 1  
    41   18   38 1  
    42   18   39 1  
    43   19   40 1  
    44   19   41 1  
    45   19   42 1  
    46   24   43 1  
    47   24   44 1  
@<TRIPOS>SUBSTRUCTURE
     1 7LK         1

