### 
### Created by X-TOOL on Tue Oct 16 15:17:59 2018
### 

@<TRIPOS>MOLECULE
5tus_ligand
   37    39     1     0     0
SMALL
GAST_HUCK


@<TRIPOS>ATOM
      1 C1         14.4260  -16.6660  -24.6710 C.ar      1 MOL         0.0867
      2 O1         15.3940  -18.8390  -24.2620 O.2       1 MOL        -0.3757
      3 C2         13.1710  -16.0450  -24.8340 C.ar      1 MOL        -0.0497
      4 O2         11.7050  -18.9580  -25.4110 O.3       1 MOL        -0.3309
      5 C3         13.0360  -14.7720  -25.3810 C.ar      1 MOL        -0.0671
      6 C4         14.1740  -14.0850  -25.8000 C.ar      1 MOL        -0.0662
      7 C5         15.4310  -14.6920  -25.6710 C.ar      1 MOL        -0.0271
      8 C6         14.4430  -18.0750  -24.1070 C.2       1 MOL         0.2440
      9 C          15.5640  -15.9860  -25.1210 C.ar      1 MOL         0.1098
     10 O          16.8100  -16.5460  -25.0060 O.3       1 MOL        -0.3276
     11 N          13.3310  -18.5390  -23.5250 N.am      1 MOL        -0.1721
     12 N1         13.3390  -19.8980  -23.0910 N.2       1 MOL        -0.1946
     13 C7         12.9710  -20.9460  -23.7470 C.2       1 MOL         0.0252
     14 C8         12.6540  -21.1110  -25.2040 C.ar      1 MOL         0.0194
     15 C9         12.1210  -20.1070  -26.0020 C.ar      1 MOL         0.0974
     16 C10        11.9740  -20.2910  -27.4040 C.ar      1 MOL        -0.0293
     17 C11        12.3560  -21.4660  -28.0200 C.ar      1 MOL        -0.0594
     18 C12        12.8980  -22.4470  -27.2210 C.ar      1 MOL        -0.0264
     19 C13        13.0630  -22.3050  -25.8530 C.ar      1 MOL        -0.0204
     20 C17        13.2840  -23.6380  -27.7780 C.ar      1 MOL        -0.0592
     21 C16        13.8190  -24.7350  -27.0730 C.ar      1 MOL        -0.0653
     22 C15        14.0180  -24.6050  -25.7150 C.ar      1 MOL        -0.0655
     23 C14        13.6320  -23.3950  -25.1400 C.ar      1 MOL        -0.0596
     24 H1         12.2797  -16.5775  -24.5224 H         1 MOL         0.0640
     25 H2         12.4376  -18.5494  -24.9651 H         1 MOL         0.2500
     26 H3         12.0559  -14.3197  -25.4800 H         1 MOL         0.0536
     27 H4         14.0878  -13.0902  -26.2219 H         1 MOL         0.0624
     28 H5         16.3161  -14.1590  -25.9990 H         1 MOL         0.0555
     29 H6         16.7329  -17.4111  -24.6211 H         1 MOL         0.2509
     30 H7         12.5275  -17.9571  -23.3994 H         1 MOL         0.2516
     31 H8         12.8756  -21.8519  -23.1503 H         1 MOL         0.0697
     32 H9         11.5528  -19.4913  -28.0024 H         1 MOL         0.0576
     33 H10        12.2343  -21.6099  -29.0875 H         1 MOL         0.0590
     34 H11        13.1682  -23.7455  -28.8504 H         1 MOL         0.0611
     35 H12        14.0676  -25.6573  -27.5855 H         1 MOL         0.0588
     36 H13        14.4526  -25.4032  -25.1242 H         1 MOL         0.0600
     37 H14        13.7762  -23.2770  -24.0721 H         1 MOL         0.0595
@<TRIPOS>BOND
     1    1    3 ar 
     2    8    1 1  
     3    1    9 ar 
     4    8    2 2  
     5    3    5 ar 
     6   15    4 1  
     7    5    6 ar 
     8    7    6 ar 
     9    9    7 ar 
    10   11    8 am 
    11    9   10 1  
    12   12   11 1  
    13   13   12 2  
    14   14   13 1  
    15   14   15 ar 
    16   14   19 ar 
    17   15   16 ar 
    18   16   17 ar 
    19   17   18 ar 
    20   18   19 ar 
    21   18   20 ar 
    22   19   23 ar 
    23   20   21 ar 
    24   21   22 ar 
    25   22   23 ar 
    26    3   24 1  
    27    4   25 1  
    28    5   26 1  
    29    6   27 1  
    30    7   28 1  
    31   10   29 1  
    32   11   30 1  
    33   13   31 1  
    34   16   32 1  
    35   17   33 1  
    36   20   34 1  
    37   21   35 1  
    38   22   36 1  
    39   23   37 1  
@<TRIPOS>SUBSTRUCTURE
     1 MOL         1

