### 
### Created by X-TOOL on Mon Sep 10 21:13:31 2018
### 

@<TRIPOS>MOLECULE
5tuy_ligand
   58    61     1     0     0
SMALL
GAST_HUCK


@<TRIPOS>ATOM
      1 C4         34.1410  -15.7900   35.7860 C.ar      1 7L6         0.0078
      2 C5         35.5060  -16.0530   35.7030 C.ar      1 7L6         0.0267
      3 C6         35.9440  -17.2820   35.1980 C.ar      1 7L6         0.1243
      4 C8         31.0150  -19.9010   35.6340 C.3       1 7L6         0.0683
      5 N1         35.0510  -18.2030   34.7820 N.ar      1 7L6        -0.2471
      6 C3         32.7660  -21.2000   34.7560 C.3       1 7L6         0.0683
      7 N3         33.2810  -16.7470   35.3640 N.ar      1 7L6        -0.3043
      8 CAJ        33.1510  -20.1080   33.7690 C.3       1 7L6         0.0565
      9 NAR        32.7580  -18.8890   34.4540 N.pl3     1 7L6        -0.2779
     10 C2         33.7140  -17.9330   34.8660 C.ar      1 7L6         0.1560
     11 CAE        33.6850  -14.5590   36.2990 C.ar      1 7L6        -0.0244
     12 CAW        34.6040  -13.5960   36.7310 C.ar      1 7L6         0.1276
     13 OAT        34.2320  -12.3720   37.2380 O.3       1 7L6        -0.3173
     14 CAB        32.8640  -11.9930   37.3390 C.3       1 7L6         0.0599
     15 CAX        35.9600  -13.8550   36.6450 C.ar      1 7L6         0.1272
     16 OAU        36.8180  -12.8720   37.0610 O.3       1 7L6        -0.3230
     17 CAC        38.1800  -13.1570   37.3300 C.3       1 7L6         0.0572
     18 CAF        36.4180  -15.0740   36.1280 C.ar      1 7L6        -0.0226
     19 NAS        37.2800  -17.4550   35.1300 N.pl3     1 7L6        -0.2935
     20 CBB        38.1200  -18.6200   34.8770 C.3       1 7L6         0.0528
     21 CAL        38.5210  -18.6920   33.4190 C.3       1 7L6         0.0116
     22 CAM        37.5880  -19.9830   35.2740 C.3       1 7L6         0.0116
     23 CAO        38.7500  -20.9680   35.1750 C.3       1 7L6        -0.0299
     24 NBC        39.3670  -20.9830   33.8350 N.4       1 7L6         0.2332
     25 CAD        40.6040  -21.7760   33.8880 C.3       1 7L6        -0.0431
     26 CAN        39.7100  -19.6370   33.3370 C.3       1 7L6        -0.0299
     27 C1         31.3410  -18.7150   34.7350 C.3       1 7L6         0.0565
     28 O3         31.3680  -21.1290   34.9920 O.3       1 7L6        -0.3757
     29 H1         29.9369  -19.9039   35.8525 H         1 7L6         0.0580
     30 H2         31.5794  -19.8087   36.5736 H         1 7L6         0.0580
     31 H3         33.3087  -21.0525   35.7013 H         1 7L6         0.0580
     32 H4         33.0209  -22.1845   34.3366 H         1 7L6         0.0580
     33 H5         32.6042  -20.2219   32.8214 H         1 7L6         0.0549
     34 H6         34.2331  -20.1182   33.5715 H         1 7L6         0.0549
     35 H7         32.6215  -14.3580   36.3590 H         1 7L6         0.0461
     36 H8         32.7942  -10.9826   37.7681 H         1 7L6         0.0579
     37 H9         32.3333  -12.7046   37.9886 H         1 7L6         0.0579
     38 H10        32.4071  -11.9987   36.3384 H         1 7L6         0.0579
     39 H11        38.6911  -12.2366   37.6488 H         1 7L6         0.0573
     40 H12        38.6598  -13.5464   36.4200 H         1 7L6         0.0573
     41 H13        38.2462  -13.9091   38.1300 H         1 7L6         0.0573
     42 H14        37.4831  -15.2623   36.0557 H         1 7L6         0.0541
     43 H15        37.8151  -16.5893   35.2889 H         1 7L6         0.1902
     44 H16        39.0338  -18.4613   35.4684 H         1 7L6         0.0571
     45 H17        38.8048  -17.6937   33.0544 H         1 7L6         0.0340
     46 H18        37.6870  -19.0794   32.8154 H         1 7L6         0.0340
     47 H19        36.7791  -20.2849   34.5925 H         1 7L6         0.0340
     48 H20        37.2065  -19.9528   36.3053 H         1 7L6         0.0340
     49 H21        38.3768  -21.9774   35.4025 H         1 7L6         0.0815
     50 H22        39.5157  -20.6852   35.9124 H         1 7L6         0.0815
     51 H23        38.7204  -21.4101   33.1904 H         1 7L6         0.2030
     52 H24        41.0716  -21.7929   32.8925 H         1 7L6         0.0777
     53 H25        40.3674  -22.8041   34.1995 H         1 7L6         0.0777
     54 H26        41.2985  -21.3242   34.6116 H         1 7L6         0.0777
     55 H27        40.5323  -19.2303   33.9440 H         1 7L6         0.0815
     56 H28        40.0324  -19.7155   32.2883 H         1 7L6         0.0815
     57 H29        31.1562  -17.7635   35.2551 H         1 7L6         0.0549
     58 H30        30.7485  -18.7478   33.8088 H         1 7L6         0.0549
@<TRIPOS>BOND
     1    1    2 ar 
     2    7    1 ar 
     3    1   11 ar 
     4    3    2 ar 
     5    2   18 ar 
     6    5    3 ar 
     7    3   19 1  
     8    4   27 1  
     9   28    4 1  
    10   10    5 ar 
    11    8    6 1  
    12    6   28 1  
    13   10    7 ar 
    14    9    8 1  
    15    9   10 1  
    16    9   27 1  
    17   11   12 ar 
    18   12   13 1  
    19   12   15 ar 
    20   13   14 1  
    21   15   16 1  
    22   15   18 ar 
    23   16   17 1  
    24   19   20 1  
    25   20   21 1  
    26   20   22 1  
    27   21   26 1  
    28   22   23 1  
    29   23   24 1  
    30   24   25 1  
    31   24   26 1  
    32    4   29 1  
    33    4   30 1  
    34    6   31 1  
    35    6   32 1  
    36    8   33 1  
    37    8   34 1  
    38   11   35 1  
    39   14   36 1  
    40   14   37 1  
    41   14   38 1  
    42   17   39 1  
    43   17   40 1  
    44   17   41 1  
    45   18   42 1  
    46   19   43 1  
    47   20   44 1  
    48   21   45 1  
    49   21   46 1  
    50   22   47 1  
    51   22   48 1  
    52   23   49 1  
    53   23   50 1  
    54   24   51 1  
    55   25   52 1  
    56   25   53 1  
    57   25   54 1  
    58   26   55 1  
    59   26   56 1  
    60   27   57 1  
    61   27   58 1  
@<TRIPOS>SUBSTRUCTURE
     1 7L6         1

