### 
### Created by X-TOOL on Mon Sep 10 21:13:31 2018
### 

@<TRIPOS>MOLECULE
5tuz_ligand
   58    61     1     0     0
SMALL
GAST_HUCK


@<TRIPOS>ATOM
      1 C4        -21.0520  -14.6760    3.0700 C.ar      1 7L6         0.0078
      2 C5        -21.2470  -13.4470    2.4440 C.ar      1 7L6         0.0267
      3 C6        -22.0080  -12.4760    3.0950 C.ar      1 7L6         0.1243
      4 C8        -25.0170  -13.6660    7.1050 C.3       1 7L6         0.0683
      5 N1        -22.5400  -12.7520    4.2990 N.ar      1 7L6        -0.2471
      6 C3        -24.2400  -15.8870    7.0900 C.3       1 7L6         0.0683
      7 N3        -21.6070  -14.9080    4.2790 N.ar      1 7L6        -0.3043
      8 CAJ       -22.8070  -15.4700    6.7860 C.3       1 7L6         0.0565
      9 NAR       -22.9240  -14.1770    6.1330 N.pl3     1 7L6        -0.2779
     10 C2        -22.3430  -13.9510    4.8850 C.ar      1 7L6         0.1560
     11 CAE       -20.2980  -15.6720    2.4460 C.ar      1 7L6        -0.0244
     12 CAW       -19.7400  -15.4240    1.1940 C.ar      1 7L6         0.1276
     13 OAT       -18.9790  -16.3790    0.5720 O.3       1 7L6        -0.3173
     14 CAB       -18.8390  -17.6570    1.1940 C.3       1 7L6         0.0599
     15 CAX       -19.9320  -14.2080    0.5690 C.ar      1 7L6         0.1272
     16 OAU       -19.3540  -14.0000   -0.6580 O.3       1 7L6        -0.3230
     17 CAC       -19.8290  -12.9520   -1.4990 C.3       1 7L6         0.0572
     18 CAF       -20.6750  -13.2020    1.1960 C.ar      1 7L6        -0.0226
     19 NAS       -22.2300  -11.2610    2.5560 N.pl3     1 7L6        -0.2935
     20 CBB       -22.8960  -10.2390    3.3510 C.3       1 7L6         0.0528
     21 CAL       -24.3170  -10.0250    2.8400 C.3       1 7L6         0.0116
     22 CAM       -22.1160   -8.9330    3.2820 C.3       1 7L6         0.0116
     23 CAO       -22.8870   -7.7800    3.9210 C.3       1 7L6        -0.0299
     24 NBC       -24.1860   -7.6350    3.2480 N.4       1 7L6         0.2332
     25 CAD       -24.8940   -6.4620    3.7740 C.3       1 7L6        -0.0431
     26 CAN       -24.9880   -8.8310    3.5150 C.3       1 7L6        -0.0299
     27 C1        -23.6500  -13.0860    6.7680 C.3       1 7L6         0.0565
     28 O3        -24.8630  -14.8640    7.8670 O.3       1 7L6        -0.3757
     29 H1        -25.5564  -13.8932    6.1736 H         1 7L6         0.0580
     30 H2        -25.5900  -12.9323    7.6910 H         1 7L6         0.0580
     31 H3        -24.2382  -16.8307    7.6551 H         1 7L6         0.0580
     32 H4        -24.7925  -16.0242    6.1488 H         1 7L6         0.0580
     33 H5        -22.3254  -16.1989    6.1176 H         1 7L6         0.0549
     34 H6        -22.2240  -15.3831    7.7147 H         1 7L6         0.0549
     35 H7        -20.1483  -16.6296    2.9315 H         1 7L6         0.0461
     36 H8        -18.2021  -18.3008    0.5696 H         1 7L6         0.0579
     37 H9        -19.8302  -18.1205    1.3068 H         1 7L6         0.0579
     38 H10       -18.3768  -17.5341    2.1846 H         1 7L6         0.0579
     39 H11       -19.2483  -12.9398   -2.4331 H         1 7L6         0.0573
     40 H12       -19.7140  -11.9873   -0.9832 H         1 7L6         0.0573
     41 H13       -20.8913  -13.1200   -1.7298 H         1 7L6         0.0573
     42 H14       -20.8051  -12.2392    0.7153 H         1 7L6         0.0541
     43 H15       -21.9316  -11.0574    1.5914 H         1 7L6         0.1902
     44 H16       -22.9396  -10.5735    4.3980 H         1 7L6         0.0571
     45 H17       -24.9091  -10.9291    3.0450 H         1 7L6         0.0340
     46 H18       -24.2824   -9.8475    1.7550 H         1 7L6         0.0340
     47 H19       -21.9206   -8.6898    2.2272 H         1 7L6         0.0340
     48 H20       -21.1606   -9.0600    3.8121 H         1 7L6         0.0340
     49 H21       -22.3115   -6.8487    3.8142 H         1 7L6         0.0815
     50 H22       -23.0474   -7.9916    4.9885 H         1 7L6         0.0815
     51 H23       -24.0452   -7.5299    2.2554 H         1 7L6         0.2030
     52 H24       -25.8642   -6.3609    3.2655 H         1 7L6         0.0777
     53 H25       -24.2910   -5.5594    3.5961 H         1 7L6         0.0777
     54 H26       -25.0576   -6.5865    4.8546 H         1 7L6         0.0777
     55 H27       -25.0475   -9.0032    4.5998 H         1 7L6         0.0815
     56 H28       -26.0014   -8.6964    3.1089 H         1 7L6         0.0815
     57 H29       -23.1332  -12.7580    7.6819 H         1 7L6         0.0549
     58 H30       -23.7504  -12.2352    6.0780 H         1 7L6         0.0549
@<TRIPOS>BOND
     1    1    2 ar 
     2    7    1 ar 
     3    1   11 ar 
     4    3    2 ar 
     5    2   18 ar 
     6    5    3 ar 
     7    3   19 1  
     8    4   27 1  
     9   28    4 1  
    10   10    5 ar 
    11    8    6 1  
    12    6   28 1  
    13   10    7 ar 
    14    9    8 1  
    15    9   10 1  
    16    9   27 1  
    17   11   12 ar 
    18   12   13 1  
    19   12   15 ar 
    20   13   14 1  
    21   15   16 1  
    22   15   18 ar 
    23   16   17 1  
    24   19   20 1  
    25   20   21 1  
    26   20   22 1  
    27   21   26 1  
    28   22   23 1  
    29   23   24 1  
    30   24   25 1  
    31   24   26 1  
    32    4   29 1  
    33    4   30 1  
    34    6   31 1  
    35    6   32 1  
    36    8   33 1  
    37    8   34 1  
    38   11   35 1  
    39   14   36 1  
    40   14   37 1  
    41   14   38 1  
    42   17   39 1  
    43   17   40 1  
    44   17   41 1  
    45   18   42 1  
    46   19   43 1  
    47   20   44 1  
    48   21   45 1  
    49   21   46 1  
    50   22   47 1  
    51   22   48 1  
    52   23   49 1  
    53   23   50 1  
    54   24   51 1  
    55   25   52 1  
    56   25   53 1  
    57   25   54 1  
    58   26   55 1  
    59   26   56 1  
    60   27   57 1  
    61   27   58 1  
@<TRIPOS>SUBSTRUCTURE
     1 7L6         1

