### 
### Created by X-TOOL on Mon Sep 10 21:13:32 2018
### 

@<TRIPOS>MOLECULE
5tv3_ligand
   43    44     1     0     0
SMALL
GAST_HUCK


@<TRIPOS>ATOM
      1 CAV         1.7510  -42.8150   86.9350 C.3       1 7L3        -0.0835
      2 CAU         2.4630  -43.6660   85.8630 C.3       1 7L3        -0.0447
      3 CAW         1.9540  -45.1390   85.9510 C.3       1 7L3        -0.0835
      4 CAX         2.1640  -43.1130   84.4890 C.3       1 7L3        -0.0835
      5 CAR         4.0010  -43.6230   86.1060 C.ar      1 7L3        -0.0473
      6 CAS         4.6360  -44.6620   86.8360 C.ar      1 7L3        -0.0374
      7 CAT         6.0130  -44.6210   87.0530 C.ar      1 7L3        -0.0037
      8 CAQ         4.7650  -42.5490   85.6000 C.ar      1 7L3        -0.0374
      9 CAP         6.1470  -42.5110   85.8190 C.ar      1 7L3        -0.0037
     10 CAN         6.7760  -43.5540   86.5510 C.ar      1 7L3         0.1562
     11 SAL         8.5860  -43.5160   86.8440 S.o2      1 7L3         0.1476
     12 OAM         9.2300  -44.6740   86.1400 O.2       1 7L3        -0.1274
     13 OAO         8.8560  -43.6130   88.3310 O.2       1 7L3        -0.1274
     14 NAK         9.2110  -42.1150   86.2610 N.am      1 7L3        -0.0630
     15 CAB         9.5990  -41.0670   87.1730 C.2       1 7L3         0.3547
     16 SAA         9.6500  -41.1430   88.9220 S.3       1 7L3         0.1840
     17 CAE        10.1910  -39.5450   89.1920 C.2       1 7L3         0.3395
     18 SAF        10.5230  -38.7470   90.7290 S.o2      1 7L3         0.1317
     19 OAG        10.0510  -39.6350   91.8790 O.2       1 7L3        -0.1363
     20 OAH         9.8010  -37.4470   90.7810 O.2       1 7L3        -0.1363
     21 NAI        12.1770  -38.4730   90.8730 N.am      1 7L3        -0.2492
     22 NAD        10.3090  -39.0250   87.9270 N.2       1 7L3        -0.1196
     23 NAC         9.9980  -39.8220   86.8610 N.2       1 7L3        -0.1989
     24 CAJ        10.0920  -39.3610   85.5100 C.3       1 7L3         0.0354
     25 H1          0.6647  -42.8445   86.7646 H         1 7L3         0.0139
     26 H2          2.1040  -41.7751   86.8717 H         1 7L3         0.0139
     27 H3          1.9766  -43.2187   87.9331 H         1 7L3         0.0139
     28 H4          2.4602  -45.7480   85.1876 H         1 7L3         0.0139
     29 H5          0.8680  -45.1626   85.7780 H         1 7L3         0.0139
     30 H6          2.1752  -45.5444   86.9493 H         1 7L3         0.0139
     31 H7          2.5222  -42.0749   84.4257 H         1 7L3         0.0139
     32 H8          1.0786  -43.1377   84.3120 H         1 7L3         0.0139
     33 H9          2.6735  -43.7237   83.7291 H         1 7L3         0.0139
     34 H10         4.0504  -45.4873   87.2247 H         1 7L3         0.0851
     35 H11         6.4959  -45.4151   87.6109 H         1 7L3         0.0719
     36 H12         4.2819  -41.7547   85.0425 H         1 7L3         0.0851
     37 H13         6.7361  -41.6878   85.4311 H         1 7L3         0.0719
     38 H14         9.3226  -41.9881   85.2754 H         1 7L3         0.3283
     39 H15        12.5404  -38.0257   91.6902 H         1 7L3         0.1646
     40 H16        12.7965  -38.7574   90.1413 H         1 7L3         0.1646
     41 H17        10.4377  -38.3168   85.5021 H         1 7L3         0.0458
     42 H18         9.1035  -39.4235   85.0316 H         1 7L3         0.0458
     43 H19        10.8071  -39.9881   84.9575 H         1 7L3         0.0458
@<TRIPOS>BOND
     1    1    2 1  
     2    2    3 1  
     3    2    4 1  
     4    2    5 1  
     5    5    6 ar 
     6    5    8 ar 
     7    6    7 ar 
     8    7   10 ar 
     9    8    9 ar 
    10    9   10 ar 
    11   10   11 1  
    12   11   12 2  
    13   11   13 2  
    14   11   14 am 
    15   14   15 1  
    16   15   16 1  
    17   15   23 2  
    18   16   17 1  
    19   17   18 1  
    20   17   22 2  
    21   18   19 2  
    22   18   20 2  
    23   18   21 am 
    24   22   23 1  
    25   23   24 1  
    26    1   25 1  
    27    1   26 1  
    28    1   27 1  
    29    3   28 1  
    30    3   29 1  
    31    3   30 1  
    32    4   31 1  
    33    4   32 1  
    34    4   33 1  
    35    6   34 1  
    36    7   35 1  
    37    8   36 1  
    38    9   37 1  
    39   14   38 1  
    40   21   39 1  
    41   21   40 1  
    42   24   41 1  
    43   24   42 1  
    44   24   43 1  
@<TRIPOS>SUBSTRUCTURE
     1 7L3         1

