### 
### Created by X-TOOL on Mon Sep 10 21:13:33 2018
### 

@<TRIPOS>MOLECULE
5tvn_ligand
   50    53     1     0     0
SMALL
GAST_HUCK


@<TRIPOS>ATOM
      1 N1        -25.9760  -12.8170    6.9610 N.pl3     1 7LD        -0.2902
      2 N3        -21.8640  -20.0230   10.8660 N.am      1 7LD        -0.2717
      3 C4        -26.2210  -12.9890    9.3950 C.ar      1 7LD        -0.0476
      4 C5        -25.8660  -13.7760   10.4900 C.ar      1 7LD        -0.0797
      5 C6        -24.6890  -15.2200    9.0070 C.ar      1 7LD        -0.0383
      6 C7        -24.7790  -14.6110    6.7450 C.2       1 7LD        -0.0405
      7 C8        -25.3380  -13.5970    6.0820 C.2       1 7LD         0.0161
      8 C10       -23.3290  -17.0780    9.7390 C.2       1 7LD        -0.0523
      9 C13       -23.0070  -18.8370    8.1620 C.3       1 7LD        -0.0031
     10 C15       -23.9880  -15.6910    6.3520 C.3       1 7LD         0.0139
     11 C17       -20.5340  -20.0170   10.2380 C.3       1 7LD         0.0312
     12 C20       -22.7720  -22.2560   11.3810 C.3       1 7LD        -0.0446
     13 N2        -22.9350  -17.8090    7.1160 N.4       1 7LD         0.2485
     14 C12       -23.2260  -18.4270    5.8140 C.3       1 7LD        -0.0413
     15 C11       -23.9920  -16.8260    7.3920 C.3       1 7LD         0.0081
     16 C3        -25.0800  -14.4300    8.0190 C.ar      1 7LD        -0.0180
     17 C1        -25.8120  -13.3390    8.1770 C.ar      1 7LD         0.0572
     18 C2        -25.0860  -14.9140   10.3020 C.ar      1 7LD        -0.0762
     19 C9        -23.9390  -16.3500    8.7140 C.2       1 7LD        -0.0048
     20 C14       -22.5970  -18.2470    9.5090 C.3       1 7LD         0.1099
     21 C16       -22.8570  -19.1710   10.5330 C.2       1 7LD         0.1967
     22 O1        -23.9590  -19.1900   11.0810 O.2       1 7LD        -0.3933
     23 C19       -22.0400  -21.0270   11.9280 C.3       1 7LD         0.0312
     24 C18       -19.4950  -19.6690   11.3030 C.3       1 7LD        -0.0446
     25 H1        -26.5031  -11.9608    6.7374 H         1 7LD         0.2215
     26 H2        -26.8249  -12.0996    9.5341 H         1 7LD         0.0514
     27 H3        -26.1966  -13.5024   11.4855 H         1 7LD         0.0524
     28 H4        -25.2838  -13.4324    5.0069 H         1 7LD         0.0788
     29 H5        -23.4281  -16.7190   10.7623 H         1 7LD         0.0551
     30 H6        -22.3287  -19.6643    7.9060 H         1 7LD         0.0868
     31 H7        -24.0377  -19.2154    8.2295 H         1 7LD         0.0868
     32 H8        -22.9543  -15.3410    6.2142 H         1 7LD         0.0423
     33 H9        -24.3726  -16.0830    5.3989 H         1 7LD         0.0423
     34 H10       -20.5068  -19.2665    9.4343 H         1 7LD         0.0519
     35 H11       -20.3172  -21.0108    9.8192 H         1 7LD         0.0519
     36 H12       -22.8962  -22.9967   12.1847 H         1 7LD         0.0249
     37 H13       -22.1851  -22.6982   10.5624 H         1 7LD         0.0249
     38 H14       -23.7605  -21.9560   11.0030 H         1 7LD         0.0249
     39 H15       -22.0272  -17.3710    7.1074 H         1 7LD         0.2049
     40 H16       -23.1738  -17.6621    5.0252 H         1 7LD         0.0778
     41 H17       -24.2347  -18.8653    5.8334 H         1 7LD         0.0778
     42 H18       -22.4872  -19.2158    5.6092 H         1 7LD         0.0778
     43 H19       -24.9526  -17.3512    7.2849 H         1 7LD         0.0989
     44 H20       -24.7982  -15.5402   11.1387 H         1 7LD         0.0483
     45 H21       -21.5227  -18.0113    9.4940 H         1 7LD         0.0737
     46 H22       -22.6286  -20.5890   12.7476 H         1 7LD         0.0519
     47 H23       -21.0532  -21.3312   12.3070 H         1 7LD         0.0519
     48 H24       -18.4932  -19.6603   10.8488 H         1 7LD         0.0249
     49 H25       -19.5271  -20.4202   12.1059 H         1 7LD         0.0249
     50 H26       -19.7167  -18.6759   11.7209 H         1 7LD         0.0249
@<TRIPOS>BOND
     1    7    1 1  
     2   17    1 1  
     3    2   11 1  
     4   21    2 am 
     5    2   23 1  
     6    4    3 ar 
     7   17    3 ar 
     8   18    4 ar 
     9    5   16 ar 
    10    5   18 ar 
    11   19    5 1  
    12    6    7 2  
    13   10    6 1  
    14   16    6 1  
    15    8   19 2  
    16   20    8 1  
    17    9   13 1  
    18   20    9 1  
    19   15   10 1  
    20   11   24 1  
    21   23   12 1  
    22   13   14 1  
    23   13   15 1  
    24   19   15 1  
    25   16   17 ar 
    26   20   21 1  
    27   21   22 2  
    28    1   25 1  
    29    3   26 1  
    30    4   27 1  
    31    7   28 1  
    32    8   29 1  
    33    9   30 1  
    34    9   31 1  
    35   10   32 1  
    36   10   33 1  
    37   11   34 1  
    38   11   35 1  
    39   12   36 1  
    40   12   37 1  
    41   12   38 1  
    42   13   39 1  
    43   14   40 1  
    44   14   41 1  
    45   14   42 1  
    46   15   43 1  
    47   18   44 1  
    48   20   45 1  
    49   23   46 1  
    50   23   47 1  
    51   24   48 1  
    52   24   49 1  
    53   24   50 1  
@<TRIPOS>SUBSTRUCTURE
     1 7LD         1

