### 
### Created by X-TOOL on Mon Sep 10 21:13:34 2018
### 

@<TRIPOS>MOLECULE
5tw3_ligand
   47    50     1     0     0
SMALL
GAST_HUCK


@<TRIPOS>ATOM
      1 CAH       466.9810  -15.8280  124.5520 C.ar      1 7N1         0.1288
      2 CAI       467.6110  -15.9470  125.8190 C.ar      1 7N1         0.0241
      3 CAJ       467.5310  -14.8980  126.7250 C.ar      1 7N1        -0.0153
      4 CAK       466.8240  -13.7160  126.3760 C.ar      1 7N1        -0.0312
      5 CAL       466.2080  -13.6110  125.1230 C.ar      1 7N1         0.1243
      6 CAM       466.2830  -14.6620  124.2100 C.ar      1 7N1         0.0075
      7 CAY       468.3300  -17.1590  126.1650 C.ar      1 7N1        -0.0485
      8 CAZ       468.9280  -17.2640  127.3850 C.ar      1 7N1        -0.0337
      9 CBA       468.8580  -16.1840  128.3310 C.ar      1 7N1         0.0916
     10 CBB       468.1720  -15.0170  128.0110 C.ar      1 7N1        -0.0231
     11 CBC       469.5380  -16.3310  129.6790 C.1       1 7N1         0.0986
     12 NBD       470.0680  -16.4780  130.6990 N.1       1 7N1        -0.3293
     13 C0P       464.6520  -19.7580  124.6230 C.2       1 7N1         0.0564
     14 C00       465.9100  -16.8060  120.1190 C.ar      1 7N1        -0.0067
     15 C0D       463.8080  -18.3260  121.6550 C.3       1 7N1         0.0958
     16 C0E       463.1530  -19.1690  122.7800 C.3       1 7N1         0.0934
     17 C0K       464.3710  -21.3930  122.8380 C.2       1 7N1         0.3306
     18 C0N       465.8440  -21.8860  124.7230 C.2       1 7N1         0.1822
     19 C0O       465.5120  -20.5730  125.2880 C.2       1 7N1         0.0061
     20 N0H       464.0720  -20.1640  123.3890 N.am      1 7N1        -0.1868
     21 N0M       465.2350  -22.1710  123.5420 N.am      1 7N1        -0.1866
     22 O0A       467.0720  -16.9300  123.6210 O.3       1 7N1        -0.2588
     23 O0B       464.9190  -17.6570  122.2480 O.3       1 7N1        -0.3187
     24 O0Q       463.9040  -21.7990  121.7770 O.2       1 7N1        -0.3815
     25 O0S       466.6120  -22.6830  125.2570 O.2       1 7N1        -0.4124
     26 C01       467.0160  -16.1850  119.5020 C.ar      1 7N1         0.1129
     27 C02       468.1460  -15.8090  120.2620 C.ar      1 7N1        -0.0469
     28 C03       468.1740  -16.0560  121.6510 C.ar      1 7N1        -0.0375
     29 C04       467.0620  -16.6820  122.2740 C.ar      1 7N1         0.1435
     30 C05       465.9260  -17.0590  121.5200 C.ar      1 7N1         0.1240
     31 F01       465.5350  -12.4940  124.7850 F         1 7N1        -0.1859
     32 F02       467.0060  -16.0150  118.1750 F         1 7N1        -0.1949
     33 H1        466.7614  -12.8946  127.0806 H         1 7N1         0.0491
     34 H2        465.8041  -14.5777  123.2412 H         1 7N1         0.0532
     35 H3        468.3911  -17.9770  125.4564 H         1 7N1         0.0633
     36 H4        469.4618  -18.1710  127.6447 H         1 7N1         0.0643
     37 H5        468.1197  -14.2022  128.7240 H         1 7N1         0.0729
     38 H6        464.4038  -18.7828  125.0394 H         1 7N1         0.1177
     39 H7        465.0480  -17.0906  119.5266 H         1 7N1         0.0499
     40 H8        463.0887  -17.5930  121.2610 H         1 7N1         0.0637
     41 H9        464.1492  -18.9801  120.8390 H         1 7N1         0.0637
     42 H10       462.2914  -19.7054  122.3559 H         1 7N1         0.0643
     43 H11       462.8071  -18.4860  123.5699 H         1 7N1         0.0643
     44 H12       465.9512  -20.2546  126.2323 H         1 7N1         0.0258
     45 H13       465.4487  -23.0622  123.1420 H         1 7N1         0.2259
     46 H14       468.9905  -15.3313  119.7787 H         1 7N1         0.0486
     47 H15       469.0387  -15.7697  122.2387 H         1 7N1         0.0513
@<TRIPOS>BOND
     1    1    2 ar 
     2    1    6 ar 
     3   22    1 1  
     4    2    3 ar 
     5    2    7 ar 
     6    3    4 ar 
     7    3   10 ar 
     8    5    4 ar 
     9    6    5 ar 
    10    5   31 1  
    11    7    8 ar 
    12    8    9 ar 
    13   10    9 ar 
    14    9   11 1  
    15   11   12 3  
    16   13   19 2  
    17   20   13 1  
    18   26   14 ar 
    19   14   30 ar 
    20   15   16 1  
    21   23   15 1  
    22   16   20 1  
    23   20   17 am 
    24   17   21 am 
    25   17   24 2  
    26   19   18 1  
    27   21   18 am 
    28   18   25 2  
    29   29   22 1  
    30   30   23 1  
    31   27   26 ar 
    32   26   32 1  
    33   28   27 ar 
    34   28   29 ar 
    35   29   30 ar 
    36    4   33 1  
    37    6   34 1  
    38    7   35 1  
    39    8   36 1  
    40   10   37 1  
    41   13   38 1  
    42   14   39 1  
    43   15   40 1  
    44   15   41 1  
    45   16   42 1  
    46   16   43 1  
    47   19   44 1  
    48   21   45 1  
    49   27   46 1  
    50   28   47 1  
@<TRIPOS>SUBSTRUCTURE
     1 7N1         1

