### 
### Created by X-TOOL on Mon Sep 10 21:13:32 2018
### 

@<TRIPOS>MOLECULE
5twj_ligand
   50    52     1     0     0
SMALL
GAST_HUCK


@<TRIPOS>ATOM
      1 N          11.8500    0.8280   43.7140 N.4       1 SAM         0.2328
      2 CA         11.1460    0.9920   44.9840 C.3       1 SAM         0.0327
      3 C          10.7520   -0.3540   45.6050 C.2       1 SAM         0.0846
      4 O          10.7390   -0.5110   46.8280 O.co2     1 SAM        -0.5643
      5 OXT        10.4420   -1.3230   44.9120 O.co2     1 SAM        -0.5643
      6 CB          9.9320    1.9200   44.8480 C.3       1 SAM         0.0473
      7 CG         10.2230    3.4000   44.5970 C.3       1 SAM         0.1163
      8 SD          8.7050    4.3830   44.7210 S.3       1 SAM        -0.0103
      9 CE          8.7910    5.4680   43.2710 C.3       1 SAM         0.0995
     10 C5'         8.9900    5.5480   46.0890 C.3       1 SAM         0.1381
     11 C4'         8.3020    5.2070   47.4260 C.3       1 SAM         0.1350
     12 O4'         6.8820    5.3390   47.3850 O.3       1 SAM        -0.3344
     13 C3'         8.5250    3.7800   47.8800 C.3       1 SAM         0.1168
     14 O3'         9.7440    3.6330   48.5810 O.3       1 SAM        -0.3863
     15 C2'         7.3110    3.4890   48.7450 C.3       1 SAM         0.1386
     16 O2'         7.4950    3.9910   50.0660 O.3       1 SAM        -0.3836
     17 C1'         6.2180    4.3320   48.1270 C.3       1 SAM         0.2011
     18 N9          5.3080    3.5310   47.2640 N.pl3     1 SAM        -0.1919
     19 C8          5.2710    3.5090   45.8680 C.2       1 SAM         0.1123
     20 N7          4.3050    2.6510   45.4630 N.2       1 SAM        -0.2958
     21 C5          3.7100    2.1290   46.5820 C.ar      1 SAM         0.1045
     22 C6          2.6770    1.2180   46.7390 C.ar      1 SAM         0.1298
     23 N6          2.0800    0.6990   45.6630 N.pl3     1 SAM        -0.3152
     24 N1          2.2660    0.8530   48.0070 N.ar      1 SAM        -0.2698
     25 C2          2.8920    1.4020   49.1240 C.ar      1 SAM         0.0533
     26 N3          3.9240    2.3090   48.9740 N.ar      1 SAM        -0.2714
     27 C4          4.3260    2.6660   47.7150 C.ar      1 SAM         0.1613
     28 H1         12.0890    1.7342   43.3429 H         1 SAM         0.2010
     29 H2         11.2552    0.3434   43.0602 H         1 SAM         0.2010
     30 H3         12.6914    0.2933   43.8628 H         1 SAM         0.2010
     31 H4         11.8473    1.4758   45.6798 H         1 SAM         0.1026
     32 H5          9.3515    1.8479   45.7795 H         1 SAM         0.0385
     33 H6          9.3243    1.5528   44.0078 H         1 SAM         0.0385
     34 H7         10.6482    3.5184   43.5895 H         1 SAM         0.0843
     35 H8         10.9464    3.7574   45.3446 H         1 SAM         0.0843
     36 H9          7.9043    6.1186   43.2468 H         1 SAM         0.0803
     37 H10         8.8223    4.8568   42.3570 H         1 SAM         0.0803
     38 H11         9.6984    6.0870   43.3295 H         1 SAM         0.0803
     39 H12         8.6300    6.5368   45.7687 H         1 SAM         0.0867
     40 H13        10.0739    5.5936   46.2711 H         1 SAM         0.0867
     41 H14         8.7061    5.8930   48.1850 H         1 SAM         0.0671
     42 H15         8.5401    3.1036   47.0127 H         1 SAM         0.0649
     43 H16         9.8471    2.7272   48.8482 H         1 SAM         0.2100
     44 H17         7.0664    2.4166   48.7558 H         1 SAM         0.0676
     45 H18         6.7246    3.7976   50.5872 H         1 SAM         0.2101
     46 H19         5.6187    4.7958   48.9243 H         1 SAM         0.0996
     47 H20         5.9162    4.0894   45.2101 H         1 SAM         0.1349
     48 H21         1.3122    0.0219   45.7764 H         1 SAM         0.1820
     49 H22         2.3874    0.9758   44.7197 H         1 SAM         0.1820
     50 H23         2.5673    1.1157   50.1178 H         1 SAM         0.0996
@<TRIPOS>BOND
     1    1    2 1  
     2    2    3 1  
     3    2    6 1  
     4    3    4 ar 
     5    3    5 ar 
     6    6    7 1  
     7    7    8 1  
     8    8    9 1  
     9    8   10 1  
    10   10   11 1  
    11   11   12 1  
    12   11   13 1  
    13   12   17 1  
    14   13   14 1  
    15   13   15 1  
    16   15   16 1  
    17   15   17 1  
    18   17   18 1  
    19   18   19 1  
    20   18   27 1  
    21   19   20 2  
    22   20   21 1  
    23   21   22 ar 
    24   21   27 ar 
    25   22   23 1  
    26   22   24 ar 
    27   24   25 ar 
    28   25   26 ar 
    29   26   27 ar 
    30    1   28 1  
    31    1   29 1  
    32    1   30 1  
    33    2   31 1  
    34    6   32 1  
    35    6   33 1  
    36    7   34 1  
    37    7   35 1  
    38    9   36 1  
    39    9   37 1  
    40    9   38 1  
    41   10   39 1  
    42   10   40 1  
    43   11   41 1  
    44   13   42 1  
    45   14   43 1  
    46   15   44 1  
    47   16   45 1  
    48   17   46 1  
    49   19   47 1  
    50   23   48 1  
    51   23   49 1  
    52   25   50 1  
@<TRIPOS>SUBSTRUCTURE
     1 SAM         1

