### 
### Created by X-TOOL on Wed Jan  1 15:39:34 2020
### 

@<TRIPOS>MOLECULE
5twl_ligand
   63    67     1     0     0
SMALL
GAST_HUCK


@<TRIPOS>ATOM
      1 N          -3.7420   14.0770   -9.0260 N.4       1 H91         0.2311
      2 C          -3.5140   15.5390   -8.8580 C.3       1 H91        -0.0433
      3 O          -3.3460   14.0750   -2.1530 O.2       1 H91        -0.3869
      4 C1         -3.7930   13.7480  -10.4780 C.3       1 H91        -0.0433
      5 C10        -1.5560   11.4740   -0.4480 C.3       1 H91         0.0644
      6 C11        -2.4730   10.3970   -0.9390 C.ar      1 H91         0.0265
      7 C12        -2.5370    9.1900   -0.1950 C.ar      1 H91        -0.0096
      8 C13        -4.0670    8.2990   -1.6660 C.ar      1 H91         0.0228
      9 C14        -4.8640    7.1570   -1.9890 C.ar      1 H91        -0.0499
     10 C15        -5.6670    7.1540   -3.0930 C.ar      1 H91        -0.0567
     11 C16        -5.6960    8.3030   -3.9100 C.ar      1 H91        -0.0245
     12 C17        -4.9420    9.3960   -3.6070 C.ar      1 H91        -0.0457
     13 C18        -4.0890    9.4560   -2.4830 C.ar      1 H91         0.0280
     14 C19        -3.2370   10.5670   -2.0920 C.ar      1 H91         0.1080
     15 C2         -2.6580   13.2880   -8.3630 C.3       1 H91        -0.0295
     16 C20        -6.5180    8.3640   -5.1130 C.ar      1 H91        -0.0284
     17 C21        -6.8910    9.6340   -5.5630 C.ar      1 H91        -0.0482
     18 C22        -7.6540    9.7560   -6.7050 C.ar      1 H91         0.0697
     19 C23        -8.0660    8.6260   -7.4180 C.ar      1 H91         0.1176
     20 C24        -7.6760    7.3710   -6.9470 C.ar      1 H91         0.0697
     21 C25        -6.9070    7.2240   -5.8020 C.ar      1 H91        -0.0482
     22 C3         -2.8090   13.3870   -6.8240 C.3       1 H91        -0.0006
     23 C4         -4.1450   12.8050   -6.3530 C.3       1 H91        -0.0427
     24 C5         -4.2370   12.8260   -4.8150 C.3       1 H91        -0.0231
     25 C6         -3.0370   12.0320   -4.2370 C.3       1 H91         0.0720
     26 C7         -1.7250   12.7060   -4.6770 C.3       1 H91        -0.0231
     27 C8         -1.6400   12.6150   -6.1990 C.3       1 H91        -0.0427
     28 C9         -2.8810   12.9650   -1.9060 C.2       1 H91         0.2989
     29 N1         -3.0700   11.8180   -2.7530 N.am      1 H91        -0.1902
     30 N2         -2.1250   12.7810   -0.7570 N.am      1 H91        -0.2575
     31 N3         -3.2950    8.1610   -0.5220 N.ar      1 H91        -0.3306
     32 O1         -8.8210    8.8430   -8.5100 O.3       1 H91        -0.3304
     33 CL         -8.0850   11.3070   -7.2470 Cl        1 H91        -0.0784
     34 CL1        -8.1590    5.9720   -7.8190 Cl        1 H91        -0.0784
     35 H1         -4.6241   13.8344   -8.6027 H         1 H91         0.2028
     36 H2         -4.3232   16.0956   -9.3535 H         1 H91         0.0777
     37 H3         -2.5496   15.8141   -9.3100 H         1 H91         0.0777
     38 H4         -3.5009   15.7873   -7.7865 H         1 H91         0.0777
     39 H5         -3.9614   12.6682  -10.6036 H         1 H91         0.0777
     40 H6         -2.8402   14.0279  -10.9511 H         1 H91         0.0777
     41 H7         -4.6151   14.3048  -10.9515 H         1 H91         0.0777
     42 H8         -0.5779   11.3749   -0.9414 H         1 H91         0.0647
     43 H9         -1.4290   11.3784    0.6404 H         1 H91         0.0647
     44 H10        -1.9256    9.1087    0.6965 H         1 H91         0.0737
     45 H11        -4.8303    6.2825   -1.3493 H         1 H91         0.0600
     46 H12        -6.2697    6.2865   -3.3365 H         1 H91         0.0624
     47 H13        -4.9993   10.2601   -4.2589 H         1 H91         0.0628
     48 H14        -1.6783   13.6897   -8.6611 H         1 H91         0.0817
     49 H15        -2.7315   12.2345   -8.6709 H         1 H91         0.0817
     50 H16        -6.5820   10.5181   -5.0171 H         1 H91         0.0603
     51 H17        -6.6162    6.2398   -5.4529 H         1 H91         0.0603
     52 H18        -2.7570   14.4429   -6.5203 H         1 H91         0.0352
     53 H19        -4.2307   11.7666   -6.7056 H         1 H91         0.0271
     54 H20        -4.9673   13.4036   -6.7720 H         1 H91         0.0271
     55 H21        -5.1797   12.3590   -4.4937 H         1 H91         0.0293
     56 H22        -4.2014   13.8650   -4.4557 H         1 H91         0.0293
     57 H23        -3.0666   11.0325   -4.6954 H         1 H91         0.0635
     58 H24        -0.8676   12.1877   -4.2229 H         1 H91         0.0293
     59 H25        -1.7233   13.7607   -4.3647 H         1 H91         0.0293
     60 H26        -0.6891   13.0506   -6.5397 H         1 H91         0.0271
     61 H27        -1.6912   11.5601   -6.5065 H         1 H91         0.0271
     62 H28        -1.9692   13.5497   -0.1366 H         1 H91         0.1877
     63 H29        -9.6630    8.4167   -8.4013 H         1 H91         0.2497
@<TRIPOS>BOND
     1    1    2 1  
     2    1    4 1  
     3   15    1 1  
     4   28    3 2  
     5    6    5 1  
     6    5   30 1  
     7    6    7 ar 
     8   14    6 ar 
     9    7   31 ar 
    10    8    9 ar 
    11   13    8 ar 
    12    8   31 ar 
    13    9   10 ar 
    14   11   10 ar 
    15   12   11 ar 
    16   11   16 1  
    17   13   12 ar 
    18   14   13 ar 
    19   29   14 1  
    20   22   15 1  
    21   16   17 ar 
    22   16   21 ar 
    23   17   18 ar 
    24   18   19 ar 
    25   18   33 1  
    26   20   19 ar 
    27   19   32 1  
    28   21   20 ar 
    29   20   34 1  
    30   23   22 1  
    31   27   22 1  
    32   24   23 1  
    33   25   24 1  
    34   25   26 1  
    35   29   25 1  
    36   26   27 1  
    37   28   29 am 
    38   28   30 am 
    39    1   35 1  
    40    2   36 1  
    41    2   37 1  
    42    2   38 1  
    43    4   39 1  
    44    4   40 1  
    45    4   41 1  
    46    5   42 1  
    47    5   43 1  
    48    7   44 1  
    49    9   45 1  
    50   10   46 1  
    51   12   47 1  
    52   15   48 1  
    53   15   49 1  
    54   17   50 1  
    55   21   51 1  
    56   22   52 1  
    57   23   53 1  
    58   23   54 1  
    59   24   55 1  
    60   24   56 1  
    61   25   57 1  
    62   26   58 1  
    63   26   59 1  
    64   27   60 1  
    65   27   61 1  
    66   30   62 1  
    67   32   63 1  
@<TRIPOS>SUBSTRUCTURE
     1 H91         1

