### 
### Created by X-TOOL on Mon Sep 10 21:13:33 2018
### 

@<TRIPOS>MOLECULE
5two_ligand
   46    49     1     0     0
SMALL
GAST_HUCK


@<TRIPOS>ATOM
      1 C4        -21.3150  -20.4530   14.3660 C.3       1 7MV         0.0638
      2 C5        -21.4820  -23.7640   12.4660 C.ar      1 7MV        -0.0685
      3 C6        -20.1820  -24.2340   12.6410 C.ar      1 7MV        -0.0687
      4 C1        -20.9290  -21.7840   13.7490 C.ar      1 7MV        -0.0211
      5 C3        -21.8590  -22.5490   13.0110 C.ar      1 7MV        -0.0584
      6 C2        -19.6310  -22.2670   13.9260 C.ar      1 7MV        -0.0584
      7 C19       -27.7170  -17.9580    8.5290 C.3       1 7MV         0.0854
      8 C18       -25.6870  -16.6820    8.6830 C.2       1 7MV         0.0275
      9 C20       -27.5950  -19.1520    7.6430 C.ar      1 7MV        -0.0156
     10 C23       -26.3690  -20.4120    5.9920 C.ar      1 7MV         0.1401
     11 C21       -26.4680  -19.3040    6.8100 C.ar      1 7MV        -0.0237
     12 C15       -27.3960  -21.3850    5.9810 C.ar      1 7MV         0.0659
     13 C22       -28.6260  -20.1310    7.6230 C.ar      1 7MV        -0.0611
     14 C17       -24.5410  -16.6330    9.4930 C.2       1 7MV        -0.0617
     15 C16       -26.4030  -19.3510   11.0250 C.ar      1 7MV        -0.0381
     16 C7        -19.2520  -23.4760   13.3810 C.ar      1 7MV        -0.0685
     17 C8        -28.5280  -21.2330    6.8060 C.ar      1 7MV        -0.0563
     18 C9        -23.5350  -19.7070   13.5820 C.2       1 7MV         0.1982
     19 C10       -24.4060  -19.2010   12.3720 C.ar      1 7MV         0.0330
     20 C11       -25.6350  -19.8020   12.0940 C.ar      1 7MV        -0.0570
     21 C12       -23.9300  -18.1260   11.5750 C.ar      1 7MV        -0.0540
     22 C13       -24.7110  -17.6720   10.4870 C.ar      1 7MV        -0.0210
     23 C14       -25.9240  -18.2620   10.2080 C.ar      1 7MV         0.0722
     24 CL        -27.2230  -22.8040    4.8990 Cl        1 7MV        -0.0785
     25 F         -25.3320  -20.5760    5.2140 F         1 7MV        -0.1844
     26 O         -24.0970  -20.1580   14.5560 O.2       1 7MV        -0.3889
     27 N1        -22.1020  -19.6430   13.5170 N.am      1 7MV        -0.2763
     28 N2        -26.4760  -17.6370    9.1150 N.pl3     1 7MV        -0.2522
     29 H1        -20.3943  -19.9047   14.6143 H         1 7MV         0.0683
     30 H2        -21.8848  -20.6485   15.2863 H         1 7MV         0.0683
     31 H3        -22.1986  -24.3505   11.9025 H         1 7MV         0.0599
     32 H4        -19.8858  -25.1826   12.2081 H         1 7MV         0.0559
     33 H5        -22.8700  -22.1838   12.8712 H         1 7MV         0.0557
     34 H6        -18.9149  -21.6868   14.4967 H         1 7MV         0.0557
     35 H7        -28.4459  -18.1728    9.3244 H         1 7MV         0.0768
     36 H8        -28.0660  -17.1017    7.9332 H         1 7MV         0.0768
     37 H9        -25.8884  -16.0318    7.8329 H         1 7MV         0.0939
     38 H10       -25.6838  -18.5556    6.8116 H         1 7MV         0.0543
     39 H11       -29.4966  -20.0077    8.2570 H         1 7MV         0.0524
     40 H12       -23.6967  -15.9524    9.3938 H         1 7MV         0.0291
     41 H13       -27.3576  -19.8159   10.8066 H         1 7MV         0.0555
     42 H14       -18.2415  -23.8424   13.5214 H         1 7MV         0.0599
     43 H15       -29.3150  -21.9783    6.7969 H         1 7MV         0.0596
     44 H16       -25.9907  -20.6195   12.7106 H         1 7MV         0.0573
     45 H17       -22.9779  -17.6584   11.7984 H         1 7MV         0.0601
     46 H18       -21.6596  -19.0232   12.8688 H         1 7MV         0.1869
@<TRIPOS>BOND
     1    1    4 1  
     2   27    1 1  
     3    2    3 ar 
     4    5    2 ar 
     5   16    3 ar 
     6    4    5 ar 
     7    4    6 ar 
     8    6   16 ar 
     9    7    9 1  
    10   28    7 1  
    11   14    8 2  
    12    8   28 1  
    13    9   11 ar 
    14    9   13 ar 
    15   11   10 ar 
    16   10   12 ar 
    17   10   25 1  
    18   17   12 ar 
    19   12   24 1  
    20   13   17 ar 
    21   22   14 1  
    22   20   15 ar 
    23   15   23 ar 
    24   19   18 1  
    25   18   26 2  
    26   18   27 am 
    27   19   20 ar 
    28   21   19 ar 
    29   21   22 ar 
    30   22   23 ar 
    31   23   28 1  
    32    1   29 1  
    33    1   30 1  
    34    2   31 1  
    35    3   32 1  
    36    5   33 1  
    37    6   34 1  
    38    7   35 1  
    39    7   36 1  
    40    8   37 1  
    41   11   38 1  
    42   13   39 1  
    43   14   40 1  
    44   15   41 1  
    45   16   42 1  
    46   17   43 1  
    47   20   44 1  
    48   21   45 1  
    49   27   46 1  
@<TRIPOS>SUBSTRUCTURE
     1 7MV         1

