### 
### Created by X-TOOL on Mon Sep 10 21:13:34 2018
### 

@<TRIPOS>MOLECULE
5twx_ligand
  108   114     1     0     0
SMALL
GAST_HUCK


@<TRIPOS>ATOM
      1 C1        -56.7440   -4.7800   -7.9210 C.2       1 7P7         0.0318
      2 C2        -56.4430   -4.9740   -6.4960 C.2       1 7P7         0.0346
      3 C3        -58.7160   -3.9940   -6.9410 C.2       1 7P7         0.0694
      4 C4        -60.0640   -3.4120   -6.6930 C.cat     1 7P7         0.2405
      5 C5        -61.6750   -1.7460   -7.6130 C.3       1 7P7         0.1004
      6 C6        -61.4010   -0.2480   -7.7320 C.3       1 7P7         0.0109
      7 S         -57.7450   -4.4640   -5.5600 S.3       1 7P7        -0.0436
      8 O1        -62.2170    0.1440  -10.5720 O.2       1 7P7        -0.1743
      9 O2        -64.3890    0.7500   -9.9150 O.2       1 7P7        -0.1743
     10 N1        -60.8540   -3.8630   -5.8230 N.pl3     1 7P7        -0.2729
     11 C7        -62.6160    0.5910   -8.1110 C.3       1 7P7         0.0700
     12 C8        -63.5830   -1.5780   -9.3000 C.3       1 7P7         0.0700
     13 N2        -53.4210   -7.3770    2.1430 N.am      1 7P7        -0.2848
     14 N         -60.3790   -2.3700   -7.4560 N.pl3     1 7P7        -0.2575
     15 C         -55.6780   -5.1890   -8.8680 C.2       1 7P7         0.2106
     16 O         -55.8590   -5.0560  -10.0970 O.2       1 7P7        -0.4086
     17 C10       -58.0540   -4.2140   -8.1560 C.2       1 7P7        -0.0682
     18 C11       -55.1330   -5.5460   -6.0800 C.2       1 7P7         0.0109
     19 C12       -54.7800   -5.7730   -4.6540 C.ar      1 7P7        -0.0553
     20 C13       -54.9960   -4.7720   -3.7200 C.ar      1 7P7        -0.0440
     21 C14       -54.6720   -4.9860   -2.3920 C.ar      1 7P7         0.1135
     22 C15       -54.1680   -2.7770   -1.6920 C.3       1 7P7         0.0567
     23 C16       -54.0730   -6.2780   -1.9810 C.ar      1 7P7         0.1172
     24 C17       -54.7760   -6.5610    0.3120 C.3       1 7P7         0.1554
     25 C18       -54.1960   -6.3940    1.6960 C.2       1 7P7         0.2063
     26 C19       -52.8760   -7.3360    3.4870 C.3       1 7P7         0.0310
     27 C20       -51.3950   -7.6930    3.5300 C.3       1 7P7        -0.0327
     28 C21       -50.6300   -6.7530    4.4520 C.3       1 7P7        -0.0512
     29 C22       -50.7290   -5.3220    3.9420 C.3       1 7P7        -0.0505
     30 C23       -49.6550   -4.4420    4.5670 C.3       1 7P7        -0.0248
     31 C24       -48.2830   -5.0680    4.3580 C.3       1 7P7         0.0723
     32 C25       -46.4710   -5.7590    5.8040 C.ar      1 7P7         0.1173
     33 C26       -46.3150   -6.9760    5.1430 C.ar      1 7P7        -0.0226
     34 C27       -45.2180   -7.8120    5.3930 C.ar      1 7P7        -0.0605
     35 C28       -44.2140   -7.4970    6.3150 C.ar      1 7P7        -0.0478
     36 C29       -44.3130   -6.3010    7.0110 C.ar      1 7P7         0.0651
     37 C30       -43.5000   -5.6030    8.0440 C.2       1 7P7         0.2395
     38 C31       -43.4660   -3.4530    9.4370 C.3       1 7P7         0.1622
     39 C32       -41.9970   -3.2470    9.1870 C.2       1 7P7         0.2347
     40 C33       -41.5330   -3.0710   11.5020 C.2       1 7P7         0.2047
     41 C34       -43.0070   -3.0160   11.8160 C.3       1 7P7         0.0471
     42 C35       -43.7110   -3.9550   10.8520 C.3       1 7P7         0.0096
     43 C36       -45.4360   -5.3840    6.7900 C.ar      1 7P7         0.1014
     44 C37       -45.1310   -4.2690    7.7240 C.2       1 7P7         0.2364
     45 C38       -53.8680   -7.2520   -2.9500 C.ar      1 7P7        -0.0468
     46 C39       -54.2160   -6.9900   -4.2740 C.ar      1 7P7        -0.0834
     47 C40       -54.2170   -5.8880   -7.0720 C.2       1 7P7         0.0716
     48 C41       -53.4420   -6.1170   -9.3580 C.3       1 7P7         0.0586
     49 C9        -62.3130   -2.3070   -8.8810 C.3       1 7P7         0.0109
     50 N3        -44.0050   -4.4160    8.4400 N.am      1 7P7        -0.1633
     51 N4        -41.1690   -3.0530   10.2180 N.am      1 7P7        -0.1975
     52 N5        -54.4650   -5.7270   -8.3850 N.am      1 7P7        -0.2106
     53 O10       -54.4450   -5.3980    2.3550 O.2       1 7P7        -0.3941
     54 O3        -54.8900   -3.9860   -1.4910 O.3       1 7P7        -0.3264
     55 O4        -53.7420   -6.4980   -0.6690 O.3       1 7P7        -0.3047
     56 O5        -47.5430   -4.9420    5.5670 O.3       1 7P7        -0.3116
     57 O6        -40.7200   -3.1320   12.4100 O.2       1 7P7        -0.3862
     58 O7        -41.5910   -3.2560    8.0360 O.2       1 7P7        -0.3833
     59 O8        -42.4080   -6.0970    8.5090 O.2       1 7P7        -0.3671
     60 O9        -45.8910   -3.2400    7.8390 O.2       1 7P7        -0.3734
     61 S1        -63.2120    0.0180   -9.5450 S.o2      1 7P7        -0.0307
     62 H1        -62.3213   -1.9492   -6.7464 H         1 7P7         0.0834
     63 H2        -60.6287   -0.1005   -8.5013 H         1 7P7         0.0326
     64 H3        -61.0257    0.1103   -6.7621 H         1 7P7         0.0326
     65 H4        -61.7768   -3.4255   -5.6890 H         1 7P7         0.3180
     66 H5        -60.5777   -4.6696   -5.2451 H         1 7P7         0.3180
     67 H6        -62.3205    1.6444   -8.2248 H         1 7P7         0.0501
     68 H7        -63.3847    0.5082   -7.3285 H         1 7P7         0.0501
     69 H8        -64.3407   -1.6660   -8.5075 H         1 7P7         0.0501
     70 H9        -63.9731   -2.0159  -10.2306 H         1 7P7         0.0501
     71 H10       -53.2115   -8.1523    1.5472 H         1 7P7         0.1851
     72 H11       -59.6082   -1.9574   -8.0006 H         1 7P7         0.3207
     73 H12       -58.4674   -3.9904   -9.1384 H         1 7P7         0.0399
     74 H13       -55.4182   -3.8228   -4.0295 H         1 7P7         0.0447
     75 H14       -54.4318   -2.0570   -0.9034 H         1 7P7         0.0573
     76 H15       -54.4255   -2.3551   -2.6747 H         1 7P7         0.0573
     77 H16       -53.0883   -2.9839   -1.6533 H         1 7P7         0.0573
     78 H17       -55.5038   -5.7579    0.1242 H         1 7P7         0.0853
     79 H18       -55.2806   -7.5361    0.2452 H         1 7P7         0.0853
     80 H19       -53.4291   -8.0513    4.1134 H         1 7P7         0.0520
     81 H20       -53.0053   -6.3202    3.8888 H         1 7P7         0.0520
     82 H21       -50.9780   -7.6183    2.5149 H         1 7P7         0.0285
     83 H22       -51.2847   -8.7242    3.8968 H         1 7P7         0.0285
     84 H23       -49.5728   -7.0553    4.4835 H         1 7P7         0.0266
     85 H24       -51.0576   -6.8086    5.4639 H         1 7P7         0.0266
     86 H25       -51.7192   -4.9170    4.1980 H         1 7P7         0.0266
     87 H26       -50.6036   -5.3205    2.8492 H         1 7P7         0.0266
     88 H27       -49.8488   -4.3406    5.6450 H         1 7P7         0.0291
     89 H28       -49.6779   -3.4486    4.0953 H         1 7P7         0.0291
     90 H29       -47.7569   -4.5470    3.5445 H         1 7P7         0.0617
     91 H30       -48.3952   -6.1315    4.1003 H         1 7P7         0.0617
     92 H31       -47.0600   -7.2835    4.4181 H         1 7P7         0.0590
     93 H32       -45.1442   -8.7455    4.8469 H         1 7P7         0.0635
     94 H33       -43.3805   -8.1699    6.4812 H         1 7P7         0.0592
     95 H34       -43.9832   -2.4900    9.3145 H         1 7P7         0.0857
     96 H35       -43.3819   -1.9904   11.6833 H         1 7P7         0.0510
     97 H36       -43.1832   -3.3396   12.8524 H         1 7P7         0.0510
     98 H37       -43.3075   -4.9724   10.9615 H         1 7P7         0.0341
     99 H38       -44.7906   -3.9641   11.0624 H         1 7P7         0.0341
    100 H39       -53.4400   -8.2101   -2.6781 H         1 7P7         0.0498
    101 H40       -54.0439   -7.7510   -5.0265 H         1 7P7         0.0442
    102 H41       -53.2567   -6.3045   -6.7716 H         1 7P7         0.1209
    103 H42       -53.8093   -5.9183  -10.3757 H         1 7P7         0.0606
    104 H43       -53.2232   -7.1896   -9.2501 H         1 7P7         0.0606
    105 H44       -52.5253   -5.5359   -9.1791 H         1 7P7         0.0606
    106 H45       -62.5608   -3.3645   -8.7068 H         1 7P7         0.0326
    107 H46       -61.5827   -2.2316   -9.7001 H         1 7P7         0.0326
    108 H47       -40.2055   -2.8817   10.0122 H         1 7P7         0.2257
@<TRIPOS>BOND
     1    2    1 2  
     2    1   15 1  
     3    1   17 1  
     4    2    7 1  
     5   18    2 1  
     6    3    4 1  
     7    7    3 1  
     8    3   17 2  
     9    4   10 ar 
    10    4   14 ar 
    11    5    6 1  
    12   14    5 1  
    13    5   49 1  
    14    6   11 1  
    15   61    8 2  
    16   61    9 2  
    17   11   61 1  
    18   49   12 1  
    19   12   61 1  
    20   13   25 am 
    21   26   13 1  
    22   15   16 2  
    23   15   52 am 
    24   19   18 1  
    25   18   47 2  
    26   20   19 ar 
    27   19   46 ar 
    28   21   20 ar 
    29   23   21 ar 
    30   21   54 1  
    31   54   22 1  
    32   23   45 ar 
    33   55   23 1  
    34   25   24 1  
    35   24   55 1  
    36   25   53 2  
    37   27   26 1  
    38   28   27 1  
    39   29   28 1  
    40   30   29 1  
    41   31   30 1  
    42   56   31 1  
    43   32   33 ar 
    44   43   32 ar 
    45   32   56 1  
    46   34   33 ar 
    47   35   34 ar 
    48   36   35 ar 
    49   37   36 1  
    50   36   43 ar 
    51   50   37 am 
    52   37   59 2  
    53   39   38 1  
    54   38   42 1  
    55   38   50 1  
    56   51   39 am 
    57   39   58 2  
    58   40   41 1  
    59   40   51 am 
    60   40   57 2  
    61   41   42 1  
    62   43   44 1  
    63   44   50 am 
    64   44   60 2  
    65   45   46 ar 
    66   47   52 1  
    67   52   48 1  
    68    5   62 1  
    69    6   63 1  
    70    6   64 1  
    71   10   65 1  
    72   10   66 1  
    73   11   67 1  
    74   11   68 1  
    75   12   69 1  
    76   12   70 1  
    77   13   71 1  
    78   14   72 1  
    79   17   73 1  
    80   20   74 1  
    81   22   75 1  
    82   22   76 1  
    83   22   77 1  
    84   24   78 1  
    85   24   79 1  
    86   26   80 1  
    87   26   81 1  
    88   27   82 1  
    89   27   83 1  
    90   28   84 1  
    91   28   85 1  
    92   29   86 1  
    93   29   87 1  
    94   30   88 1  
    95   30   89 1  
    96   31   90 1  
    97   31   91 1  
    98   33   92 1  
    99   34   93 1  
   100   35   94 1  
   101   38   95 1  
   102   41   96 1  
   103   41   97 1  
   104   42   98 1  
   105   42   99 1  
   106   45  100 1  
   107   46  101 1  
   108   47  102 1  
   109   48  103 1  
   110   48  104 1  
   111   48  105 1  
   112   49  106 1  
   113   49  107 1  
   114   51  108 1  
@<TRIPOS>SUBSTRUCTURE
     1 7P7         1

