### 
### Created by X-TOOL on Fri Nov  2 11:03:58 2018
### 

@<TRIPOS>MOLECULE
5twz_ligand
   50    53     1     0     0
SMALL
GAST_HUCK


@<TRIPOS>ATOM
      1 C1        -25.8260  -14.6330  -16.7720 C.3       1 MOL         0.0609
      2 O2        -26.9590  -14.1740  -17.5040 O.3       1 MOL        -0.3174
      3 C3        -28.2070  -14.6620  -17.2210 C.ar      1 MOL         0.1070
      4 C4        -28.3670  -15.7970  -16.4310 C.ar      1 MOL        -0.0285
      5 C5        -29.6440  -16.2770  -16.1600 C.ar      1 MOL        -0.0400
      6 C6        -30.7670  -15.6330  -16.6760 C.ar      1 MOL        -0.0676
      7 C7        -30.6600  -14.4910  -17.4670 C.ar      1 MOL        -0.0548
      8 C8        -29.4050  -13.9760  -17.7640 C.ar      1 MOL         0.0786
      9 C9        -29.2400  -12.7540  -18.6220 C.2       1 MOL         0.2211
     10 O10       -30.2140  -12.1160  -18.9870 O.2       1 MOL        -0.3827
     11 N11       -28.0010  -12.4300  -18.9730 N.am      1 MOL        -0.2411
     12 C12       -27.5390  -11.1710  -19.1480 C.ar      1 MOL         0.0521
     13 C13       -26.7210  -10.6220  -18.1600 C.ar      1 MOL        -0.0543
     14 C14       -26.1860   -9.3430  -18.2770 C.ar      1 MOL        -0.0794
     15 C15       -26.4580   -8.5880  -19.4100 C.ar      1 MOL        -0.0503
     16 C16       -25.8780   -7.1930  -19.5270 C.3       1 MOL         0.0120
     17 C17       -24.9440   -7.1190  -20.7280 C.3       1 MOL        -0.0269
     18 N18       -25.7200   -6.8870  -21.9570 N.4       1 MOL         0.2295
     19 C19       -26.3430   -8.1310  -22.4440 C.3       1 MOL        -0.0252
     20 C20       -27.6510   -8.3890  -21.7100 C.3       1 MOL         0.0156
     21 C21       -27.3290   -9.1730  -20.4670 C.ar      1 MOL        -0.0486
     22 C22       -27.8420  -10.4540  -20.3030 C.ar      1 MOL        -0.0460
     23 C23       -29.8200  -17.4960  -15.3180 C.2       1 MOL         0.0016
     24 C24       -31.0300  -18.0260  -14.8880 C.2       1 MOL         0.0631
     25 N25       -30.7700  -19.1290  -14.1520 N.pl3     1 MOL        -0.2153
     26 N26       -29.3800  -19.3070  -14.1190 N.2       1 MOL        -0.2149
     27 C27       -28.8090  -18.3110  -14.8310 C.2       1 MOL         0.0069
     28 H1        -24.9213  -14.1286  -17.1423 H         1 MOL         0.0580
     29 H2        -25.7198  -15.7199  -16.9040 H         1 MOL         0.0580
     30 H3        -25.9621  -14.4048  -15.7046 H         1 MOL         0.0580
     31 H4        -27.4985  -16.3054  -16.0281 H         1 MOL         0.0503
     32 H5        -31.7508  -16.0315  -16.4559 H         1 MOL         0.0497
     33 H6        -31.5518  -14.0070  -17.8486 H         1 MOL         0.0627
     34 H7        -27.3556  -13.1795  -19.1202 H         1 MOL         0.2224
     35 H8        -26.4960  -11.2084  -17.2765 H         1 MOL         0.0431
     36 H9        -25.5611   -8.9387  -17.4889 H         1 MOL         0.0502
     37 H10       -25.3156   -6.9539  -18.6124 H         1 MOL         0.0436
     38 H11       -26.6951   -6.4678  -19.6552 H         1 MOL         0.0436
     39 H12       -24.3924   -8.0663  -20.8192 H         1 MOL         0.0833
     40 H13       -24.2323   -6.2925  -20.5854 H         1 MOL         0.0833
     41 H14       -25.1049   -6.5276  -22.6701 H         1 MOL         0.2016
     42 H15       -26.4432   -6.2115  -21.7654 H         1 MOL         0.2016
     43 H16       -25.6569   -8.9729  -22.2696 H         1 MOL         0.0836
     44 H17       -26.5437   -8.0387  -23.5216 H         1 MOL         0.0836
     45 H18       -28.3332   -8.9664  -22.3512 H         1 MOL         0.0461
     46 H19       -28.1235   -7.4334  -21.4387 H         1 MOL         0.0461
     47 H20       -28.4730  -10.8918  -21.0680 H         1 MOL         0.0423
     48 H21       -32.0175  -17.6223  -15.1064 H         1 MOL         0.1053
     49 H22       -31.4694  -19.7322  -13.6960 H         1 MOL         0.2605
     50 H23       -27.7413  -18.1723  -14.9941 H         1 MOL         0.0679
@<TRIPOS>BOND
     1    1    2 1  
     2    2    3 1  
     3    3    4 ar 
     4    3    8 ar 
     5    4    5 ar 
     6    5    6 ar 
     7    5   23 1  
     8    6    7 ar 
     9    7    8 ar 
    10    8    9 1  
    11    9   10 2  
    12    9   11 am 
    13   11   12 1  
    14   12   13 ar 
    15   12   22 ar 
    16   13   14 ar 
    17   14   15 ar 
    18   15   16 1  
    19   15   21 ar 
    20   16   17 1  
    21   17   18 1  
    22   18   19 1  
    23   19   20 1  
    24   20   21 1  
    25   21   22 ar 
    26   23   24 2  
    27   23   27 1  
    28   24   25 1  
    29   25   26 1  
    30   26   27 2  
    31    1   28 1  
    32    1   29 1  
    33    1   30 1  
    34    4   31 1  
    35    6   32 1  
    36    7   33 1  
    37   11   34 1  
    38   13   35 1  
    39   14   36 1  
    40   16   37 1  
    41   16   38 1  
    42   17   39 1  
    43   17   40 1  
    44   18   41 1  
    45   18   42 1  
    46   19   43 1  
    47   19   44 1  
    48   20   45 1  
    49   20   46 1  
    50   22   47 1  
    51   24   48 1  
    52   25   49 1  
    53   27   50 1  
@<TRIPOS>SUBSTRUCTURE
     1 MOL         1

