### 
### Created by X-TOOL on Wed Jan  1 15:39:34 2020
### 

@<TRIPOS>MOLECULE
5tx3_ligand
   69    74     1     0     0
SMALL
GAST_HUCK


@<TRIPOS>ATOM
      1 C4         17.1710   -8.5600   35.3550 C.ar      1 7MY         0.1481
      2 C5         18.2720   -8.6720   34.6540 C.ar      1 7MY         0.0091
      3 C6         18.8820   -7.5890   33.8950 C.ar      1 7MY         0.0301
      4 N1         18.2630   -6.3800   33.9570 N.ar      1 7MY        -0.2273
      5 N3         16.5220   -7.2940   35.3880 N.ar      1 7MY        -0.2071
      6 CAQ        13.8910   -2.0040   38.9720 C.3       1 7MY        -0.0303
      7 CAM        15.2290   -1.2730   39.2110 C.3       1 7MY        -0.0077
      8 CAN        14.8030    0.1790   39.1350 C.3       1 7MY        -0.0077
      9 CAR        13.4830    0.1750   38.3570 C.3       1 7MY        -0.0303
     10 NBG        13.1640   -1.1680   38.0600 N.4       1 7MY         0.2470
     11 CAS        13.4710   -1.3980   36.6540 C.3       1 7MY        -0.0003
     12 CAX        13.6790   -2.8900   36.2620 C.ar      1 7MY        -0.0063
     13 CAL        14.8740   -3.2660   35.6700 C.ar      1 7MY        -0.0290
     14 CAG        12.7050   -3.8560   36.4640 C.ar      1 7MY        -0.0650
     15 CAE        12.9430   -5.1890   36.0900 C.ar      1 7MY        -0.0757
     16 CAI        14.1570   -5.5490   35.5160 C.ar      1 7MY        -0.0417
     17 CAZ        15.1340   -4.5900   35.2900 C.ar      1 7MY         0.0681
     18 NAV        16.4260   -4.8860   34.6920 N.pl3     1 7MY        -0.2292
     19 C2         17.0620   -6.1910   34.6860 C.ar      1 7MY         0.2284
     20 CBI        18.8750  -10.0850   34.6570 C.3       1 7MY        -0.0038
     21 CAA        20.3340  -10.3200   35.1520 C.3       1 7MY        -0.0898
     22 CAB        18.9730  -10.7920   33.3090 C.3       1 7MY        -0.0898
     23 CAW        17.8250  -10.7210   35.5640 C.3       1 7MY         0.1213
     24 OAC        17.8210  -12.0380   35.9530 O.3       1 7MY        -0.3775
     25 NBH        16.8580   -9.8010   35.9400 N.pl3     1 7MY        -0.2414
     26 CBF        15.7570  -10.1070   36.7710 C.3       1 7MY         0.0823
     27 CAP        15.6770   -9.0020   37.6830 C.3       1 7MY        -0.0120
     28 CAO        14.1900   -8.6290   37.8110 C.3       1 7MY        -0.0198
     29 CBC        13.7550   -9.1630   36.4310 C.ar      1 7MY        -0.0100
     30 CBB        14.6400   -9.9800   35.9030 C.ar      1 7MY        -0.0222
     31 CAJ        14.3940  -10.6000   34.5760 C.ar      1 7MY        -0.0754
     32 CAF        13.2250  -10.3340   33.8800 C.ar      1 7MY        -0.0839
     33 CAH        12.2640   -9.4490   34.4660 C.ar      1 7MY        -0.0466
     34 CAY        12.5170   -8.8740   35.7060 C.ar      1 7MY         0.0828
     35 OAD        11.5760   -8.0050   36.2670 O.3       1 7MY        -0.3388
     36 H1         19.7828   -7.7390   33.3109 H         1 7MY         0.1101
     37 H2         13.3385   -2.1163   39.9165 H         1 7MY         0.0815
     38 H3         14.0667   -2.9958   38.5298 H         1 7MY         0.0815
     39 H4         15.9642   -1.5166   38.4299 H         1 7MY         0.0319
     40 H5         15.6484   -1.5167   40.1983 H         1 7MY         0.0319
     41 H6         15.5604    0.7752   38.6050 H         1 7MY         0.0319
     42 H7         14.6536    0.5897   40.1444 H         1 7MY         0.0319
     43 H8         13.5957    0.7482   37.4250 H         1 7MY         0.0815
     44 H9         12.6861    0.6228   38.9689 H         1 7MY         0.0815
     45 H10        12.1782   -1.3240   38.2009 H         1 7MY         0.2048
     46 H11        14.3934   -0.8498   36.4119 H         1 7MY         0.0979
     47 H12        12.6396   -1.0001   36.0536 H         1 7MY         0.0979
     48 H13        15.6326   -2.5117   35.4950 H         1 7MY         0.0490
     49 H14        11.7568   -3.5817   36.9120 H         1 7MY         0.0478
     50 H15        12.1774   -5.9396   36.2495 H         1 7MY         0.0575
     51 H16        14.3409   -6.5821   35.2442 H         1 7MY         0.0497
     52 H17        16.9286   -4.1101   34.2377 H         1 7MY         0.2298
     53 H18        21.0387   -9.8387   34.4579 H         1 7MY         0.0104
     54 H19        20.5383  -11.4001   35.1915 H         1 7MY         0.0104
     55 H20        20.4549   -9.8870   36.1559 H         1 7MY         0.0104
     56 H21        18.0043  -10.7305   32.7915 H         1 7MY         0.0104
     57 H22        19.2378  -11.8479   33.4671 H         1 7MY         0.0104
     58 H23        19.7474  -10.3075   32.6963 H         1 7MY         0.0104
     59 H24        18.4259  -10.4887   36.4556 H         1 7MY         0.0754
     60 H25        18.5745  -12.4797   35.5793 H         1 7MY         0.2113
     61 H26        15.8256  -11.0859   37.2680 H         1 7MY         0.0729
     62 H27        16.2482   -8.1473   37.2915 H         1 7MY         0.0328
     63 H28        16.0790   -9.2929   38.6647 H         1 7MY         0.0328
     64 H29        14.0334   -7.5450   37.9132 H         1 7MY         0.0389
     65 H30        13.6933   -9.1512   38.6420 H         1 7MY         0.0389
     66 H31        15.1346  -11.2660   34.1482 H         1 7MY         0.0448
     67 H32        13.0422  -10.7866   32.9121 H         1 7MY         0.0515
     68 H33        11.3404   -9.2277   33.9434 H         1 7MY         0.0467
     69 H34        10.7531   -8.4646   36.3851 H         1 7MY         0.2454
@<TRIPOS>BOND
     1    1    2 ar 
     2    5    1 ar 
     3    1   25 1  
     4    3    2 ar 
     5    2   20 1  
     6    4    3 ar 
     7   19    4 ar 
     8   19    5 ar 
     9    6    7 1  
    10   10    6 1  
    11    8    7 1  
    12    9    8 1  
    13   10    9 1  
    14   11   10 1  
    15   12   11 1  
    16   13   12 ar 
    17   12   14 ar 
    18   17   13 ar 
    19   15   14 ar 
    20   16   15 ar 
    21   17   16 ar 
    22   18   17 1  
    23   18   19 1  
    24   20   21 1  
    25   20   22 1  
    26   20   23 1  
    27   23   24 1  
    28   23   25 1  
    29   25   26 1  
    30   26   27 1  
    31   26   30 1  
    32   27   28 1  
    33   28   29 1  
    34   29   30 ar 
    35   29   34 ar 
    36   30   31 ar 
    37   31   32 ar 
    38   32   33 ar 
    39   33   34 ar 
    40   34   35 1  
    41    3   36 1  
    42    6   37 1  
    43    6   38 1  
    44    7   39 1  
    45    7   40 1  
    46    8   41 1  
    47    8   42 1  
    48    9   43 1  
    49    9   44 1  
    50   10   45 1  
    51   11   46 1  
    52   11   47 1  
    53   13   48 1  
    54   14   49 1  
    55   15   50 1  
    56   16   51 1  
    57   18   52 1  
    58   21   53 1  
    59   21   54 1  
    60   21   55 1  
    61   22   56 1  
    62   22   57 1  
    63   22   58 1  
    64   23   59 1  
    65   24   60 1  
    66   26   61 1  
    67   27   62 1  
    68   27   63 1  
    69   28   64 1  
    70   28   65 1  
    71   31   66 1  
    72   32   67 1  
    73   33   68 1  
    74   35   69 1  
@<TRIPOS>SUBSTRUCTURE
     1 7MY         1

