### 
### Created by X-TOOL on Mon Sep 10 21:13:33 2018
### 

@<TRIPOS>MOLECULE
5tx5_ligand
   47    50     1     0     0
SMALL
GAST_HUCK


@<TRIPOS>ATOM
      1 C23        16.9020    0.0210   56.6900 C.ar      1 7MJ        -0.0683
      2 C22        15.9730   -0.9970   56.6090 C.ar      1 7MJ        -0.0680
      3 C24        17.9780    0.0610   55.8190 C.ar      1 7MJ        -0.0680
      4 C5         25.3240   -9.3200   58.8530 C.ar      1 7MJ        -0.0868
      5 C6         24.8130   -8.7070   59.9820 C.ar      1 7MJ        -0.0862
      6 C21        16.1410   -1.9750   55.6500 C.ar      1 7MJ        -0.0575
      7 C25        18.1490   -0.9150   54.8590 C.ar      1 7MJ        -0.0575
      8 C4         24.4630   -9.8960   57.9320 C.ar      1 7MJ        -0.0491
      9 C7         23.4460   -8.6740   60.1910 C.ar      1 7MJ        -0.0461
     10 C20        17.2250   -1.9360   54.7880 C.ar      1 7MJ        -0.0239
     11 C3         23.0900   -9.8700   58.1250 C.ar      1 7MJ         0.0989
     12 C8         22.5930   -9.2460   59.2640 C.ar      1 7MJ         0.1130
     13 C15        19.0300   -5.7270   55.4540 C.2       1 7MJ         0.2278
     14 C18        17.8180   -4.2890   54.3610 C.2       1 7MJ         0.1494
     15 C27        20.9920   -9.8160   56.8320 C.2       1 7MJ         0.2314
     16 C13        20.0790   -6.3040   56.2220 C.2       1 7MJ         0.2586
     17 C10        20.5800   -8.2230   58.6990 C.3       1 7MJ         0.1077
     18 C11        20.9240   -8.3650   57.2320 C.3       1 7MJ         0.1634
     19 C1         22.3800  -11.8160   56.7970 C.3       1 7MJ         0.0424
     20 C19        17.4080   -3.0050   53.7730 C.3       1 7MJ         0.0628
     21 N16        17.9590   -6.3510   55.0080 N.2       1 7MJ        -0.2436
     22 N17        17.1950   -5.4470   54.3170 N.2       1 7MJ        -0.2551
     23 N26        18.9730   -4.4230   55.0720 N.pl3     1 7MJ        -0.2152
     24 N2         22.1930  -10.4310   57.1690 N.am      1 7MJ        -0.2237
     25 N12        19.9790   -7.6700   56.3900 N.am      1 7MJ        -0.2568
     26 O28        20.0690  -10.3790   56.2590 O.2       1 7MJ        -0.3834
     27 O14        20.9760   -5.6130   56.6830 O.2       1 7MJ        -0.3735
     28 O9         21.2140   -9.2240   59.4990 O.3       1 7MJ        -0.3195
     29 H1         16.7884    0.7946   57.4408 H         1 7MJ         0.0562
     30 H2         15.1271   -1.0275   57.2862 H         1 7MJ         0.0600
     31 H3         18.6956    0.8702   55.8925 H         1 7MJ         0.0600
     32 H4         26.3950   -9.3501   58.6885 H         1 7MJ         0.0484
     33 H5         25.4831   -8.2526   60.7028 H         1 7MJ         0.0460
     34 H6         15.4193   -2.7799   55.5705 H         1 7MJ         0.0562
     35 H7         18.9903   -0.8800   54.1763 H         1 7MJ         0.0562
     36 H8         24.8690  -10.3739   57.0477 H         1 7MJ         0.0466
     37 H9         23.0438   -8.2008   61.0795 H         1 7MJ         0.0495
     38 H10        19.4901   -8.3116   58.8180 H         1 7MJ         0.0658
     39 H11        20.9074   -7.2318   59.0459 H         1 7MJ         0.0658
     40 H12        21.9161   -7.9172   57.0735 H         1 7MJ         0.0832
     41 H13        23.3718  -12.1546   57.1310 H         1 7MJ         0.0545
     42 H14        22.3077  -11.9151   55.7039 H         1 7MJ         0.0545
     43 H15        21.6028  -12.4317   57.2732 H         1 7MJ         0.0545
     44 H16        18.1810   -2.6830   53.0597 H         1 7MJ         0.0675
     45 H17        16.4562   -3.1506   53.2412 H         1 7MJ         0.0675
     46 H18        19.6627   -3.6863   55.2782 H         1 7MJ         0.2461
     47 H19        19.2521   -8.1786   55.9286 H         1 7MJ         0.1882
@<TRIPOS>BOND
     1    2    1 ar 
     2    3    1 ar 
     3    6    2 ar 
     4    7    3 ar 
     5    5    4 ar 
     6    8    4 ar 
     7    9    5 ar 
     8   10    6 ar 
     9   10    7 ar 
    10   11    8 ar 
    11   12    9 ar 
    12   20   10 1  
    13   12   11 ar 
    14   24   11 1  
    15   28   12 1  
    16   16   13 1  
    17   13   21 2  
    18   13   23 1  
    19   14   20 1  
    20   14   22 2  
    21   23   14 1  
    22   18   15 1  
    23   15   24 am 
    24   15   26 2  
    25   25   16 am 
    26   16   27 2  
    27   18   17 1  
    28   17   28 1  
    29   18   25 1  
    30   24   19 1  
    31   21   22 1  
    32    1   29 1  
    33    2   30 1  
    34    3   31 1  
    35    4   32 1  
    36    5   33 1  
    37    6   34 1  
    38    7   35 1  
    39    8   36 1  
    40    9   37 1  
    41   17   38 1  
    42   17   39 1  
    43   18   40 1  
    44   19   41 1  
    45   19   42 1  
    46   19   43 1  
    47   20   44 1  
    48   20   45 1  
    49   23   46 1  
    50   25   47 1  
@<TRIPOS>SUBSTRUCTURE
     1 7MJ         1

