### 
### Created by X-TOOL on Mon Sep 10 21:13:31 2018
### 

@<TRIPOS>MOLECULE
5txy_ligand
   20    21     1     0     0
SMALL
GAST_HUCK


@<TRIPOS>ATOM
      1 C01        16.4810    5.8350   13.9510 C.ar      1 7Q1        -0.0684
      2 C02        17.7050    5.2250   13.9140 C.ar      1 7Q1        -0.0680
      3 C03        17.9370    4.0130   14.5480 C.ar      1 7Q1        -0.0551
      4 C04        16.8930    3.3420   15.1950 C.ar      1 7Q1         0.0096
      5 C05        15.6230    3.9330   15.2090 C.ar      1 7Q1        -0.0551
      6 C06        15.4520    5.1570   14.5510 C.ar      1 7Q1        -0.0680
      7 C07        17.1580    1.9940   15.8320 C.3       1 7Q1         0.2152
      8 C08        16.4790    0.9360   15.0430 C.2       1 7Q1         0.2517
      9 O09        16.7370    0.6260   13.8800 O.2       1 7Q1        -0.3801
     10 N10        15.5190    0.2690   15.8000 N.am      1 7Q1        -0.1700
     11 C11        15.5440    0.9310   17.0390 C.2       1 7Q1         0.3554
     12 O12        14.8730    0.6490   18.0190 O.2       1 7Q1        -0.3679
     13 O13        16.5620    1.9060   17.1120 O.3       1 7Q1        -0.2214
     14 H1         16.3305    6.8188   13.5214 H         1 7Q1         0.0561
     15 H2         18.5156    5.7016   13.3747 H         1 7Q1         0.0600
     16 H3         18.9322    3.5834   14.5422 H         1 7Q1         0.0562
     17 H4         14.7933    3.4546   15.7167 H         1 7Q1         0.0562
     18 H5         14.4585    5.5890   14.5144 H         1 7Q1         0.0600
     19 H6         18.2417    1.8149   15.8908 H         1 7Q1         0.1060
     20 H7         14.9449   -0.5024   15.5253 H         1 7Q1         0.2277
@<TRIPOS>BOND
     1    1    2 ar 
     2    1    6 ar 
     3    2    3 ar 
     4    3    4 ar 
     5    4    5 ar 
     6    4    7 1  
     7    5    6 ar 
     8    7    8 1  
     9    7   13 1  
    10    8    9 2  
    11    8   10 am 
    12   10   11 am 
    13   11   12 2  
    14   11   13 1  
    15    1   14 1  
    16    2   15 1  
    17    3   16 1  
    18    5   17 1  
    19    6   18 1  
    20    7   19 1  
    21   10   20 1  
@<TRIPOS>SUBSTRUCTURE
     1 7Q1         1

