### 
### Created by X-TOOL on Mon Sep 10 21:13:30 2018
### 

@<TRIPOS>MOLECULE
5ty1_ligand
   28    29     1     0     0
SMALL
GAST_HUCK


@<TRIPOS>ATOM
      1 C17        -3.0010    3.8800   14.7300 C.ar      1 7QV        -0.0718
      2 C16        -3.0520    5.1110   14.1540 C.ar      1 7QV        -0.0503
      3 C12        -5.4030    5.0420   14.4990 C.ar      1 7QV        -0.0109
      4 C8         -4.1000    3.1960   15.1920 C.ar      1 7QV         0.0280
      5 C13        -4.3010    5.7200   14.0640 C.ar      1 7QV         0.0754
      6 C9         -5.3540    3.7990   15.0450 C.ar      1 7QV         0.0895
      7 C2         -4.6530    0.7530   14.9960 C.2       1 7QV         0.2480
      8 C4         -5.4840    0.7380   17.0100 C.2       1 7QV         0.3549
      9 C7         -3.9260    1.8180   15.7690 C.3       1 7QV         0.2090
     10 C15        -3.4070    7.6000   12.9310 C.3       1 7QV         0.0577
     11 C11        -7.0180    3.6750   16.6960 C.3       1 7QV         0.0576
     12 N3         -5.5360    0.1190   15.8020 N.am      1 7QV        -0.1705
     13 O1         -4.4610    0.5320   13.7890 O.2       1 7QV        -0.3810
     14 O6         -6.1680    0.4980   17.9970 O.2       1 7QV        -0.3679
     15 O5         -4.4940    1.6770   17.0800 O.3       1 7QV        -0.2251
     16 O14        -4.5570    6.9680   13.4750 O.3       1 7QV        -0.3282
     17 O10        -6.4640    3.0970   15.4710 O.3       1 7QV        -0.3271
     18 H1         -2.0306    3.4077   14.8313 H         1 7QV         0.0506
     19 H2         -2.1581    5.5975   13.7807 H         1 7QV         0.0433
     20 H3         -6.3704    5.5218   14.4035 H         1 7QV         0.0446
     21 H4         -2.8490    1.5961   15.7973 H         1 7QV         0.1016
     22 H5         -3.6934    8.5669   12.4916 H         1 7QV         0.0575
     23 H6         -2.9699    6.9582   12.1518 H         1 7QV         0.0575
     24 H7         -2.6672    7.7644   13.7283 H         1 7QV         0.0575
     25 H8         -7.8988    3.0952   17.0092 H         1 7QV         0.0575
     26 H9         -7.3133    4.7179   16.5085 H         1 7QV         0.0575
     27 H10        -6.2584    3.6463   17.4911 H         1 7QV         0.0575
     28 H11        -6.1162   -0.6572   15.5553 H         1 7QV         0.2277
@<TRIPOS>BOND
     1    1    2 ar 
     2    1    4 ar 
     3    2    5 ar 
     4    5    3 ar 
     5    3    6 ar 
     6    4    6 ar 
     7    4    9 1  
     8    5   16 1  
     9    6   17 1  
    10    9    7 1  
    11    7   12 am 
    12    7   13 2  
    13   12    8 am 
    14    8   14 2  
    15    8   15 1  
    16    9   15 1  
    17   16   10 1  
    18   17   11 1  
    19    1   18 1  
    20    2   19 1  
    21    3   20 1  
    22    9   21 1  
    23   10   22 1  
    24   10   23 1  
    25   10   24 1  
    26   11   25 1  
    27   11   26 1  
    28   11   27 1  
    29   12   28 1  
@<TRIPOS>SUBSTRUCTURE
     1 7QV         1

