### 
### Created by X-TOOL on Mon Sep 10 21:13:30 2018
### 

@<TRIPOS>MOLECULE
5ty8_ligand
   20    21     1     0     0
SMALL
GAST_HUCK


@<TRIPOS>ATOM
      1 C01        -4.7510    5.7200   13.9560 C.ar      1 7Q1        -0.0684
      2 C02        -5.7550    5.0520   14.5680 C.ar      1 7Q1        -0.0680
      3 C03        -5.5550    3.8500   15.1830 C.ar      1 7Q1        -0.0551
      4 C04        -4.2480    3.2820   15.1610 C.ar      1 7Q1         0.0096
      5 C05        -3.2260    3.9660   14.5430 C.ar      1 7Q1        -0.0551
      6 C06        -3.4620    5.1900   13.9120 C.ar      1 7Q1        -0.0680
      7 C07        -3.9990    1.9570   15.8110 C.3       1 7Q1         0.2152
      8 C08        -4.7120    0.8600   15.0260 C.2       1 7Q1         0.2517
      9 O09        -4.4440    0.5460   13.8570 O.2       1 7Q1        -0.3801
     10 N10        -5.6750    0.2410   15.7580 N.am      1 7Q1        -0.1700
     11 C11        -5.6460    0.7900   16.9670 C.2       1 7Q1         0.3554
     12 O12        -6.2370    0.6160   17.9840 O.2       1 7Q1        -0.3679
     13 O13        -4.6410    1.7850   17.1000 O.3       1 7Q1        -0.2214
     14 H1         -4.9509    6.6799   13.4937 H         1 7Q1         0.0561
     15 H2         -6.7490    5.4844   14.5702 H         1 7Q1         0.0600
     16 H3         -6.3727    3.3383   15.6776 H         1 7Q1         0.0562
     17 H4         -2.2251    3.5497   14.5459 H         1 7Q1         0.0562
     18 H5         -2.6629    5.7146   13.4009 H         1 7Q1         0.0600
     19 H6         -2.9149    1.7841   15.8799 H         1 7Q1         0.1060
     20 H7         -6.2866   -0.4864   15.4469 H         1 7Q1         0.2277
@<TRIPOS>BOND
     1    1    2 ar 
     2    1    6 ar 
     3    2    3 ar 
     4    3    4 ar 
     5    4    5 ar 
     6    4    7 1  
     7    5    6 ar 
     8    7    8 1  
     9    7   13 1  
    10    8    9 2  
    11    8   10 am 
    12   10   11 am 
    13   11   12 2  
    14   11   13 1  
    15    1   14 1  
    16    2   15 1  
    17    3   16 1  
    18    5   17 1  
    19    6   18 1  
    20    7   19 1  
    21   10   20 1  
@<TRIPOS>SUBSTRUCTURE
     1 7Q1         1

