### 
### Created by X-TOOL on Mon Sep 10 21:13:30 2018
### 

@<TRIPOS>MOLECULE
5ty9_ligand
   28    29     1     0     0
SMALL
GAST_HUCK


@<TRIPOS>ATOM
      1 C17        -3.0090    3.8860   14.7270 C.ar      1 7QV        -0.0718
      2 C16        -3.1010    5.1380   14.1500 C.ar      1 7QV        -0.0503
      3 C12        -5.4560    5.0770   14.4710 C.ar      1 7QV        -0.0109
      4 C8         -4.1170    3.2100   15.1760 C.ar      1 7QV         0.0280
      5 C13        -4.3400    5.7420   14.0290 C.ar      1 7QV         0.0754
      6 C9         -5.3620    3.8230   15.0250 C.ar      1 7QV         0.0895
      7 C2         -4.6490    0.7730   14.9650 C.2       1 7QV         0.2480
      8 C4         -5.4920    0.7250   16.9590 C.2       1 7QV         0.3549
      9 C7         -3.9190    1.8230   15.7440 C.3       1 7QV         0.2090
     10 C15        -3.3840    7.5730   12.8350 C.3       1 7QV         0.0577
     11 C11        -7.0430    3.6090   16.6830 C.3       1 7QV         0.0576
     12 N3         -5.5290    0.1540   15.7720 N.am      1 7QV        -0.1705
     13 O1         -4.4710    0.5680   13.7630 O.2       1 7QV        -0.3810
     14 O6         -6.1270    0.5110   17.9570 O.2       1 7QV        -0.3679
     15 O5         -4.4930    1.6430   17.0440 O.3       1 7QV        -0.2251
     16 O14        -4.5670    7.0130   13.4750 O.3       1 7QV        -0.3282
     17 O10        -6.4940    3.1100   15.4260 O.3       1 7QV        -0.3271
     18 H1         -2.0338    3.4237   14.8283 H         1 7QV         0.0506
     19 H2         -2.2099    5.6429   13.7950 H         1 7QV         0.0433
     20 H3         -6.4279    5.5487   14.3816 H         1 7QV         0.0446
     21 H4         -2.8398    1.6115   15.7670 H         1 7QV         0.1016
     22 H5         -3.6246    8.5640   12.4227 H         1 7QV         0.0575
     23 H6         -3.0569    6.9075   12.0226 H         1 7QV         0.0575
     24 H7         -2.5774    7.6704   13.5765 H         1 7QV         0.0575
     25 H8         -7.9296    3.0180   16.9561 H         1 7QV         0.0575
     26 H9         -7.3283    4.6648   16.5651 H         1 7QV         0.0575
     27 H10        -6.2850    3.5202   17.4751 H         1 7QV         0.0575
     28 H11        -6.1153   -0.6138   15.5136 H         1 7QV         0.2277
@<TRIPOS>BOND
     1    1    2 ar 
     2    1    4 ar 
     3    2    5 ar 
     4    5    3 ar 
     5    3    6 ar 
     6    4    6 ar 
     7    4    9 1  
     8    5   16 1  
     9    6   17 1  
    10    9    7 1  
    11    7   12 am 
    12    7   13 2  
    13   12    8 am 
    14    8   14 2  
    15    8   15 1  
    16    9   15 1  
    17   16   10 1  
    18   17   11 1  
    19    1   18 1  
    20    2   19 1  
    21    3   20 1  
    22    9   21 1  
    23   10   22 1  
    24   10   23 1  
    25   10   24 1  
    26   11   25 1  
    27   11   26 1  
    28   11   27 1  
    29   12   28 1  
@<TRIPOS>SUBSTRUCTURE
     1 7QV         1

