### 
### Created by X-TOOL on Mon Sep 10 21:13:30 2018
### 

@<TRIPOS>MOLECULE
5tya_ligand
   20    21     1     0     0
SMALL
GAST_HUCK


@<TRIPOS>ATOM
      1 C1         -4.4910    5.7220   13.6180 C.ar      1 7QS        -0.0684
      2 C2         -3.2980    5.1990   14.0370 C.ar      1 7QS        -0.0681
      3 C6         -5.6180    5.1010   14.0210 C.ar      1 7QS        -0.0681
      4 C3         -3.2730    4.0770   14.8460 C.ar      1 7QS        -0.0567
      5 C5         -5.6300    3.9940   14.8260 C.ar      1 7QS        -0.0567
      6 C4         -4.4270    3.4760   15.2620 C.ar      1 7QS        -0.0084
      7 C8         -4.8330    1.0040   15.4670 C.2       1 7QS         0.2323
      8 C11        -6.4380    1.1140   16.9990 C.2       1 7QS         0.2715
      9 C7         -4.3750    2.2540   16.1990 C.3       1 7QS         0.1532
     10 N10        -5.8260    0.4320   16.0490 N.am      1 7QS        -0.1874
     11 O9         -4.2390    0.6010   14.4670 O.2       1 7QS        -0.3818
     12 O12        -7.5670    0.9660   17.4520 O.2       1 7QS        -0.3729
     13 S13        -5.5850    2.5000   17.5840 S.3       1 7QS         0.0122
     14 H1         -4.5287    6.6020   12.9862 H         1 7QS         0.0561
     15 H2         -2.3680    5.6661   13.7336 H         1 7QS         0.0600
     16 H3         -6.5689    5.5013   13.6885 H         1 7QS         0.0600
     17 H4         -2.3187    3.6667   15.1559 H         1 7QS         0.0561
     18 H5         -6.5671    3.5325   15.1158 H         1 7QS         0.0561
     19 H6         -3.3547    2.1226   16.5884 H         1 7QS         0.0843
     20 H7         -6.1217   -0.4885   15.7935 H         1 7QS         0.2267
@<TRIPOS>BOND
     1    1    2 ar 
     2    1    3 ar 
     3    2    4 ar 
     4    3    5 ar 
     5    4    6 ar 
     6    5    6 ar 
     7    6    9 1  
     8    9    7 1  
     9    7   10 am 
    10    7   11 2  
    11   10    8 am 
    12    8   12 2  
    13    8   13 1  
    14    9   13 1  
    15    1   14 1  
    16    2   15 1  
    17    3   16 1  
    18    4   17 1  
    19    5   18 1  
    20    9   19 1  
    21   10   20 1  
@<TRIPOS>SUBSTRUCTURE
     1 7QS         1

