### 
### Created by X-TOOL on Mon Sep 10 21:13:33 2018
### 

@<TRIPOS>MOLECULE
5tyh_ligand
   18    19     1     0     0
SMALL
GAST_HUCK


@<TRIPOS>ATOM
      1 CAD        10.1950  -41.2960  -12.7570 C.2       1 7O4        -0.0579
      2 CAA         9.9400  -42.0680  -13.8410 C.2       1 7O4        -0.0639
      3 CAB         9.3330  -43.1890  -13.4360 C.2       1 7O4         0.0792
      4 OAC         9.1700  -43.1330  -12.0660 O.3       1 7O4        -0.2632
      5 CAE         9.7510  -41.9450  -11.6580 C.2       1 7O4         0.1240
      6 CAG         9.7870  -41.5570  -10.2870 C.2       1 7O4         0.0684
      7 CAF        10.0560  -42.3370   -9.2120 C.2       1 7O4        -0.0243
      8 CAJ         9.9640  -41.5410   -8.1280 C.2       1 7O4         0.1169
      9 CAL        10.1580  -41.9550   -6.6390 C.2       1 7O4         0.0923
     10 OAI        11.2780  -41.8100   -6.1040 O.co2     1 7O4        -0.5580
     11 OAM         9.1820  -42.4450   -6.0360 O.co2     1 7O4        -0.5580
     12 NAK         9.6480  -40.3100   -8.5390 N.pl3     1 7O4        -0.2114
     13 NAH         9.5560  -40.3270   -9.7900 N.2       1 7O4        -0.2111
     14 H1         10.6758  -40.3190  -12.7693 H         1 7O4         0.0358
     15 H2         10.1882  -41.8173  -14.8713 H         1 7O4         0.0347
     16 H3          9.0195  -44.0095  -14.0798 H         1 7O4         0.0981
     17 H4         10.2988  -43.3985   -9.2219 H         1 7O4         0.0402
     18 H5          9.5047  -39.4890   -7.9337 H         1 7O4         0.2579
@<TRIPOS>BOND
     1    1    2 1  
     2    1    5 2  
     3    2    3 2  
     4    3    4 1  
     5    4    5 1  
     6    5    6 1  
     7    6    7 1  
     8    6   13 2  
     9    7    8 2  
    10    8    9 1  
    11    8   12 1  
    12    9   10 ar 
    13    9   11 ar 
    14   12   13 1  
    15    1   14 1  
    16    2   15 1  
    17    3   16 1  
    18    7   17 1  
    19   12   18 1  
@<TRIPOS>SUBSTRUCTURE
     1 7O4         1

