### 
### Created by X-TOOL on Mon Sep 10 21:13:32 2018
### 

@<TRIPOS>MOLECULE
5tyr_ligand
   90    95     1     0     0
SMALL
GAST_HUCK


@<TRIPOS>ATOM
      1 C1         -6.7290   17.1690   -8.5310 C.2       1 7O7         0.1855
      2 C2         -8.3370   16.9150   -6.9600 C.ar      1 7O7         0.0105
      3 C3         -9.5830   16.9370   -6.3640 C.ar      1 7O7        -0.0614
      4 C4         -9.7340   16.4830   -5.0580 C.ar      1 7O7        -0.0490
      5 C5         -8.6500   15.9960   -4.3330 C.ar      1 7O7         0.0957
      6 C6         -7.4010   15.9790   -4.9500 C.ar      1 7O7        -0.0265
      7 C7        -11.9230   14.8880    7.4500 C.3       1 7O7         0.1594
      8 N1         -8.0330   17.3060   -8.1930 N.2       1 7O7        -0.3074
      9 N2         -6.1830   17.5420   -9.8380 N.pl3     1 7O7        -0.2764
     10 C8         -9.4990   15.8830    6.4290 C.3       1 7O7        -0.0597
     11 C06       -13.2830   14.2820    1.5970 C.ar      1 7O7        -0.0603
     12 C07       -12.3560   14.4090    0.5600 C.ar      1 7O7        -0.0408
     13 C08       -11.6900   13.2820    0.0750 C.ar      1 7O7        -0.0603
     14 C10        -9.8330   13.7490    7.1350 C.3       1 7O7        -0.0399
     15 C11       -12.6620   14.5480    5.1790 C.3       1 7O7         0.0566
     16 C12        -7.4580   17.6770   -1.9700 C.3       1 7O7         0.0319
     17 C13        -6.4520   17.9260   -0.7970 C.3       1 7O7        -0.0296
     18 C14        -6.4200   19.4240   -0.4140 C.3       1 7O7        -0.0612
     19 C15        -6.6710   17.0130    0.4330 C.3       1 7O7        -0.0612
     20 C16        -9.9330   17.6210   -1.4670 C.3       1 7O7         0.0578
     21 C17       -10.3200   17.6450    0.0270 C.3       1 7O7         0.0967
     22 C19       -10.6720   16.2340    0.4850 C.3       1 7O7         0.0807
     23 C21       -10.1370   15.2950    2.8100 C.2       1 7O7         0.3202
     24 C29        -3.9920   18.6290   -9.3800 C.3       1 7O7        -0.0267
     25 C32       -12.0380   15.8020   -0.0580 C.3       1 7O7         0.0064
     26 C33       -13.5570   13.0270    2.1450 C.ar      1 7O7        -0.0686
     27 C34       -11.9630   12.0300    0.6250 C.ar      1 7O7        -0.0686
     28 C35       -12.8930   11.9030    1.6590 C.ar      1 7O7        -0.0687
     29 C36        -4.2500   18.6990  -10.9010 C.3       1 7O7        -0.0267
     30 C39        -7.2570   16.4390   -6.2590 C.ar      1 7O7         0.0513
     31 C49       -10.3040   14.1600    4.8710 C.3       1 7O7         0.0960
     32 C59       -11.5310   13.6660    5.4630 C.3       1 7O7         0.0208
     33 C69       -11.3110   13.6810    6.9380 C.3       1 7O7         0.0179
     34 C79        -4.7410   17.4960  -10.0850 C.3       1 7O7         0.0463
     35 C9         -9.3530   14.4930    6.0940 C.3       1 7O7        -0.0125
     36 N11        -8.6570   16.8540   -1.6440 N.am      1 7O7        -0.2322
     37 N20       -10.7780   16.2900    1.9290 N.am      1 7O7        -0.2550
     38 O1        -10.7080   15.9970    7.8000 O.3       1 7O7        -0.3667
     39 O10        -7.7490   14.4890   -2.2840 O.2       1 7O7        -0.1512
     40 O18       -11.4260   18.4640    0.1970 O.3       1 7O7        -0.3877
     41 O2        -12.7390   15.4630    6.4600 O.3       1 7O7        -0.3508
     42 O22        -9.3240   14.5240    2.4030 O.2       1 7O7        -0.3775
     43 O23       -10.5520   15.3410    4.1730 O.3       1 7O7        -0.2600
     44 O9        -10.1730   14.8380   -2.4570 O.2       1 7O7        -0.1512
     45 S1         -5.8340   16.4870   -7.1930 S.3       1 7O7         0.0286
     46 S8         -8.8260   15.4200   -2.6120 S.o2      1 7O7         0.0658
     47 H1        -10.4412   17.3073   -6.9130 H         1 7O7         0.0537
     48 H2        -10.7143   16.5089   -4.5960 H         1 7O7         0.0565
     49 H3         -6.5375   15.6068   -4.4106 H         1 7O7         0.0577
     50 H4        -12.5132   14.6616    8.3502 H         1 7O7         0.0910
     51 H5         -6.8200   17.8396  -10.5907 H         1 7O7         0.1935
     52 H6         -8.8429   16.1265    7.2777 H         1 7O7         0.0233
     53 H7        -10.5446   16.0861    6.7038 H         1 7O7         0.0233
     54 H8         -9.2212   16.5003    5.5620 H         1 7O7         0.0233
     55 H9        -13.7914   15.1604    1.9777 H         1 7O7         0.0557
     56 H10       -10.9647   13.3796   -0.7247 H         1 7O7         0.0557
     57 H11        -9.3972   12.7392    7.1171 H         1 7O7         0.0273
     58 H12        -9.5961   14.2337    8.0936 H         1 7O7         0.0273
     59 H13       -13.5895   13.9706    5.0509 H         1 7O7         0.0564
     60 H14       -12.4763   15.1487    4.2764 H         1 7O7         0.0564
     61 H15        -6.9119   17.1691   -2.7786 H         1 7O7         0.0480
     62 H16        -7.8098   18.6571   -2.3244 H         1 7O7         0.0480
     63 H17        -5.4540   17.6769   -1.1868 H         1 7O7         0.0311
     64 H18        -5.7081   19.5765    0.4106 H         1 7O7         0.0233
     65 H19        -7.4235   19.7426   -0.0956 H         1 7O7         0.0233
     66 H20        -6.1055   20.0184   -1.2845 H         1 7O7         0.0233
     67 H21        -6.6862   15.9613    0.1109 H         1 7O7         0.0233
     68 H22        -7.6298   17.2642    0.9101 H         1 7O7         0.0233
     69 H23        -5.8527   17.1643    1.1523 H         1 7O7         0.0233
     70 H24        -9.7933   18.6515   -1.8256 H         1 7O7         0.0504
     71 H25       -10.7341   17.1370   -2.0449 H         1 7O7         0.0504
     72 H26        -9.4779   18.0286    0.6216 H         1 7O7         0.0634
     73 H27        -9.8947   15.5222    0.1700 H         1 7O7         0.0604
     74 H28        -4.5304   19.3043   -8.6988 H         1 7O7         0.0289
     75 H29        -2.9725   18.4630   -9.0018 H         1 7O7         0.0289
     76 H30       -12.8084   16.5301    0.2360 H         1 7O7         0.0449
     77 H31       -12.0021   15.7289   -1.1550 H         1 7O7         0.0449
     78 H32       -14.2825   12.9281    2.9443 H         1 7O7         0.0599
     79 H33       -11.4512   11.1517    0.2484 H         1 7O7         0.0599
     80 H34       -13.0987   10.9274    2.0844 H         1 7O7         0.0559
     81 H35        -3.4151   18.5818  -11.6075 H         1 7O7         0.0289
     82 H36        -4.9730   19.4231  -11.3046 H         1 7O7         0.0289
     83 H37        -9.8548   13.4075    4.2062 H         1 7O7         0.0654
     84 H38       -11.7464   12.6490    5.1033 H         1 7O7         0.0356
     85 H39       -11.7359   12.7888    7.4210 H         1 7O7         0.0354
     86 H40        -4.3383   16.4786  -10.1983 H         1 7O7         0.0569
     87 H41        -8.3040   14.2497    5.8694 H         1 7O7         0.0327
     88 H42       -11.3056   17.0311    2.3442 H         1 7O7         0.1873
     89 H43       -10.1362   15.6382    8.4685 H         1 7O7         0.2125
     90 H44       -12.1489   18.1296   -0.3208 H         1 7O7         0.2100
@<TRIPOS>BOND
     1    1    8 2  
     2    1    9 1  
     3   45    1 1  
     4    3    2 ar 
     5    2    8 1  
     6   30    2 ar 
     7    4    3 ar 
     8    5    4 ar 
     9    5    6 ar 
    10   46    5 1  
    11    6   30 ar 
    12   33    7 1  
    13    7   38 1  
    14    7   41 1  
    15    9   34 1  
    16   35   10 1  
    17   12   11 ar 
    18   11   26 ar 
    19   12   13 ar 
    20   25   12 1  
    21   13   27 ar 
    22   14   33 1  
    23   35   14 1  
    24   32   15 1  
    25   15   41 1  
    26   16   17 1  
    27   36   16 1  
    28   17   18 1  
    29   17   19 1  
    30   20   21 1  
    31   36   20 1  
    32   21   22 1  
    33   21   40 1  
    34   22   25 1  
    35   22   37 1  
    36   37   23 am 
    37   23   42 2  
    38   23   43 1  
    39   29   24 1  
    40   34   24 1  
    41   26   28 ar 
    42   27   28 ar 
    43   34   29 1  
    44   30   45 1  
    45   31   32 1  
    46   31   35 1  
    47   43   31 1  
    48   32   33 1  
    49   36   46 am 
    50   46   39 2  
    51   46   44 2  
    52    3   47 1  
    53    4   48 1  
    54    6   49 1  
    55    7   50 1  
    56    9   51 1  
    57   10   52 1  
    58   10   53 1  
    59   10   54 1  
    60   11   55 1  
    61   13   56 1  
    62   14   57 1  
    63   14   58 1  
    64   15   59 1  
    65   15   60 1  
    66   16   61 1  
    67   16   62 1  
    68   17   63 1  
    69   18   64 1  
    70   18   65 1  
    71   18   66 1  
    72   19   67 1  
    73   19   68 1  
    74   19   69 1  
    75   20   70 1  
    76   20   71 1  
    77   21   72 1  
    78   22   73 1  
    79   24   74 1  
    80   24   75 1  
    81   25   76 1  
    82   25   77 1  
    83   26   78 1  
    84   27   79 1  
    85   28   80 1  
    86   29   81 1  
    87   29   82 1  
    88   31   83 1  
    89   32   84 1  
    90   33   85 1  
    91   34   86 1  
    92   35   87 1  
    93   37   88 1  
    94   38   89 1  
    95   40   90 1  
@<TRIPOS>SUBSTRUCTURE
     1 7O7         1

