### 
### Created by X-TOOL on Mon Sep 10 21:13:33 2018
### 

@<TRIPOS>MOLECULE
5tys_ligand
   90    95     1     0     0
SMALL
GAST_HUCK


@<TRIPOS>ATOM
      1 C06       -13.5520   14.5240    1.6570 C.ar      1 7OA        -0.0310
      2 C07       -12.6110   14.6530    0.6350 C.ar      1 7OA        -0.0445
      3 C08       -11.9850   13.5290    0.1060 C.ar      1 7OA        -0.0310
      4 C1         -6.7570   17.3440   -8.5140 C.2       1 7OA         0.1855
      5 C10        -9.9320   13.8710    7.2310 C.3       1 7OA        -0.0399
      6 C11       -12.8190   14.7360    5.3290 C.3       1 7OA         0.0566
      7 C12        -7.4760   17.8270   -1.8100 C.3       1 7OA         0.0319
      8 C13        -6.7110   18.1490   -0.4870 C.3       1 7OA        -0.0296
      9 C14        -7.2250   19.4900    0.0800 C.3       1 7OA        -0.0612
     10 C15        -6.8860   17.0130    0.5530 C.3       1 7OA        -0.0612
     11 C16       -10.0020   17.7690   -1.3860 C.3       1 7OA         0.0578
     12 C17       -10.4410   17.7880    0.1010 C.3       1 7OA         0.0967
     13 C19       -10.8340   16.3980    0.5990 C.3       1 7OA         0.0806
     14 C2         -8.3650   17.0050   -6.9510 C.ar      1 7OA         0.0105
     15 C21       -10.2580   15.4350    2.9290 C.2       1 7OA         0.3202
     16 C29        -3.9770   18.8170   -9.3120 C.3       1 7OA        -0.0267
     17 C3         -9.6240   16.9400   -6.3620 C.ar      1 7OA        -0.0614
     18 C32       -12.2360   16.0540    0.0820 C.3       1 7OA         0.0046
     19 C33       -13.8730   13.2560    2.1470 C.ar      1 7OA         0.1242
     20 C34       -12.3020   12.2670    0.5940 C.ar      1 7OA         0.1242
     21 C35       -13.2460   12.1250    1.6150 C.ar      1 7OA        -0.0019
     22 C36        -4.3020   19.0080  -10.8080 C.3       1 7OA        -0.0267
     23 C39        -7.2640   16.6370   -6.2150 C.ar      1 7OA         0.0513
     24 C4         -9.7710   16.5160   -5.0490 C.ar      1 7OA        -0.0490
     25 C49       -10.4980   14.2190    4.9590 C.3       1 7OA         0.0960
     26 C5         -8.6750   16.1390   -4.2890 C.ar      1 7OA         0.0957
     27 C59       -11.7130   13.8340    5.6420 C.3       1 7OA         0.0208
     28 C6         -7.4240   16.2080   -4.8910 C.ar      1 7OA        -0.0265
     29 C69       -11.4090   14.0220    7.0860 C.3       1 7OA         0.0179
     30 C7        -11.8160   15.3900    7.4010 C.3       1 7OA         0.1594
     31 C79        -4.7720   17.7530  -10.0650 C.3       1 7OA         0.0463
     32 C8         -9.1980   15.8010    6.3090 C.3       1 7OA        -0.0597
     33 C9         -9.3980   14.3890    6.0980 C.3       1 7OA        -0.0125
     34 F1        -14.7990   13.1390    3.1560 F         1 7OA        -0.1863
     35 F2        -11.6720   11.1800    0.0480 F         1 7OA        -0.1863
     36 N1         -8.0750   17.3880   -8.1960 N.2       1 7OA        -0.3074
     37 N11        -8.7100   17.0310   -1.5730 N.am      1 7OA        -0.2322
     38 N2         -6.2160   17.7270   -9.8210 N.pl3     1 7OA        -0.2764
     39 N20       -10.8900   16.4440    2.0520 N.am      1 7OA        -0.2550
     40 O1        -10.4840   16.3920    7.4810 O.3       1 7OA        -0.3667
     41 O10        -7.8730   14.5870   -2.1680 O.2       1 7OA        -0.1512
     42 O18       -11.5500   18.6040    0.2270 O.3       1 7OA        -0.3877
     43 O2        -12.6690   15.8450    6.3870 O.3       1 7OA        -0.3508
     44 O22        -9.4420   14.6610    2.5310 O.2       1 7OA        -0.3775
     45 O23       -10.6620   15.4320    4.2960 O.3       1 7OA        -0.2600
     46 O9        -10.1700   14.9690   -2.3260 O.2       1 7OA        -0.1512
     47 S1         -5.8410   16.7750   -7.1350 S.3       1 7OA         0.0286
     48 S8         -8.8570   15.6000   -2.5490 S.o2      1 7OA         0.0658
     49 H1        -14.0320   15.4042    2.0691 H         1 7OA         0.0508
     50 H2        -11.2517   13.6372   -0.6850 H         1 7OA         0.0508
     51 H3         -9.6629   12.8092    7.3313 H         1 7OA         0.0273
     52 H4         -9.5743   14.4247    8.1116 H         1 7OA         0.0273
     53 H5        -13.7874   14.2237    5.4274 H         1 7OA         0.0564
     54 H6        -12.7215   15.1436    4.3120 H         1 7OA         0.0564
     55 H7         -6.8096   17.2561   -2.4733 H         1 7OA         0.0480
     56 H8         -7.7544   18.7736   -2.2963 H         1 7OA         0.0480
     57 H9         -5.6395   18.2481   -0.7149 H         1 7OA         0.0311
     58 H10        -6.6900   19.7229    1.0125 H         1 7OA         0.0233
     59 H11        -8.3029   19.4123    0.2853 H         1 7OA         0.0233
     60 H12        -7.0483   20.2902   -0.6538 H         1 7OA         0.0233
     61 H13        -6.5143   16.0681    0.1299 H         1 7OA         0.0233
     62 H14        -7.9515   16.9077    0.8053 H         1 7OA         0.0233
     63 H15        -6.3163   17.2569    1.4618 H         1 7OA         0.0233
     64 H16        -9.8744   18.8049   -1.7334 H         1 7OA         0.0504
     65 H17       -10.7838   17.2759   -1.9823 H         1 7OA         0.0504
     66 H18        -9.6156   18.1763    0.7158 H         1 7OA         0.0634
     67 H19       -10.1045   15.6474    0.2609 H         1 7OA         0.0604
     68 H20        -4.4740   19.4433   -8.5566 H         1 7OA         0.0289
     69 H21        -2.9440   18.6106   -8.9953 H         1 7OA         0.0289
     70 H22       -10.4993   17.2236   -6.9350 H         1 7OA         0.0537
     71 H23       -12.9601   16.8027    0.4357 H         1 7OA         0.0448
     72 H24       -12.2357   16.0351   -1.0178 H         1 7OA         0.0448
     73 H25       -13.4917   11.1395    1.9939 H         1 7OA         0.0532
     74 H26        -3.5019   18.9365  -11.5595 H         1 7OA         0.0289
     75 H27        -5.0319   19.7692  -11.1208 H         1 7OA         0.0289
     76 H28       -10.7613   16.4789   -4.6096 H         1 7OA         0.0565
     77 H29       -10.1989   13.4413    4.2409 H         1 7OA         0.0654
     78 H30       -11.9835   12.7937    5.4086 H         1 7OA         0.0356
     79 H31        -6.5480   15.9219   -4.3202 H         1 7OA         0.0577
     80 H32       -11.9424   13.2951    7.7161 H         1 7OA         0.0354
     81 H33       -12.3431   15.4040    8.3664 H         1 7OA         0.0910
     82 H34        -4.3606   16.7525  -10.2644 H         1 7OA         0.0569
     83 H35        -8.4410   15.9510    7.0929 H         1 7OA         0.0233
     84 H36       -10.1461   16.2630    6.6217 H         1 7OA         0.0233
     85 H37        -8.8542   16.2665    5.3735 H         1 7OA         0.0233
     86 H38        -8.4565   13.8878    5.8291 H         1 7OA         0.0327
     87 H39        -6.8624   17.9823  -10.5812 H         1 7OA         0.1935
     88 H40       -11.3835   17.2002    2.4817 H         1 7OA         0.1873
     89 H41        -9.9015   16.0883    8.1673 H         1 7OA         0.2125
     90 H42       -11.3347   19.4782   -0.0763 H         1 7OA         0.2100
@<TRIPOS>BOND
     1    2    1 ar 
     2    1   19 ar 
     3    2    3 ar 
     4   18    2 1  
     5    3   20 ar 
     6    4   36 2  
     7    4   38 1  
     8   47    4 1  
     9    5   29 1  
    10   33    5 1  
    11   27    6 1  
    12    6   43 1  
    13    7    8 1  
    14   37    7 1  
    15    8    9 1  
    16    8   10 1  
    17   11   12 1  
    18   37   11 1  
    19   12   13 1  
    20   12   42 1  
    21   13   18 1  
    22   13   39 1  
    23   17   14 ar 
    24   23   14 ar 
    25   14   36 1  
    26   39   15 am 
    27   15   44 2  
    28   15   45 1  
    29   22   16 1  
    30   31   16 1  
    31   24   17 ar 
    32   19   21 ar 
    33   19   34 1  
    34   20   21 ar 
    35   20   35 1  
    36   31   22 1  
    37   28   23 ar 
    38   23   47 1  
    39   26   24 ar 
    40   25   27 1  
    41   25   33 1  
    42   45   25 1  
    43   26   28 ar 
    44   48   26 1  
    45   27   29 1  
    46   29   30 1  
    47   30   40 1  
    48   30   43 1  
    49   38   31 1  
    50   33   32 1  
    51   37   48 am 
    52   48   41 2  
    53   48   46 2  
    54    1   49 1  
    55    3   50 1  
    56    5   51 1  
    57    5   52 1  
    58    6   53 1  
    59    6   54 1  
    60    7   55 1  
    61    7   56 1  
    62    8   57 1  
    63    9   58 1  
    64    9   59 1  
    65    9   60 1  
    66   10   61 1  
    67   10   62 1  
    68   10   63 1  
    69   11   64 1  
    70   11   65 1  
    71   12   66 1  
    72   13   67 1  
    73   16   68 1  
    74   16   69 1  
    75   17   70 1  
    76   18   71 1  
    77   18   72 1  
    78   21   73 1  
    79   22   74 1  
    80   22   75 1  
    81   24   76 1  
    82   25   77 1  
    83   27   78 1  
    84   28   79 1  
    85   29   80 1  
    86   30   81 1  
    87   31   82 1  
    88   32   83 1  
    89   32   84 1  
    90   32   85 1  
    91   33   86 1  
    92   38   87 1  
    93   39   88 1  
    94   40   89 1  
    95   42   90 1  
@<TRIPOS>SUBSTRUCTURE
     1 7OA         1

