### 
### Created by X-TOOL on Mon Sep 10 21:13:32 2018
### 

@<TRIPOS>MOLECULE
5tz3_ligand
   51    55     1     0     0
SMALL
GAST_HUCK


@<TRIPOS>ATOM
      1 C5          5.6980    3.8130    2.3270 C.3       1 7OM         0.0399
      2 C6          6.3030    4.6390    1.2200 C.3       1 7OM        -0.0289
      3 C7          7.7450    4.2530    0.9850 C.3       1 7OM        -0.0288
      4 N12         6.4760    4.3910    8.0770 N.2       1 7OM        -0.3044
      5 C13         7.5470    4.9040    7.3990 C.2       1 7OM         0.0417
      6 C15         4.6290    3.0270    4.7680 C.2       1 7OM         0.0251
      7 C20         9.2390    7.1880    4.3570 C.ar      1 7OM         0.0675
      8 C21         9.7330    7.4590    5.6120 C.ar      1 7OM        -0.0389
      9 C22         9.8870    8.7630    6.0290 C.ar      1 7OM        -0.0345
     10 C24         9.0550    9.5090    3.9260 C.ar      1 7OM        -0.0586
     11 C26        10.3770    9.0540    7.2830 C.ar      1 7OM        -0.0625
     12 C28        10.1870   11.3840    6.8400 C.ar      1 7OM        -0.0664
     13 C27        10.5270   10.3590    7.6890 C.ar      1 7OM        -0.0671
     14 C29         9.6940   11.0980    5.5860 C.ar      1 7OM        -0.0603
     15 C25         8.8970    8.2120    3.5070 C.ar      1 7OM        -0.0336
     16 C23         9.5430    9.7940    5.1790 C.ar      1 7OM        -0.0275
     17 C11         5.7410    3.8900    7.1080 C.2       1 7OM         0.2115
     18 C18         5.7970    3.6610    4.7190 C.2       1 7OM         0.2286
     19 C16         4.0310    2.8500    6.0940 C.2       1 7OM         0.0081
     20 C1          8.9490    5.6690    2.5760 C.2       1 7OM         0.2096
     21 C3          7.8870    3.6600    3.4630 C.3       1 7OM         0.0596
     22 C2          8.5700    4.2560    2.2520 C.3       1 7OM         0.0763
     23 C19         2.7110    2.1440    6.1510 C.3       1 7OM        -0.0138
     24 N14         7.5050    4.7390    6.0750 N.2       1 7OM        -0.1834
     25 N17         4.5590    3.2540    7.2000 N.2       1 7OM        -0.2830
     26 N10         6.3490    4.0870    5.9000 N.pl3     1 7OM        -0.0869
     27 N4          6.4640    3.8960    3.5500 N.pl3     1 7OM        -0.2527
     28 N8          9.0750    5.8700    3.9250 N.am      1 7OM        -0.2328
     29 O9          9.1280    6.5260    1.7230 O.2       1 7OM        -0.3840
     30 H1          5.6585    2.7622    2.0042 H         1 7OM         0.0538
     31 H2          4.6779    4.1751    2.5225 H         1 7OM         0.0538
     32 H3          6.2555    5.7025    1.4971 H         1 7OM         0.0287
     33 H4          5.7311    4.4752    0.2948 H         1 7OM         0.0287
     34 H5          8.1884    4.9677    0.2761 H         1 7OM         0.0294
     35 H6          7.7715    3.2423    0.5516 H         1 7OM         0.0294
     36 H7          8.3713    5.4086    7.9009 H         1 7OM         0.0851
     37 H8          4.1411    2.6576    3.8672 H         1 7OM         0.0399
     38 H9         10.0018    6.6443    6.2746 H         1 7OM         0.0435
     39 H10         8.7909   10.3214    3.2586 H         1 7OM         0.0614
     40 H11        10.6466    8.2475    7.9553 H         1 7OM         0.0576
     41 H12        10.3062   12.4141    7.1557 H         1 7OM         0.0573
     42 H13        10.9131   10.5788    8.6778 H         1 7OM         0.0603
     43 H14         9.4235   11.9062    4.9162 H         1 7OM         0.0612
     44 H15         8.5075    7.9980    2.5183 H         1 7OM         0.0569
     45 H16         8.3572    4.0856    4.3618 H         1 7OM         0.0566
     46 H17         8.0502    2.5723    3.4438 H         1 7OM         0.0566
     47 H18         9.4828    3.6733    2.0591 H         1 7OM         0.0565
     48 H19         2.3755    2.0778    7.1965 H         1 7OM         0.0456
     49 H20         2.8186    1.1311    5.7357 H         1 7OM         0.0456
     50 H21         1.9696    2.7046    5.5628 H         1 7OM         0.0456
     51 H22         9.0507    5.1074    4.5714 H         1 7OM         0.2268
@<TRIPOS>BOND
     1    2    1 1  
     2    1   27 1  
     3    3    2 1  
     4   22    3 1  
     5    4    5 1  
     6   17    4 2  
     7    5   24 2  
     8   18    6 2  
     9    6   19 1  
    10    7    8 ar 
    11    7   15 ar 
    12   28    7 1  
    13    8    9 ar 
    14    9   11 ar 
    15    9   16 ar 
    16   15   10 ar 
    17   10   16 ar 
    18   11   13 ar 
    19   13   12 ar 
    20   14   12 ar 
    21   16   14 ar 
    22   17   25 1  
    23   26   17 1  
    24   18   26 1  
    25   27   18 1  
    26   19   23 1  
    27   19   25 2  
    28   20   22 1  
    29   20   28 am 
    30   20   29 2  
    31   22   21 1  
    32   21   27 1  
    33   24   26 1  
    34    1   30 1  
    35    1   31 1  
    36    2   32 1  
    37    2   33 1  
    38    3   34 1  
    39    3   35 1  
    40    5   36 1  
    41    6   37 1  
    42    8   38 1  
    43   10   39 1  
    44   11   40 1  
    45   12   41 1  
    46   13   42 1  
    47   14   43 1  
    48   15   44 1  
    49   21   45 1  
    50   21   46 1  
    51   22   47 1  
    52   23   48 1  
    53   23   49 1  
    54   23   50 1  
    55   28   51 1  
@<TRIPOS>SUBSTRUCTURE
     1 7OM         1

