### 
### Created by X-TOOL on Mon Sep 10 21:13:31 2018
### 

@<TRIPOS>MOLECULE
5tza_ligand
   49    53     1     0     0
SMALL
GAST_HUCK


@<TRIPOS>ATOM
      1 C5          8.5440    5.8970    8.7990 C.2       1 7OG         0.2165
      2 C8         10.3740    6.8310    9.2520 C.2       1 7OG         0.0433
      3 C10         9.8850    5.6490    5.3420 C.3       1 7OG         0.0653
      4 N12        10.8490    7.1670    3.7650 N.am      1 7OG        -0.2691
      5 C13         9.8690    7.0740    4.8140 C.3       1 7OG         0.0551
      6 C15        10.6890    4.7770    3.1490 C.3       1 7OG        -0.0294
      7 C20        12.6350    9.6870    6.9540 C.ar      1 7OG        -0.0116
      8 C21        12.5000   11.0180    6.6250 C.ar      1 7OG        -0.0152
      9 C22        12.1390   11.3880    5.3480 C.ar      1 7OG        -0.0509
     10 C24         5.5330    4.2490    7.5780 C.3       1 7OG        -0.0109
     11 C26        13.2130   10.2960    9.1940 C.ar      1 7OG        -0.0596
     12 C28        12.7210   11.9800    7.5900 C.ar      1 7OG        -0.0524
     13 C27        13.0790   11.6270    8.8710 C.ar      1 7OG        -0.0598
     14 C25        12.9890    9.3360    8.2350 C.ar      1 7OG        -0.0517
     15 C23        11.9160   10.4430    4.3760 C.ar      1 7OG        -0.0432
     16 C19        12.4060    8.7260    5.9910 C.ar      1 7OG        -0.0329
     17 C18        12.0490    9.1150    4.7200 C.ar      1 7OG         0.0505
     18 C2          7.6800    4.9300    6.3850 C.2       1 7OG         0.0117
     19 C1          8.8980    5.4930    6.4650 C.2       1 7OG         0.1414
     20 C3          6.8970    4.8760    7.6340 C.2       1 7OG         0.0182
     21 C16        11.8120    8.1470    3.6360 C.2       1 7OG         0.2074
     22 C14         9.6640    4.6260    4.2390 C.3       1 7OG        -0.0272
     23 C11        10.7250    6.2170    2.6790 C.3       1 7OG         0.0339
     24 N7          9.1930    6.4380    9.8120 N.2       1 7OG        -0.3017
     25 N9         10.4900    6.5650    7.9500 N.2       1 7OG        -0.1830
     26 N4          7.3180    5.3380    8.7690 N.2       1 7OG        -0.2703
     27 N6          9.3130    5.9740    7.6750 N.pl3     1 7OG        -0.1059
     28 O17        12.5410    8.2740    2.6580 O.2       1 7OG        -0.3847
     29 H1         11.1598    7.3231    9.8232 H         1 7OG         0.0857
     30 H2         10.8867    5.4640    5.7571 H         1 7OG         0.0611
     31 H3         10.1199    7.7755    5.6233 H         1 7OG         0.0560
     32 H4          8.8719    7.3143    4.4165 H         1 7OG         0.0560
     33 H5         10.4244    4.1232    2.3049 H         1 7OG         0.0287
     34 H6         11.6789    4.4937    3.5359 H         1 7OG         0.0287
     35 H7         12.0294   12.4391    5.1068 H         1 7OG         0.0627
     36 H8          5.3272    3.9100    6.5520 H         1 7OG         0.0461
     37 H9          4.7766    4.9891    7.8783 H         1 7OG         0.0461
     38 H10         5.4964    3.3888    8.2626 H         1 7OG         0.0461
     39 H11        13.4939   10.0055   10.1999 H         1 7OG         0.0622
     40 H12        12.6110   13.0279    7.3352 H         1 7OG         0.0626
     41 H13        13.2540   12.3912    9.6196 H         1 7OG         0.0630
     42 H14        13.0930    8.2883    8.4928 H         1 7OG         0.0636
     43 H15        11.6434   10.7334    3.3678 H         1 7OG         0.0652
     44 H16        12.5063    7.6742    6.2332 H         1 7OG         0.0695
     45 H17         7.2917    4.5346    5.4475 H         1 7OG         0.0478
     46 H18         8.6607    4.7695    3.8114 H         1 7OG         0.0304
     47 H19         9.7395    3.6150    4.6659 H         1 7OG         0.0304
     48 H20        11.5841    6.3433    2.0038 H         1 7OG         0.0522
     49 H21         9.7945    6.4300    2.1323 H         1 7OG         0.0522
@<TRIPOS>BOND
     1    1   24 2  
     2    1   26 1  
     3   27    1 1  
     4   24    2 1  
     5    2   25 2  
     6    3    5 1  
     7   19    3 1  
     8    3   22 1  
     9    5    4 1  
    10    4   21 am 
    11    4   23 1  
    12   22    6 1  
    13    6   23 1  
    14    7    8 ar 
    15    7   14 ar 
    16   16    7 ar 
    17    9    8 ar 
    18    8   12 ar 
    19   15    9 ar 
    20   20   10 1  
    21   11   13 ar 
    22   14   11 ar 
    23   12   13 ar 
    24   17   15 ar 
    25   17   16 ar 
    26   21   17 1  
    27   19   18 2  
    28   18   20 1  
    29   19   27 1  
    30   20   26 2  
    31   21   28 2  
    32   25   27 1  
    33    2   29 1  
    34    3   30 1  
    35    5   31 1  
    36    5   32 1  
    37    6   33 1  
    38    6   34 1  
    39    9   35 1  
    40   10   36 1  
    41   10   37 1  
    42   10   38 1  
    43   11   39 1  
    44   12   40 1  
    45   13   41 1  
    46   14   42 1  
    47   15   43 1  
    48   16   44 1  
    49   18   45 1  
    50   22   46 1  
    51   22   47 1  
    52   23   48 1  
    53   23   49 1  
@<TRIPOS>SUBSTRUCTURE
     1 7OG         1

