### 
### Created by X-TOOL on Mon Sep 10 21:13:33 2018
### 

@<TRIPOS>MOLECULE
5tzc_ligand
   43    46     1     0     0
SMALL
GAST_HUCK


@<TRIPOS>ATOM
      1 N3          5.5760    3.4000    8.6040 N.2       1 7OJ        -0.2703
      2 C4          6.8040    3.9980    8.6310 C.2       1 7OJ         0.2165
      3 C6          7.1100    3.7140    6.2280 C.2       1 7OJ         0.1416
      4 C8          8.5980    4.9480    9.0620 C.2       1 7OJ         0.0433
      5 C10         3.8380    2.3760    7.3610 C.3       1 7OJ        -0.0109
      6 C13         8.8940    3.2580    2.8600 C.3       1 7OJ         0.2718
      7 C17        10.1080    6.5200    3.6500 C.2       1 7OJ         0.2054
      8 C20        10.7300    6.7880    6.0250 C.ar      1 7OJ        -0.0340
      9 C21        10.9840    7.6990    7.0380 C.ar      1 7OJ         0.0519
     10 C22        10.6000    9.5920    5.6140 C.ar      1 7OJ        -0.0195
     11 C23        10.3310    8.7240    4.5850 C.ar      1 7OJ        -0.0410
     12 C18        10.3870    7.3440    4.8060 C.ar      1 7OJ         0.0487
     13 C27        10.9220    9.0570    6.8440 C.ar      1 7OJ         0.1477
     14 C1          5.9180    3.1250    6.1450 C.2       1 7OJ         0.0117
     15 C2          5.1920    3.0090    7.4250 C.2       1 7OJ         0.0182
     16 C12         7.7850    3.0730    3.8830 C.3       1 7OJ         0.0367
     17 C16         8.0530    5.4090    4.6270 C.3       1 7OJ         0.0555
     18 C14         9.0120    4.7290    2.4570 C.3       1 7OJ         0.0971
     19 C11         8.0600    3.9540    5.0920 C.3       1 7OJ         0.0708
     20 N7          7.4640    4.5070    9.6500 N.2       1 7OJ        -0.3017
     21 N9          8.6960    4.7380    7.7550 N.2       1 7OJ        -0.1830
     22 N5          7.5340    4.1400    7.4660 N.pl3     1 7OJ        -0.1059
     23 N15         9.0770    5.5930    3.6100 N.am      1 7OJ        -0.2638
     24 O19        10.8200    6.8170    2.7180 O.2       1 7OJ        -0.3863
     25 F28        11.1920    9.8280    7.9220 F         1 7OJ        -0.1767
     26 F25        10.1590    2.7990    3.2410 F         1 7OJ        -0.2032
     27 F26         8.4480    2.5040    1.8160 F         1 7OJ        -0.2032
     28 BR24       11.4550    7.1980    8.7800 Br        1 7OJ        -0.0501
     29 H1          9.3847    5.4460    9.6268 H         1 7OJ         0.0857
     30 H2          3.6176    2.0858    6.3231 H         1 7OJ         0.0461
     31 H3          3.0808    3.0937    7.7096 H         1 7OJ         0.0461
     32 H4          3.8200    1.4830    8.0031 H         1 7OJ         0.0461
     33 H5         10.7955    5.7167    6.1771 H         1 7OJ         0.0688
     34 H6         10.5606   10.6649    5.4645 H         1 7OJ         0.0623
     35 H7         10.0758    9.1072    3.6036 H         1 7OJ         0.0683
     36 H8          5.5103    2.7572    5.2046 H         1 7OJ         0.0478
     37 H9          7.7480    2.0196    4.1975 H         1 7OJ         0.0361
     38 H10         6.8212    3.3559    3.4346 H         1 7OJ         0.0361
     39 H11         8.2613    6.0691    5.4819 H         1 7OJ         0.0560
     40 H12         7.0675    5.6553    4.2050 H         1 7OJ         0.0560
     41 H13         8.1348    5.0050    1.8534 H         1 7OJ         0.0581
     42 H14         9.9255    4.8629    1.8590 H         1 7OJ         0.0581
     43 H15         9.0694    3.7179    5.4600 H         1 7OJ         0.0613
@<TRIPOS>BOND
     1    2    1 1  
     2   15    1 2  
     3    2   20 2  
     4   22    2 1  
     5    3   14 2  
     6   19    3 1  
     7    3   22 1  
     8   20    4 1  
     9    4   21 2  
    10   15    5 1  
    11   16    6 1  
    12    6   18 1  
    13    6   26 1  
    14    6   27 1  
    15    7   12 1  
    16   23    7 am 
    17    7   24 2  
    18    8    9 ar 
    19   12    8 ar 
    20    9   13 ar 
    21    9   28 1  
    22   11   10 ar 
    23   10   13 ar 
    24   12   11 ar 
    25   13   25 1  
    26   14   15 1  
    27   19   16 1  
    28   17   19 1  
    29   17   23 1  
    30   18   23 1  
    31   21   22 1  
    32    4   29 1  
    33    5   30 1  
    34    5   31 1  
    35    5   32 1  
    36    8   33 1  
    37   10   34 1  
    38   11   35 1  
    39   14   36 1  
    40   16   37 1  
    41   16   38 1  
    42   17   39 1  
    43   17   40 1  
    44   18   41 1  
    45   18   42 1  
    46   19   43 1  
@<TRIPOS>SUBSTRUCTURE
     1 7OJ         1

