### 
### Created by X-TOOL on Mon Sep 10 21:13:34 2018
### 

@<TRIPOS>MOLECULE
5tzh_ligand
   43    46     1     0     0
SMALL
GAST_HUCK


@<TRIPOS>ATOM
      1 N3          4.8710    3.7690    6.8500 N.2       1 7OP        -0.2703
      2 C4          6.0610    4.3950    6.8280 C.2       1 7OP         0.2165
      3 C6          6.3210    4.0730    4.4710 C.2       1 7OP         0.1416
      4 C8          7.8500    5.4180    7.2190 C.2       1 7OP         0.0433
      5 C10         3.1080    2.6200    5.7060 C.3       1 7OP        -0.0109
      6 C13         8.1270    3.5370    1.1200 C.3       1 7OP         0.2718
      7 C17         9.0430    6.9810    1.5330 C.2       1 7OP         0.2048
      8 C20         9.6560    7.0650    3.8840 C.ar      1 7OP        -0.0437
      9 C21         9.9490    7.7930    5.0090 C.ar      1 7OP        -0.0223
     10 C22         9.6210    9.8330    3.7870 C.ar      1 7OP        -0.0223
     11 C26         9.9280    9.1660    4.9480 C.ar      1 7OP         0.1375
     12 C23         9.3260    9.1140    2.6540 C.ar      1 7OP        -0.0437
     13 C18         9.3490    7.7440    2.7320 C.ar      1 7OP         0.0459
     14 C1          5.1450    3.4430    4.4470 C.2       1 7OP         0.0117
     15 C2          4.4300    3.3210    5.7240 C.2       1 7OP         0.0182
     16 C12         7.0780    3.2680    2.1780 C.3       1 7OP         0.0367
     17 C16         7.3500    5.7310    2.8510 C.3       1 7OP         0.0555
     18 C14         8.1580    4.9630    0.6440 C.3       1 7OP         0.0971
     19 C11         7.1990    4.2890    3.2900 C.3       1 7OP         0.0708
     20 N7          6.7230    4.9370    7.8250 N.2       1 7OP        -0.3017
     21 N9          7.9180    5.1990    5.9070 N.2       1 7OP        -0.1830
     22 N5          6.7690    4.5470    5.6730 N.pl3     1 7OP        -0.1059
     23 N15         8.2430    5.8900    1.7280 N.am      1 7OP        -0.2639
     24 O19         9.5060    7.3350    0.4600 O.2       1 7OP        -0.3864
     25 F27        10.2160    9.8680    6.0550 F         1 7OP        -0.1794
     26 F24         9.3480    3.2070    1.6150 F         1 7OP        -0.2032
     27 F25         7.9290    2.7620    0.0270 F         1 7OP        -0.2032
     28 H1          8.6326    5.9404    7.7672 H         1 7OP         0.0857
     29 H2          2.8760    2.3012    4.6791 H         1 7OP         0.0461
     30 H3          2.3248    3.3050    6.0630 H         1 7OP         0.0461
     31 H4          3.1514    1.7385    6.3625 H         1 7OP         0.0461
     32 H5          9.6667    5.9812    3.9046 H         1 7OP         0.0659
     33 H6         10.1948    7.2903    5.9374 H         1 7OP         0.0616
     34 H7          9.6116   10.9167    3.7650 H         1 7OP         0.0616
     35 H8          9.0818    9.6150    1.7242 H         1 7OP         0.0659
     36 H9          4.7344    3.0380    3.5232 H         1 7OP         0.0478
     37 H10         7.2256    2.2591    2.5907 H         1 7OP         0.0361
     38 H11         6.0774    3.3367    1.7263 H         1 7OP         0.0361
     39 H12         7.7429    6.3151    3.6962 H         1 7OP         0.0560
     40 H13         6.3594    6.1165    2.5679 H         1 7OP         0.0560
     41 H14         7.2393    5.1668    0.0743 H         1 7OP         0.0581
     42 H15         9.0325    5.1000   -0.0091 H         1 7OP         0.0581
     43 H16         8.1956    4.0658    3.6986 H         1 7OP         0.0613
@<TRIPOS>BOND
     1    2    1 1  
     2   15    1 2  
     3    2   20 2  
     4   22    2 1  
     5    3   14 2  
     6   19    3 1  
     7    3   22 1  
     8   20    4 1  
     9    4   21 2  
    10   15    5 1  
    11   16    6 1  
    12    6   18 1  
    13    6   26 1  
    14    6   27 1  
    15    7   13 1  
    16   23    7 am 
    17    7   24 2  
    18    8    9 ar 
    19   13    8 ar 
    20    9   11 ar 
    21   10   11 ar 
    22   12   10 ar 
    23   11   25 1  
    24   13   12 ar 
    25   14   15 1  
    26   19   16 1  
    27   17   19 1  
    28   17   23 1  
    29   18   23 1  
    30   21   22 1  
    31    4   28 1  
    32    5   29 1  
    33    5   30 1  
    34    5   31 1  
    35    8   32 1  
    36    9   33 1  
    37   10   34 1  
    38   12   35 1  
    39   14   36 1  
    40   16   37 1  
    41   16   38 1  
    42   17   39 1  
    43   17   40 1  
    44   18   41 1  
    45   18   42 1  
    46   19   43 1  
@<TRIPOS>SUBSTRUCTURE
     1 7OP         1

