### 
### Created by X-TOOL on Mon Sep 10 21:13:31 2018
### 

@<TRIPOS>MOLECULE
5tzo_ligand
   54    56     1     0     0
SMALL
GAST_HUCK


@<TRIPOS>ATOM
      1 C10       -30.2360    7.8030  -16.1040 C.3       1 7V7        -0.0291
      2 C13       -32.5660    7.0470  -17.7210 C.3       1 7V7         0.0213
      3 C15       -33.2280    6.7190  -20.1140 C.ar      1 7V7        -0.0602
      4 C17       -35.5490    6.5030  -20.7300 C.ar      1 7V7        -0.0687
      5 C20       -28.1940    9.6810  -12.7730 C.ar      1 7V7         0.0694
      6 C21       -27.6040    8.5490  -12.2000 C.ar      1 7V7        -0.0411
      7 C22       -27.9420    8.1670  -10.8910 C.ar      1 7V7        -0.0755
      8 C24       -29.4250   10.0230  -10.7100 C.ar      1 7V7        -0.0755
      9 C02       -26.7670   10.9030  -14.3820 C.2       1 7V7         0.2060
     10 C03       -25.8540   11.3680  -13.2760 C.3       1 7V7         0.0405
     11 C04       -25.2110   12.6970  -13.6490 C.3       1 7V7        -0.0477
     12 C06       -28.8060    9.6470  -15.1950 C.3       1 7V7         0.0761
     13 C07       -29.9970   10.5860  -15.3590 C.3       1 7V7         0.0160
     14 C08       -30.8980   10.1860  -16.5040 C.3       1 7V7        -0.0291
     15 C11       -29.3700    8.2280  -14.9420 C.3       1 7V7         0.0160
     16 C12       -31.9300    8.4330  -17.8040 C.3       1 7V7        -0.0223
     17 C14       -33.5970    6.8530  -18.7750 C.ar      1 7V7        -0.0380
     18 C16       -34.2060    6.5430  -21.0880 C.ar      1 7V7        -0.0686
     19 C18       -35.9140    6.6390  -19.3970 C.ar      1 7V7        -0.0686
     20 C19       -34.9390    6.8150  -18.4210 C.ar      1 7V7        -0.0602
     21 C23       -28.8490    8.9000  -10.1380 C.ar      1 7V7        -0.0772
     22 C25       -29.1040   10.4000  -12.0100 C.ar      1 7V7        -0.0411
     23 N05       -27.8790   10.0970  -14.1140 N.am      1 7V7        -0.2166
     24 N09       -31.3390    8.7640  -16.4540 N.4       1 7V7         0.2368
     25 O01       -26.4860   11.2570  -15.5210 O.2       1 7V7        -0.3847
     26 H1        -30.6930    6.8342  -15.8537 H         1 7V7         0.0815
     27 H2        -29.5906    7.6868  -16.9871 H         1 7V7         0.0815
     28 H3        -33.0379    6.9294  -16.7344 H         1 7V7         0.0478
     29 H4        -31.7813    6.2862  -17.8452 H         1 7V7         0.0478
     30 H5        -32.1815    6.7519  -20.3949 H         1 7V7         0.0557
     31 H6        -36.3097    6.3659  -21.4900 H         1 7V7         0.0559
     32 H7        -26.8860    7.9667  -12.7662 H         1 7V7         0.0502
     33 H8        -27.4857    7.2828  -10.4607 H         1 7V7         0.0577
     34 H9        -30.1325   10.6134  -10.1390 H         1 7V7         0.0577
     35 H10       -25.0672   10.6165  -13.1141 H         1 7V7         0.0505
     36 H11       -26.4372   11.4933  -12.3518 H         1 7V7         0.0505
     37 H12       -24.5481   13.0249  -12.8347 H         1 7V7         0.0254
     38 H13       -25.9952   13.4515  -13.8097 H         1 7V7         0.0254
     39 H14       -24.6252   12.5747  -14.5720 H         1 7V7         0.0254
     40 H15       -28.2370    9.6341  -16.1363 H         1 7V7         0.0626
     41 H16       -29.6211   11.6029  -15.5451 H         1 7V7         0.0344
     42 H17       -30.5840   10.5765  -14.4288 H         1 7V7         0.0344
     43 H18       -30.3537   10.3473  -17.4462 H         1 7V7         0.0815
     44 H19       -31.7916   10.8271  -16.4824 H         1 7V7         0.0815
     45 H20       -28.5364    7.5191  -14.8302 H         1 7V7         0.0344
     46 H21       -29.9723    8.2340  -14.0216 H         1 7V7         0.0344
     47 H22       -32.6948    9.1782  -18.0682 H         1 7V7         0.0838
     48 H23       -31.1379    8.4339  -18.5673 H         1 7V7         0.0838
     49 H24       -33.9203    6.4368  -22.1283 H         1 7V7         0.0599
     50 H25       -36.9607    6.6079  -19.1168 H         1 7V7         0.0599
     51 H26       -35.2274    6.9227  -17.3816 H         1 7V7         0.0557
     52 H27       -29.1006    8.6011   -9.1269 H         1 7V7         0.0487
     53 H28       -29.5762   11.2770  -12.4379 H         1 7V7         0.0502
     54 H29       -32.0564    8.6772  -15.7513 H         1 7V7         0.2035
@<TRIPOS>BOND
     1    1   15 1  
     2   24    1 1  
     3   16    2 1  
     4    2   17 1  
     5   17    3 ar 
     6    3   18 ar 
     7   18    4 ar 
     8    4   19 ar 
     9    5    6 ar 
    10    5   22 ar 
    11   23    5 1  
    12    6    7 ar 
    13    7   21 ar 
    14    8   21 ar 
    15   22    8 ar 
    16    9   10 1  
    17   23    9 am 
    18    9   25 2  
    19   10   11 1  
    20   13   12 1  
    21   15   12 1  
    22   12   23 1  
    23   14   13 1  
    24   24   14 1  
    25   16   24 1  
    26   17   20 ar 
    27   19   20 ar 
    28    1   26 1  
    29    1   27 1  
    30    2   28 1  
    31    2   29 1  
    32    3   30 1  
    33    4   31 1  
    34    6   32 1  
    35    7   33 1  
    36    8   34 1  
    37   10   35 1  
    38   10   36 1  
    39   11   37 1  
    40   11   38 1  
    41   11   39 1  
    42   12   40 1  
    43   13   41 1  
    44   13   42 1  
    45   14   43 1  
    46   14   44 1  
    47   15   45 1  
    48   15   46 1  
    49   16   47 1  
    50   16   48 1  
    51   18   49 1  
    52   19   50 1  
    53   20   51 1  
    54   21   52 1  
    55   22   53 1  
    56   24   54 1  
@<TRIPOS>SUBSTRUCTURE
     1 7V7         1

