### 
### Created by X-TOOL on Mon Sep 10 21:13:32 2018
### 

@<TRIPOS>MOLECULE
5tzw_ligand
   43    46     1     0     0
SMALL
GAST_HUCK


@<TRIPOS>ATOM
      1 N3          4.6990    3.2330    7.3070 N.2       1 7P4        -0.2703
      2 C4          5.9090    3.8090    7.3180 C.2       1 7P4         0.2165
      3 C6          6.1810    3.4850    4.9630 C.2       1 7P4         0.1416
      4 C8          7.7290    4.7540    7.7430 C.2       1 7P4         0.0433
      5 C10         2.9110    2.1640    6.1350 C.3       1 7P4        -0.0109
      6 C13         7.9330    3.0070    1.5880 C.3       1 7P4         0.2718
      7 C17         9.1140    6.2940    2.3590 C.2       1 7P4         0.2039
      8 C20         9.6650    6.4520    4.7710 C.ar      1 7P4        -0.0100
      9 C21         9.8880    7.2380    5.8820 C.ar      1 7P4         0.1709
     10 C22         9.4940    9.2120    4.5980 C.ar      1 7P4        -0.0239
     11 C26         9.8030    8.6070    5.7930 C.ar      1 7P4         0.1705
     12 C23         9.2670    8.4390    3.4840 C.ar      1 7P4        -0.0477
     13 C18         9.3500    7.0710    3.5820 C.ar      1 7P4         0.0441
     14 C1          4.9780    2.9080    4.8940 C.2       1 7P4         0.0117
     15 C2          4.2560    2.8090    6.1690 C.2       1 7P4         0.0182
     16 C12         6.9150    2.7350    2.6650 C.3       1 7P4         0.0367
     17 C16         7.1700    5.1510    3.4110 C.3       1 7P4         0.0555
     18 C14         8.0060    4.4680    1.2090 C.3       1 7P4         0.0971
     19 C11         7.0970    3.6940    3.8180 C.3       1 7P4         0.0708
     20 N7          6.5770    4.3180    8.3290 N.2       1 7P4        -0.3017
     21 N9          7.8040    4.5360    6.4310 N.2       1 7P4        -0.1830
     22 N5          6.6380    3.9300    6.1730 N.pl3     1 7P4        -0.1059
     23 N15         8.1220    5.3370    2.3530 N.am      1 7P4        -0.2639
     24 O19         9.8210    6.5430    1.3950 O.2       1 7P4        -0.3864
     25 F27        10.0250    9.3640    6.8870 F         1 7P4        -0.1802
     26 F28        10.1950    6.6830    7.0700 F         1 7P4        -0.1831
     27 F24         9.1640    2.5890    2.0050 F         1 7P4        -0.2032
     28 F25         7.6350    2.2610    0.4920 F         1 7P4        -0.2032
     29 H1          8.5249    5.2420    8.3037 H         1 7P4         0.0857
     30 H2          2.6765    1.8592    5.1044 H         1 7P4         0.0461
     31 H3          2.1526    2.8786    6.4875 H         1 7P4         0.0461
     32 H4          2.9122    1.2787    6.7879 H         1 7P4         0.0461
     33 H5          9.7360    5.3721    4.8323 H         1 7P4         0.0644
     34 H6          9.4297   10.2922    4.5344 H         1 7P4         0.0606
     35 H7          9.0245    8.9051    2.5358 H         1 7P4         0.0625
     36 H8          4.5621    2.5372    3.9583 H         1 7P4         0.0478
     37 H9          7.0388    1.7042    3.0284 H         1 7P4         0.0361
     38 H10         5.9047    2.8579    2.2478 H         1 7P4         0.0361
     39 H11         7.4739    5.7535    4.2797 H         1 7P4         0.0560
     40 H12         6.1785    5.4793    3.0659 H         1 7P4         0.0560
     41 H13         7.0925    4.7339    0.6570 H         1 7P4         0.0581
     42 H14         8.8826    4.6199    0.5621 H         1 7P4         0.0581
     43 H15         8.0967    3.4590    4.2120 H         1 7P4         0.0613
@<TRIPOS>BOND
     1    2    1 1  
     2   15    1 2  
     3    2   20 2  
     4   22    2 1  
     5    3   14 2  
     6   19    3 1  
     7    3   22 1  
     8   20    4 1  
     9    4   21 2  
    10   15    5 1  
    11   16    6 1  
    12    6   18 1  
    13    6   27 1  
    14    6   28 1  
    15    7   13 1  
    16   23    7 am 
    17    7   24 2  
    18    8    9 ar 
    19   13    8 ar 
    20    9   11 ar 
    21    9   26 1  
    22   10   11 ar 
    23   12   10 ar 
    24   11   25 1  
    25   13   12 ar 
    26   14   15 1  
    27   19   16 1  
    28   17   19 1  
    29   17   23 1  
    30   18   23 1  
    31   21   22 1  
    32    4   29 1  
    33    5   30 1  
    34    5   31 1  
    35    5   32 1  
    36    8   33 1  
    37   10   34 1  
    38   12   35 1  
    39   14   36 1  
    40   16   37 1  
    41   16   38 1  
    42   17   39 1  
    43   17   40 1  
    44   18   41 1  
    45   18   42 1  
    46   19   43 1  
@<TRIPOS>SUBSTRUCTURE
     1 7P4         1

