### 
### Created by X-TOOL on Mon Sep 10 21:13:34 2018
### 

@<TRIPOS>MOLECULE
5tzx_ligand
   43    46     1     0     0
SMALL
GAST_HUCK


@<TRIPOS>ATOM
      1 N3          4.6960    3.4730    7.0440 N.2       1 7OY        -0.2703
      2 C4          5.9160    4.0320    7.0920 C.2       1 7OY         0.2165
      3 C6          6.2210    3.8710    4.7170 C.2       1 7OY         0.1416
      4 C8          7.7430    4.9280    7.6120 C.2       1 7OY         0.0433
      5 C10         2.8980    2.5030    5.7800 C.3       1 7OY        -0.0109
      6 C13         8.1230    3.3550    1.3960 C.3       1 7OY         0.2718
      7 C17         9.3310    6.6350    1.9990 C.2       1 7OY         0.2048
      8 C20         9.9110    6.8580    4.4060 C.ar      1 7OY        -0.0297
      9 C21        10.1870    7.7100    5.4560 C.ar      1 7OY         0.0792
     10 C22         9.8810    9.6250    4.0470 C.ar      1 7OY        -0.0218
     11 C23         9.6110    8.7990    2.9820 C.ar      1 7OY        -0.0436
     12 C18         9.6240    7.4380    3.1840 C.ar      1 7OY         0.0464
     13 C27        10.1680    9.0690    5.2660 C.ar      1 7OY         0.1517
     14 C1          5.0090    3.3030    4.6160 C.2       1 7OY         0.0117
     15 C2          4.2600    3.1280    5.8740 C.2       1 7OY         0.0182
     16 C12         7.0180    3.1620    2.4160 C.3       1 7OY         0.0367
     17 C16         7.3920    5.5800    3.1800 C.3       1 7OY         0.0555
     18 C14         8.2190    4.7960    0.9520 C.3       1 7OY         0.0971
     19 C11         7.1490    4.1260    3.5690 C.3       1 7OY         0.0708
     20 N7          6.5770    4.4630    8.1400 N.2       1 7OY        -0.3017
     21 N9          7.8320    4.7940    6.2920 N.2       1 7OY        -0.1830
     22 N5          6.6600    4.2290    5.9630 N.pl3     1 7OY        -0.1059
     23 N15         8.3170    5.7110    2.0650 N.am      1 7OY        -0.2639
     24 O19        10.0200    6.8390    1.0120 O.2       1 7OY        -0.3864
     25 F28        10.4390    9.8650    6.3130 F         1 7OY        -0.1786
     26 F25         9.3130    2.9400    1.9340 F         1 7OY        -0.2032
     27 F26         7.9090    2.5940    0.2860 F         1 7OY        -0.2032
     28 CL24       10.5660    7.1570    7.0480 Cl        1 7OY        -0.0710
     29 H1          8.5328    5.3705    8.2173 H         1 7OY         0.0857
     30 H2          2.6740    2.2685    4.7289 H         1 7OY         0.0461
     31 H3          2.1449    3.2049    6.1676 H         1 7OY         0.0461
     32 H4          2.8773    1.5777    6.3745 H         1 7OY         0.0461
     33 H5          9.9189    5.7816    4.5336 H         1 7OY         0.0666
     34 H6          9.8671   10.7019    3.9241 H         1 7OY         0.0616
     35 H7          9.3924    9.2112    2.0035 H         1 7OY         0.0661
     36 H8          4.6009    2.9884    3.6566 H         1 7OY         0.0478
     37 H9          7.0662    2.1337    2.8037 H         1 7OY         0.0361
     38 H10         6.0471    3.3235    1.9248 H         1 7OY         0.0361
     39 H11         7.8080    6.1126    4.0479 H         1 7OY         0.0560
     40 H12         6.4313    6.0347    2.8966 H         1 7OY         0.0560
     41 H13         7.3212    5.0459    0.3676 H         1 7OY         0.0581
     42 H14         9.1119    4.9120    0.3201 H         1 7OY         0.0581
     43 H15         8.1215    3.8433    3.9983 H         1 7OY         0.0613
@<TRIPOS>BOND
     1    2    1 1  
     2   15    1 2  
     3    2   20 2  
     4   22    2 1  
     5    3   14 2  
     6   19    3 1  
     7    3   22 1  
     8   20    4 1  
     9    4   21 2  
    10   15    5 1  
    11   16    6 1  
    12    6   18 1  
    13    6   26 1  
    14    6   27 1  
    15    7   12 1  
    16   23    7 am 
    17    7   24 2  
    18    8    9 ar 
    19   12    8 ar 
    20    9   13 ar 
    21    9   28 1  
    22   11   10 ar 
    23   10   13 ar 
    24   12   11 ar 
    25   13   25 1  
    26   14   15 1  
    27   19   16 1  
    28   17   19 1  
    29   17   23 1  
    30   18   23 1  
    31   21   22 1  
    32    4   29 1  
    33    5   30 1  
    34    5   31 1  
    35    5   32 1  
    36    8   33 1  
    37   10   34 1  
    38   11   35 1  
    39   14   36 1  
    40   16   37 1  
    41   16   38 1  
    42   17   39 1  
    43   17   40 1  
    44   18   41 1  
    45   18   42 1  
    46   19   43 1  
@<TRIPOS>SUBSTRUCTURE
     1 7OY         1

