### 
### Created by X-TOOL on Tue Oct 16 15:18:06 2018
### 

@<TRIPOS>MOLECULE
5tzy_ligand
   74    78     1     0     0
SMALL
GAST_HUCK


@<TRIPOS>ATOM
      1 O3        -24.0590   -8.6210   42.8780 O.3       1 MOL        -0.2324
      2 C7        -26.0300   -9.1630   28.9440 C.3       1 MOL         0.0206
      3 C6        -26.4000   -9.9920   30.2100 C.3       1 MOL         0.0040
      4 C5        -25.0790   -9.8560   32.3510 C.ar      1 MOL        -0.0378
      5 C4        -25.2280  -10.4310   31.0920 C.ar      1 MOL        -0.0534
      6 C3        -24.3070  -11.3920   30.6950 C.ar      1 MOL        -0.0776
      7 C2        -23.2610  -11.7640   31.5220 C.ar      1 MOL        -0.0752
      8 C1        -23.0950  -11.1800   32.7760 C.ar      1 MOL        -0.0203
      9 O1        -27.0700   -7.0440   29.2790 O.co2     1 MOL        -0.5686
     10 O2        -23.9990   -9.6340   34.4290 O.3       1 MOL        -0.3197
     11 C8        -27.0770   -8.0960   28.5970 C.2       1 MOL         0.0397
     12 C9        -24.6200   -8.5580   28.9570 C.3       1 MOL        -0.0488
     13 C10       -27.4430  -11.0810   29.8380 C.3       1 MOL        -0.0278
     14 C11       -28.9110  -10.7790   29.8670 C.3       1 MOL        -0.0478
     15 C12       -28.3430  -11.8010   30.7950 C.3       1 MOL        -0.0478
     16 C13       -21.9090  -11.4970   33.6470 C.3       1 MOL        -0.0214
     17 C14       -22.2000  -11.3210   35.1320 C.3       1 MOL        -0.0149
     18 C15       -22.9740  -10.0360   35.3880 C.3       1 MOL         0.0841
     19 C16       -23.6290   -9.9380   36.7700 C.3       1 MOL        -0.0009
     20 C17       -24.9880  -10.6060   37.0080 C.3       1 MOL        -0.0068
     21 C18       -25.6010  -10.0560   38.3000 C.3       1 MOL        -0.0301
     22 C19       -23.3810   -9.6190   39.2320 C.3       1 MOL        -0.0301
     23 C20       -22.7110  -10.1680   37.9770 C.3       1 MOL        -0.0068
     24 C21       -25.2800  -10.1280   40.8370 C.3       1 MOL         0.0077
     25 C22       -24.5450  -10.7710   42.0030 C.ar      1 MOL         0.0321
     26 C23       -23.9610  -10.0070   43.0220 C.ar      1 MOL         0.1033
     27 C24       -23.3070  -10.5920   44.0950 C.ar      1 MOL        -0.0407
     28 C25       -23.2180  -11.9700   44.1830 C.ar      1 MOL        -0.0440
     29 C26       -23.7820  -12.7160   43.1860 C.ar      1 MOL         0.1139
     30 C27       -24.4350  -12.1650   42.1020 C.ar      1 MOL        -0.0300
     31 C28       -25.0390   -7.8580   43.3680 C.3       1 MOL         0.5443
     32 C29       -26.7930  -10.3120   40.8810 C.3       1 MOL        -0.0132
     33 F3        -25.8980   -8.5190   44.1320 F         1 MOL        -0.1403
     34 F1        -25.7120   -7.3190   42.3570 F         1 MOL        -0.1403
     35 F2        -24.5450   -6.8790   44.1000 F         1 MOL        -0.1403
     36 F         -23.7040  -14.0670   43.2750 F         1 MOL        -0.1947
     37 N         -24.6730  -10.3570   39.4450 N.4       1 MOL         0.2475
     38 C         -24.0340  -10.2340   33.1840 C.ar      1 MOL         0.0869
     39 O         -27.8880   -8.3460   27.6690 O.co2     1 MOL        -0.5686
     40 H1        -26.0391   -9.8825   28.1120 H         1 MOL         0.0487
     41 H2        -26.9515   -9.2895   30.8521 H         1 MOL         0.0470
     42 H3        -25.7861   -9.1052   32.6847 H         1 MOL         0.0461
     43 H4        -24.4090  -11.8583   29.7217 H         1 MOL         0.0446
     44 H5        -22.5605  -12.5212   31.1888 H         1 MOL         0.0510
     45 H6        -24.4541   -7.9948   28.0268 H         1 MOL         0.0252
     46 H7        -23.8758   -9.3642   29.0352 H         1 MOL         0.0252
     47 H8        -24.5193   -7.8812   29.8182 H         1 MOL         0.0252
     48 H9        -27.0310  -11.6569   28.9962 H         1 MOL         0.0325
     49 H10       -29.5533  -11.0924   29.0308 H         1 MOL         0.0270
     50 H11       -29.2664   -9.8156   30.2613 H         1 MOL         0.0270
     51 H12       -28.2804  -11.5902   31.8728 H         1 MOL         0.0270
     52 H13       -28.5674  -12.8670   30.6423 H         1 MOL         0.0270
     53 H14       -21.0812  -10.8278   33.3699 H         1 MOL         0.0391
     54 H15       -21.6118  -12.5410   33.4690 H         1 MOL         0.0391
     55 H16       -21.2487  -11.2836   35.6829 H         1 MOL         0.0312
     56 H17       -22.7952  -12.1758   35.4856 H         1 MOL         0.0312
     57 H18       -22.2055   -9.2498   35.3506 H         1 MOL         0.0651
     58 H19       -23.8680   -8.8659   36.8290 H         1 MOL         0.0333
     59 H20       -24.8522  -11.6937   37.0994 H         1 MOL         0.0320
     60 H21       -25.6573  -10.3897   36.1623 H         1 MOL         0.0320
     61 H22       -26.5756  -10.5336   38.4790 H         1 MOL         0.0815
     62 H23       -25.7367   -8.9681   38.2107 H         1 MOL         0.0815
     63 H24       -23.5837   -8.5453   39.1049 H         1 MOL         0.0815
     64 H25       -22.7216   -9.7675   40.0998 H         1 MOL         0.0815
     65 H26       -21.7542   -9.6501   37.8149 H         1 MOL         0.0320
     66 H27       -22.5284  -11.2458   38.0996 H         1 MOL         0.0320
     67 H28       -25.1379   -9.0505   41.0065 H         1 MOL         0.0989
     68 H29       -22.8653   -9.9700   44.8651 H         1 MOL         0.0512
     69 H30       -22.7156  -12.4442   45.0183 H         1 MOL         0.0519
     70 H31       -24.8584  -12.8036   41.3352 H         1 MOL         0.0515
     71 H32       -27.1545  -10.1328   41.9043 H         1 MOL         0.0304
     72 H33       -27.0466  -11.3383   40.5770 H         1 MOL         0.0304
     73 H34       -27.2694   -9.5976   40.1935 H         1 MOL         0.0304
     74 H35       -24.4613  -11.3413   39.3953 H         1 MOL         0.2049
@<TRIPOS>BOND
     1   26    1 1  
     2    1   31 1  
     3    3    2 1  
     4    2   11 1  
     5    2   12 1  
     6    5    3 1  
     7    3   13 1  
     8    4    5 ar 
     9   38    4 ar 
    10    5    6 ar 
    11    7    6 ar 
    12    8    7 ar 
    13   16    8 1  
    14   38    8 ar 
    15   11    9 ar 
    16   18   10 1  
    17   10   38 1  
    18   11   39 ar 
    19   13   14 1  
    20   13   15 1  
    21   15   14 1  
    22   17   16 1  
    23   18   17 1  
    24   19   18 1  
    25   20   19 1  
    26   23   19 1  
    27   21   20 1  
    28   37   21 1  
    29   22   23 1  
    30   37   22 1  
    31   25   24 1  
    32   24   32 1  
    33   24   37 1  
    34   25   26 ar 
    35   25   30 ar 
    36   26   27 ar 
    37   27   28 ar 
    38   28   29 ar 
    39   29   30 ar 
    40   29   36 1  
    41   31   33 1  
    42   31   34 1  
    43   31   35 1  
    44    2   40 1  
    45    3   41 1  
    46    4   42 1  
    47    6   43 1  
    48    7   44 1  
    49   12   45 1  
    50   12   46 1  
    51   12   47 1  
    52   13   48 1  
    53   14   49 1  
    54   14   50 1  
    55   15   51 1  
    56   15   52 1  
    57   16   53 1  
    58   16   54 1  
    59   17   55 1  
    60   17   56 1  
    61   18   57 1  
    62   19   58 1  
    63   20   59 1  
    64   20   60 1  
    65   21   61 1  
    66   21   62 1  
    67   22   63 1  
    68   22   64 1  
    69   23   65 1  
    70   23   66 1  
    71   24   67 1  
    72   27   68 1  
    73   28   69 1  
    74   30   70 1  
    75   32   71 1  
    76   32   72 1  
    77   32   73 1  
    78   37   74 1  
@<TRIPOS>SUBSTRUCTURE
     1 MOL         1

