### 
### Created by X-TOOL on Mon Sep 10 21:13:32 2018
### 

@<TRIPOS>MOLECULE
5tzz_ligand
   43    46     1     0     0
SMALL
GAST_HUCK


@<TRIPOS>ATOM
      1 N3          2.8800    2.4380    6.4720 N.2       1 7OJ        -0.2703
      2 C4          4.1060    3.0030    6.5350 C.2       1 7OJ         0.2165
      3 C6          4.4800    2.7130    4.1830 C.2       1 7OJ         0.1416
      4 C8          5.9180    3.9250    7.0380 C.2       1 7OJ         0.0433
      5 C10         1.1240    1.4040    5.2170 C.3       1 7OJ        -0.0109
      6 C13         6.3110    2.2770    0.8450 C.3       1 7OJ         0.2718
      7 C17         7.4480    5.5520    1.5730 C.2       1 7OJ         0.2054
      8 C20         8.1070    5.8460    3.9940 C.ar      1 7OJ        -0.0340
      9 C21         8.3750    6.7320    5.0180 C.ar      1 7OJ         0.0519
     10 C22         7.9420    8.5870    3.5980 C.ar      1 7OJ        -0.0195
     11 C23         7.6740    7.7260    2.5650 C.ar      1 7OJ        -0.0410
     12 C18         7.7460    6.3710    2.7680 C.ar      1 7OJ         0.0487
     13 C27         8.2900    8.0900    4.8280 C.ar      1 7OJ         0.1477
     14 C1          3.2740    2.1500    4.0640 C.2       1 7OJ         0.0117
     15 C2          2.4860    2.0330    5.3060 C.2       1 7OJ         0.0182
     16 C12         5.3110    1.9750    1.9250 C.3       1 7OJ         0.0367
     17 C16         5.5680    4.4020    2.7140 C.3       1 7OJ         0.0555
     18 C14         6.3200    3.7350    0.4600 C.3       1 7OJ         0.0971
     19 C11         5.4540    2.9350    3.0870 C.3       1 7OJ         0.0708
     20 N7          4.7420    3.4870    7.5730 N.2       1 7OJ        -0.3017
     21 N9          6.0380    3.7300    5.7240 N.2       1 7OJ        -0.1830
     22 N5          4.8820    3.1340    5.4240 N.pl3     1 7OJ        -0.1059
     23 N15         6.4460    4.6150    1.5970 N.am      1 7OJ        -0.2638
     24 O19         8.1250    5.7640    0.5830 O.2       1 7OJ        -0.3863
     25 F28         8.5680    8.9200    5.8640 F         1 7OJ        -0.1767
     26 F25         7.5550    1.8890    1.2740 F         1 7OJ        -0.2032
     27 F26         6.0130    1.5440   -0.2560 F         1 7OJ        -0.2032
     28 BR24        8.8760    6.1510    6.7430 Br        1 7OJ        -0.0501
     29 H1          6.6966    4.3962    7.6360 H         1 7OJ         0.0857
     30 H2          0.9231    1.1102    4.1762 H         1 7OJ         0.0461
     31 H3          0.3638    2.1273    5.5470 H         1 7OJ         0.0461
     32 H4          1.0882    0.5141    5.8626 H         1 7OJ         0.0461
     33 H5          8.1773    4.7751    4.1465 H         1 7OJ         0.0688
     34 H6          7.8790    9.6580    3.4428 H         1 7OJ         0.0623
     35 H7          7.4057    8.1153    1.5895 H         1 7OJ         0.0683
     36 H8          2.8947    1.7979    3.1058 H         1 7OJ         0.0478
     37 H9          5.4715    0.9484    2.2859 H         1 7OJ         0.0361
     38 H10         4.2963    2.0632    1.5095 H         1 7OJ         0.0361
     39 H11         5.9566    4.9578    3.5800 H         1 7OJ         0.0560
     40 H12         4.5680    4.7796    2.4546 H         1 7OJ         0.0560
     41 H13         5.3790    3.9665   -0.0604 H         1 7OJ         0.0581
     42 H14         7.1676    3.9139   -0.2179 H         1 7OJ         0.0581
     43 H15         6.4317    2.6841    3.5242 H         1 7OJ         0.0613
@<TRIPOS>BOND
     1    2    1 1  
     2   15    1 2  
     3    2   20 2  
     4   22    2 1  
     5    3   14 2  
     6   19    3 1  
     7    3   22 1  
     8   20    4 1  
     9    4   21 2  
    10   15    5 1  
    11   16    6 1  
    12    6   18 1  
    13    6   26 1  
    14    6   27 1  
    15    7   12 1  
    16   23    7 am 
    17    7   24 2  
    18    8    9 ar 
    19   12    8 ar 
    20    9   13 ar 
    21    9   28 1  
    22   11   10 ar 
    23   10   13 ar 
    24   12   11 ar 
    25   13   25 1  
    26   14   15 1  
    27   19   16 1  
    28   17   19 1  
    29   17   23 1  
    30   18   23 1  
    31   21   22 1  
    32    4   29 1  
    33    5   30 1  
    34    5   31 1  
    35    5   32 1  
    36    8   33 1  
    37   10   34 1  
    38   11   35 1  
    39   14   36 1  
    40   16   37 1  
    41   16   38 1  
    42   17   39 1  
    43   17   40 1  
    44   18   41 1  
    45   18   42 1  
    46   19   43 1  
@<TRIPOS>SUBSTRUCTURE
     1 7OJ         1

