### 
### Created by X-TOOL on Mon Sep 10 21:13:33 2018
### 

@<TRIPOS>MOLECULE
5u00_ligand
   43    46     1     0     0
SMALL
GAST_HUCK


@<TRIPOS>ATOM
      1 N3          6.3380    4.5450    8.6240 N.2       1 7OV        -0.2703
      2 C4          7.5590    5.1210    8.6900 C.2       1 7OV         0.2165
      3 C6          7.9610    4.8090    6.3520 C.2       1 7OV         0.1416
      4 C8          9.3690    6.0610    9.2080 C.2       1 7OV         0.0433
      5 C10         8.9240    5.0100    5.2390 C.3       1 7OV         0.0708
      6 C13         9.7580    4.3370    2.9960 C.3       1 7OV         0.2718
      7 C20        11.1640    8.4920    4.8420 C.ar      1 7OV         0.0488
      8 C22        11.0760    9.8460    4.6210 C.ar      1 7OV        -0.0412
      9 C24        11.7840   10.2190    6.8650 C.ar      1 7OV         0.1490
     10 C26        11.5650    7.9940    6.0670 C.ar      1 7OV        -0.0326
     11 C23        11.3800   10.7070    5.6480 C.ar      1 7OV        -0.0194
     12 C25        11.8880    8.8650    7.1090 C.ar      1 7OV         0.0485
     13 C1          6.7530    4.2360    6.2380 C.2       1 7OV         0.0117
     14 C2          5.9600    4.1280    7.4650 C.2       1 7OV         0.0182
     15 C19        10.8470    7.6330    3.6810 C.2       1 7OV         0.2054
     16 C12         8.7650    4.0360    4.0880 C.3       1 7OV         0.0367
     17 C16         8.9340    6.4590    4.7870 C.3       1 7OV         0.0555
     18 C14         9.7720    5.7880    2.5710 C.3       1 7OV         0.0971
     19 C11         4.6090    3.4830    7.3440 C.3       1 7OV        -0.0109
     20 N7          8.1880    5.6260    9.7330 N.2       1 7OV        -0.3017
     21 N9          9.5180    5.8590    7.8960 N.2       1 7OV        -0.1830
     22 N5          8.3550    5.2530    7.5890 N.pl3     1 7OV        -0.1059
     23 N15         9.8550    6.6850    3.6990 N.am      1 7OV        -0.2638
     24 O21        11.5410    7.8140    2.6930 O.2       1 7OV        -0.3864
     25 F28        12.0740   11.1310    7.8280 F         1 7OV        -0.1766
     26 F17        10.9900    3.9700    3.4730 F         1 7OV        -0.2032
     27 F18         9.5460    3.5440    1.9040 F         1 7OV        -0.2032
     28 I27        12.5080    8.2310    9.0200 I         1 7OV        -0.0493
     29 H1         10.1362    6.5391    9.8152 H         1 7OV         0.0857
     30 H2          9.9204    4.8107    5.6603 H         1 7OV         0.0613
     31 H3         10.7720   10.2280    3.6531 H         1 7OV         0.0680
     32 H4         11.6290    6.9227    6.2195 H         1 7OV         0.0689
     33 H5         11.3002   11.7773    5.4958 H         1 7OV         0.0623
     34 H6          6.3811    3.8699    5.2822 H         1 7OV         0.0478
     35 H7          7.7459    4.1192    3.6825 H         1 7OV         0.0361
     36 H8          8.9311    3.0125    4.4552 H         1 7OV         0.0361
     37 H9          9.2273    7.0930    5.6367 H         1 7OV         0.0560
     38 H10         7.9214    6.7339    4.4567 H         1 7OV         0.0560
     39 H11         8.8480    6.0032    2.0144 H         1 7OV         0.0581
     40 H12        10.6411    5.9578    1.9185 H         1 7OV         0.0581
     41 H13         4.4374    3.1847    6.2992 H         1 7OV         0.0461
     42 H14         3.8323    4.1978    7.6534 H         1 7OV         0.0461
     43 H15         4.5678    2.5941    7.9906 H         1 7OV         0.0461
@<TRIPOS>BOND
     1    2    1 1  
     2   14    1 2  
     3    2   20 2  
     4   22    2 1  
     5    5    3 1  
     6    3   13 2  
     7    3   22 1  
     8   20    4 1  
     9    4   21 2  
    10    5   16 1  
    11   17    5 1  
    12   16    6 1  
    13    6   18 1  
    14    6   26 1  
    15    6   27 1  
    16    7    8 ar 
    17    7   10 ar 
    18   15    7 1  
    19    8   11 ar 
    20   11    9 ar 
    21   12    9 ar 
    22    9   25 1  
    23   10   12 ar 
    24   12   28 1  
    25   13   14 1  
    26   14   19 1  
    27   23   15 am 
    28   15   24 2  
    29   17   23 1  
    30   18   23 1  
    31   21   22 1  
    32    4   29 1  
    33    5   30 1  
    34    8   31 1  
    35   10   32 1  
    36   11   33 1  
    37   13   34 1  
    38   16   35 1  
    39   16   36 1  
    40   17   37 1  
    41   17   38 1  
    42   18   39 1  
    43   18   40 1  
    44   19   41 1  
    45   19   42 1  
    46   19   43 1  
@<TRIPOS>SUBSTRUCTURE
     1 7OV         1

