### 
### Created by X-TOOL on Mon Sep 10 21:13:30 2018
### 

@<TRIPOS>MOLECULE
5u0d_ligand
   28    29     1     0     0
SMALL
GAST_HUCK


@<TRIPOS>ATOM
      1 C17        -2.6540    4.0060   14.4250 C.ar      1 7R7        -0.0717
      2 C16        -2.6830    5.2690   13.8510 C.ar      1 7R7        -0.0503
      3 C12        -5.0440    5.3110   14.1400 C.ar      1 7R7        -0.0109
      4 C8         -3.7980    3.3730   14.8660 C.ar      1 7R7         0.0295
      5 C13        -3.8880    5.9210   13.7040 C.ar      1 7R7         0.0754
      6 C9         -4.9870    4.0560   14.7200 C.ar      1 7R7         0.0896
      7 C2         -4.5320    0.9130   14.8070 C.2       1 7R7         0.2574
      8 C4         -5.3140    1.0850   16.7580 C.2       1 7R7         0.2283
      9 C7         -3.7280    1.9890   15.4900 C.3       1 7R7         0.2145
     10 C15        -2.9240    7.7430   12.5190 C.3       1 7R7         0.0577
     11 C11        -6.8210    4.0710   16.2010 C.3       1 7R7         0.0576
     12 N3         -5.4350    0.3980   15.6640 N.am      1 7R7        -0.1816
     13 O1         -4.3490    0.5960   13.6300 O.2       1 7R7        -0.3756
     14 O5         -4.2800    1.9500   16.7970 O.3       1 7R7        -0.2346
     15 O14        -4.0960    7.1940   13.1420 O.3       1 7R7        -0.3282
     16 O10        -6.1240    3.4310   15.1300 O.3       1 7R7        -0.3271
     17 S6         -6.1960    0.9910   18.1360 S.2       1 7R7        -0.2562
     18 H1         -1.7012    3.5000   14.5304 H         1 7R7         0.0506
     19 H2         -1.7640    5.7395   13.5205 H         1 7R7         0.0433
     20 H3         -5.9977    5.8141   14.0287 H         1 7R7         0.0446
     21 H4         -2.6683    1.6953   15.5157 H         1 7R7         0.1033
     22 H5         -3.1596    8.7340   12.1037 H         1 7R7         0.0575
     23 H6         -2.5922    7.0758   11.7098 H         1 7R7         0.0575
     24 H7         -2.1227    7.8397   13.2663 H         1 7R7         0.0575
     25 H8         -7.7192    3.4885   16.4538 H         1 7R7         0.0575
     26 H9         -7.1163    5.0847   15.8924 H         1 7R7         0.0575
     27 H10        -6.1641    4.1323   17.0812 H         1 7R7         0.0575
     28 H11        -6.0675   -0.3573   15.4925 H         1 7R7         0.2394
@<TRIPOS>BOND
     1    1    2 ar 
     2    1    4 ar 
     3    2    5 ar 
     4    5    3 ar 
     5    3    6 ar 
     6    4    6 ar 
     7    4    9 1  
     8    5   15 1  
     9    6   16 1  
    10    9    7 1  
    11    7   12 am 
    12    7   13 2  
    13   12    8 am 
    14    8   14 1  
    15    8   17 2  
    16    9   14 1  
    17   15   10 1  
    18   16   11 1  
    19    1   18 1  
    20    2   19 1  
    21    3   20 1  
    22    9   21 1  
    23   10   22 1  
    24   10   23 1  
    25   10   24 1  
    26   11   25 1  
    27   11   26 1  
    28   11   27 1  
    29   12   28 1  
@<TRIPOS>SUBSTRUCTURE
     1 7R7         1

