### 
### Created by X-TOOL on Mon Sep 10 21:13:30 2018
### 

@<TRIPOS>MOLECULE
5u0e_ligand
   23    24     1     0     0
SMALL
GAST_HUCK


@<TRIPOS>ATOM
      1 C9         -3.1080    6.8850   14.0640 C.ar      1 7R4        -0.0687
      2 C8         -4.4220    6.5180   14.2120 C.ar      1 7R4        -0.0686
      3 C10        -2.1940    5.9190   13.7640 C.ar      1 7R4        -0.0686
      4 C7         -4.8420    5.2140   14.0840 C.ar      1 7R4        -0.0602
      5 C11        -2.6250    4.6090   13.6320 C.ar      1 7R4        -0.0602
      6 C6         -3.9430    4.2330   13.7910 C.ar      1 7R4        -0.0395
      7 C2         -4.6310    0.6400   14.7640 C.2       1 7R4         0.2317
      8 C13        -5.7220    1.2980   16.5980 C.2       1 7R4         0.1480
      9 C3         -3.9960    2.0080   14.8830 C.3       1 7R4         0.1329
     10 C5         -4.4400    2.8290   13.6710 C.3       1 7R4         0.0135
     11 N12        -5.5580    0.3360   15.6760 N.am      1 7R4        -0.2003
     12 O1         -4.3180   -0.1510   13.8910 O.2       1 7R4        -0.3791
     13 S14        -6.7660    1.2900   17.8760 S.2       1 7R4        -0.2556
     14 S4         -4.6590    2.6500   16.4180 S.3       1 7R4        -0.0158
     15 H1         -2.8040    7.9187   14.1828 H         1 7R4         0.0559
     16 H2         -5.1557    7.2833   14.4380 H         1 7R4         0.0599
     17 H3         -1.1482    6.1715   13.6311 H         1 7R4         0.0599
     18 H4         -5.8891    4.9669   14.2164 H         1 7R4         0.0557
     19 H5         -1.8940    3.8451   13.3931 H         1 7R4         0.0557
     20 H6         -2.8982    1.9503   14.9218 H         1 7R4         0.0717
     21 H7         -4.0320    2.3757   12.7555 H         1 7R4         0.0464
     22 H8         -5.5387    2.8353   13.6188 H         1 7R4         0.0464
     23 H9         -6.0761   -0.5193   15.6725 H         1 7R4         0.2386
@<TRIPOS>BOND
     1    2    1 ar 
     2    3    1 ar 
     3    4    2 ar 
     4    5    3 ar 
     5    6    4 ar 
     6    6    5 ar 
     7   10    6 1  
     8    9    7 1  
     9    7   11 am 
    10    7   12 2  
    11   11    8 am 
    12    8   13 2  
    13    8   14 1  
    14    9   10 1  
    15    9   14 1  
    16    1   15 1  
    17    2   16 1  
    18    3   17 1  
    19    4   18 1  
    20    5   19 1  
    21    9   20 1  
    22   10   21 1  
    23   10   22 1  
    24   11   23 1  
@<TRIPOS>SUBSTRUCTURE
     1 7R4         1

