### 
### Created by X-TOOL on Mon Sep 10 21:13:31 2018
### 

@<TRIPOS>MOLECULE
5u0f_ligand
   31    32     1     0     0
SMALL
GAST_HUCK


@<TRIPOS>ATOM
      1 C7         18.6940    4.4910   13.4790 C.ar      1 7R1        -0.0769
      2 C8         19.0420    5.8010   13.7800 C.ar      1 7R1        -0.0509
      3 C12        16.9080    6.1240   14.7980 C.ar      1 7R1        -0.0114
      4 C6         17.4550    3.9920   13.8180 C.ar      1 7R1        -0.0209
      5 C9         18.1320    6.6060   14.4320 C.ar      1 7R1         0.0751
      6 C13        16.6150    4.8340   14.4850 C.ar      1 7R1         0.0845
      7 C2         16.5280    0.4000   14.6280 C.2       1 7R1         0.2312
      8 C17        15.6340    1.0340   16.5690 C.2       1 7R1         0.1480
      9 C3         17.2700    1.6970   14.7520 C.3       1 7R1         0.1300
     10 C11        19.7290    8.2770   14.5740 C.3       1 7R1         0.0577
     11 C15        15.0800    4.5200   13.4550 C.3       1 7R1         0.0576
     12 C5         16.9540    2.6010   13.5670 C.3       1 7R1         0.0066
     13 N16        15.6650    0.0930   15.6150 N.am      1 7R1        -0.2003
     14 O1         16.7270   -0.3310   13.6780 O.2       1 7R1        -0.3791
     15 O10        18.3560    7.9250   14.7760 O.3       1 7R1        -0.3284
     16 O14        15.4220    4.3230   14.8020 O.3       1 7R1        -0.3275
     17 S18        14.7310    0.9890   17.9520 S.2       1 7R1        -0.2556
     18 S4         16.7530    2.3530   16.3380 S.3       1 7R1        -0.0163
     19 H1         19.4067    3.8520   12.9703 H         1 7R1         0.0500
     20 H2         20.0174    6.1863   13.5057 H         1 7R1         0.0433
     21 H3         16.1935    6.7494   15.3209 H         1 7R1         0.0445
     22 H4         18.3548    1.5152   14.7675 H         1 7R1         0.0712
     23 H5         19.8827    9.3296   14.8541 H         1 7R1         0.0575
     24 H6         19.9914    8.1374   13.5149 H         1 7R1         0.0575
     25 H7         20.3679    7.6346   15.1978 H         1 7R1         0.0575
     26 H8         14.0465    4.1833   13.2861 H         1 7R1         0.0574
     27 H9         15.7631    3.9423   12.8150 H         1 7R1         0.0574
     28 H10        15.1623    5.5888   13.2083 H         1 7R1         0.0574
     29 H11        17.4394    2.1987   12.6656 H         1 7R1         0.0421
     30 H12        15.8650    2.6306   13.4149 H         1 7R1         0.0421
     31 H13        15.1118   -0.7398   15.6340 H         1 7R1         0.2386
@<TRIPOS>BOND
     1    1    2 ar 
     2    4    1 ar 
     3    2    5 ar 
     4    3    5 ar 
     5    6    3 ar 
     6    4    6 ar 
     7   12    4 1  
     8    5   15 1  
     9    6   16 1  
    10    9    7 1  
    11    7   13 am 
    12    7   14 2  
    13   13    8 am 
    14    8   17 2  
    15    8   18 1  
    16    9   12 1  
    17    9   18 1  
    18   15   10 1  
    19   16   11 1  
    20    1   19 1  
    21    2   20 1  
    22    3   21 1  
    23    9   22 1  
    24   10   23 1  
    25   10   24 1  
    26   10   25 1  
    27   11   26 1  
    28   11   27 1  
    29   11   28 1  
    30   12   29 1  
    31   12   30 1  
    32   13   31 1  
@<TRIPOS>SUBSTRUCTURE
     1 7R1         1

