### 
### Created by X-TOOL on Mon Sep 10 21:13:30 2018
### 

@<TRIPOS>MOLECULE
5u0g_ligand
   31    32     1     0     0
SMALL
GAST_HUCK


@<TRIPOS>ATOM
      1 C7         -4.9760    5.3550   15.0650 C.ar      1 7QY        -0.0769
      2 C8         -4.4980    6.6060   15.3600 C.ar      1 7QY        -0.0509
      3 C12        -2.5270    6.1970   14.1030 C.ar      1 7QY        -0.0114
      4 C6         -4.2370    4.4850   14.2900 C.ar      1 7QY        -0.0210
      5 C9         -3.2790    7.0420   14.8840 C.ar      1 7QY         0.0751
      6 C13        -3.0110    4.9140   13.8150 C.ar      1 7QY         0.0845
      7 C2         -4.7730    0.7390   14.8810 C.2       1 7QY         0.2223
      8 C17        -5.8070    1.0360   16.7960 C.2       1 7QY         0.2695
      9 C3         -4.2880    2.1500   15.1330 C.3       1 7QY         0.1267
     10 C11        -1.6140    8.7670   14.7740 C.3       1 7QY         0.0577
     11 C15        -1.1380    4.5770   12.4010 C.3       1 7QY         0.0576
     12 C5         -4.8400    3.1210   14.0540 C.3       1 7QY         0.0059
     13 N16        -5.5690    0.1980   15.8150 N.am      1 7QY        -0.1891
     14 O1         -4.4360    0.1730   13.8630 O.2       1 7QY        -0.3847
     15 O18        -6.5560    0.8790   17.7140 O.2       1 7QY        -0.3731
     16 O10        -2.9120    8.3540   15.2480 O.3       1 7QY        -0.3284
     17 O14        -2.3020    4.0100   13.0360 O.3       1 7QY        -0.3275
     18 S4         -4.8650    2.4800   16.8110 S.3       1 7QY         0.0003
     19 H1         -5.9436    5.0467   15.4443 H         1 7QY         0.0500
     20 H2         -5.0914    7.2671   15.9812 H         1 7QY         0.0433
     21 H3         -1.5684    6.5202   13.7135 H         1 7QY         0.0445
     22 H4         -3.1892    2.1919   15.1035 H         1 7QY         0.0703
     23 H5         -1.4140    9.7972   15.1037 H         1 7QY         0.0575
     24 H6         -1.5940    8.7234   13.6751 H         1 7QY         0.0575
     25 H7         -0.8440    8.0956   15.1818 H         1 7QY         0.0575
     26 H8         -0.6321    3.8033   11.8048 H         1 7QY         0.0574
     27 H9         -0.4489    4.9562   13.1700 H         1 7QY         0.0574
     28 H10        -1.4450    5.4039   11.7438 H         1 7QY         0.0574
     29 H11        -4.5630    2.7602   13.0525 H         1 7QY         0.0420
     30 H12        -5.9356    3.1801   14.1325 H         1 7QY         0.0420
     31 H13        -5.9364   -0.7310   15.7693 H         1 7QY         0.2265
@<TRIPOS>BOND
     1    1    2 ar 
     2    4    1 ar 
     3    2    5 ar 
     4    3    5 ar 
     5    6    3 ar 
     6    4    6 ar 
     7   12    4 1  
     8    5   16 1  
     9    6   17 1  
    10    9    7 1  
    11    7   13 am 
    12    7   14 2  
    13   13    8 am 
    14    8   15 2  
    15    8   18 1  
    16    9   12 1  
    17    9   18 1  
    18   16   10 1  
    19   17   11 1  
    20    1   19 1  
    21    2   20 1  
    22    3   21 1  
    23    9   22 1  
    24   10   23 1  
    25   10   24 1  
    26   10   25 1  
    27   11   26 1  
    28   11   27 1  
    29   11   28 1  
    30   12   29 1  
    31   12   30 1  
    32   13   31 1  
@<TRIPOS>SUBSTRUCTURE
     1 7QY         1

