### 
### Created by X-TOOL on Mon Sep 10 21:13:32 2018
### 

@<TRIPOS>MOLECULE
5u0w_ligand
   20    21     1     0     0
SMALL
GAST_HUCK


@<TRIPOS>ATOM
      1 C1          8.3260   -4.1710   27.6800 C.3       1 9MG         0.0723
      2 N2          8.4030   -3.5590   26.3670 N.pl3     1 9MG        -0.1302
      3 C3          7.5380   -3.7700   25.3310 C.2       1 9MG         0.1821
      4 N4          7.8850   -3.0610   24.2670 N.2       1 9MG        -0.1931
      5 C5          9.0120   -2.3860   24.6620 C.2       1 9MG         0.2557
      6 C6          9.8120   -1.4680   23.9240 C.2       1 9MG         0.2628
      7 O7          9.5920   -1.1350   22.7690 O.2       1 9MG        -0.3594
      8 N8         10.8590   -1.0200   24.7090 N.am      1 9MG        -0.2478
      9 C9         11.1210   -1.3830   26.0270 C.cat     1 9MG         0.2041
     10 N10        12.2330   -0.7800   26.5730 N.pl3     1 9MG        -0.3327
     11 N11        10.3750   -2.2210   26.6850 N.pl3     1 9MG        -0.1902
     12 C12         9.3530   -2.6740   25.9520 C.2       1 9MG         0.3241
     13 H1          7.4540   -4.8402   27.7220 H         1 9MG         0.0605
     14 H2          8.2236   -3.3869   28.4446 H         1 9MG         0.0605
     15 H3          9.2420   -4.7500   27.8690 H         1 9MG         0.0605
     16 H4          6.6760   -4.4341   25.3741 H         1 9MG         0.1822
     17 H5         11.4912   -0.3700   24.2873 H         1 9MG         0.1819
     18 H6         12.5065   -0.9871   27.5442 H         1 9MG         0.1774
     19 H7         12.7908   -0.1221   26.0100 H         1 9MG         0.1774
     20 H8         10.5516   -2.5034   27.6597 H         1 9MG         0.2519
@<TRIPOS>BOND
     1    1    2 1  
     2    2    3 1  
     3    2   12 1  
     4    3    4 2  
     5    4    5 1  
     6    5    6 1  
     7    5   12 2  
     8    6    7 2  
     9    6    8 am 
    10    8    9 ar 
    11    9   10 ar 
    12    9   11 ar 
    13   11   12 1  
    14    1   13 1  
    15    1   14 1  
    16    1   15 1  
    17    3   16 1  
    18    8   17 1  
    19   10   18 1  
    20   10   19 1  
    21   11   20 1  
@<TRIPOS>SUBSTRUCTURE
     1 9MG         1

