### 
### Created by X-TOOL on Mon Sep 10 21:13:33 2018
### 

@<TRIPOS>MOLECULE
5u0y_ligand
   22    23     1     0     0
SMALL
GAST_HUCK


@<TRIPOS>ATOM
      1 C1          9.0020    0.0540   24.3400 C.2       1 7PJ         0.0802
      2 C2          9.2580   -0.3890   25.6130 C.2       1 7PJ         0.1046
      3 C3          9.8530    0.9450   23.7450 C.2       1 7PJ         0.2092
      4 C4         11.0930    0.9060   25.6920 C.2       1 7PJ         0.2321
      5 C5          7.4830   -1.3660   25.0100 C.2       1 7PJ         0.1734
      6 C6          5.7430   -3.1310   22.2590 C.2       1 7PJ         0.0474
      7 C7          5.2540   -2.1500   23.3610 C.3       1 7PJ         0.0656
      8 N8         10.3120    0.0280   26.3320 N.2       1 7PJ        -0.2804
      9 N9          8.3100   -1.2770   26.0240 N.pl3     1 7PJ        -0.2405
     10 N10        10.9100    1.3730   24.4440 N.am      1 7PJ        -0.1853
     11 N11         7.8600   -0.5840   23.9560 N.2       1 7PJ        -0.3229
     12 N12        12.1970    1.3700   26.4140 N.pl3     1 7PJ        -0.2816
     13 O13         5.0190   -3.0640   21.2220 O.co2     1 7PJ        -0.5680
     14 O14         6.7580   -3.8690   22.4250 O.co2     1 7PJ        -0.5680
     15 O15         9.6440    1.4240   22.4970 O.2       1 7PJ        -0.4108
     16 S16         6.0530   -2.3720   24.9910 S.3       1 7PJ        -0.0359
     17 H1          4.1705   -2.2905   23.4886 H         1 7PJ         0.0574
     18 H2          5.4529   -1.1237   23.0189 H         1 7PJ         0.0574
     19 H3          8.2551   -1.7680   26.9278 H         1 7PJ         0.2365
     20 H4         11.5523    2.0281   24.0461 H         1 7PJ         0.2510
     21 H5         12.3649    1.0316   27.3722 H         1 7PJ         0.1892
     22 H6         12.8423    2.0502   25.9876 H         1 7PJ         0.1892
@<TRIPOS>BOND
     1    1    2 2  
     2    1    3 1  
     3   11    1 1  
     4    2    8 1  
     5    9    2 1  
     6    3   10 am 
     7    3   15 2  
     8    8    4 2  
     9   10    4 am 
    10    4   12 1  
    11    5    9 1  
    12    5   11 2  
    13   16    5 1  
    14    7    6 1  
    15    6   13 ar 
    16    6   14 ar 
    17    7   16 1  
    18    7   17 1  
    19    7   18 1  
    20    9   19 1  
    21   10   20 1  
    22   12   21 1  
    23   12   22 1  
@<TRIPOS>SUBSTRUCTURE
     1 7PJ         1

