### 
### Created by X-TOOL on Mon Sep 10 21:13:32 2018
### 

@<TRIPOS>MOLECULE
5u0z_ligand
   33    35     1     0     0
SMALL
GAST_HUCK


@<TRIPOS>ATOM
      1 C1          1.3610   -2.7680   23.9850 C.ar      1 7PM        -0.0685
      2 C2          1.8400   -1.5420   23.5530 C.ar      1 7PM        -0.0682
      3 C3          2.2430   -3.7630   24.3550 C.ar      1 7PM        -0.0682
      4 C4          3.1990   -1.3040   23.4890 C.ar      1 7PM        -0.0573
      5 C5          3.6030   -3.5190   24.2890 C.ar      1 7PM        -0.0573
      6 C6          4.0930   -2.2910   23.8600 C.ar      1 7PM        -0.0125
      7 C7          9.2900    0.1710   24.5570 C.2       1 7PM         0.3016
      8 C8          9.6120   -0.1770   25.8350 C.2       1 7PM         0.2583
      9 C9          7.7970   -1.1900   25.1790 C.2       1 7PM         0.2608
     10 C10        10.1270    1.1040   23.8480 C.2       1 7PM         0.3013
     11 C11        11.4050    1.0710   25.9540 C.cat     1 7PM         0.1928
     12 C12         6.1480   -2.9980   22.7510 C.2       1 7PM         0.0642
     13 C13         5.5680   -2.0110   23.7800 C.3       1 7PM         0.1230
     14 N14         8.1580   -0.4620   24.1310 N.pl3     1 7PM        -0.1497
     15 N15        10.6340    0.2270   26.5830 N.pl3     1 7PM        -0.2262
     16 N16         8.6570   -1.0540   26.2280 N.2       1 7PM        -0.1890
     17 N17        11.1890    1.5050   24.6420 N.am      1 7PM        -0.2440
     18 N18        12.5080    1.6230   26.5380 N.pl3     1 7PM        -0.3352
     19 O19         5.7600   -2.7610   21.5800 O.co2     1 7PM        -0.5648
     20 O20         9.9360    1.4960   22.7080 O.2       1 7PM        -0.3429
     21 O21         6.9050   -3.9390   23.1290 O.co2     1 7PM        -0.5648
     22 S22         6.4170   -2.2630   25.3670 S.3       1 7PM         0.0382
     23 H1          0.2928   -2.9460   24.0325 H         1 7PM         0.0560
     24 H2          1.1432   -0.7639   23.2631 H         1 7PM         0.0600
     25 H3          1.8743   -4.7246   24.6934 H         1 7PM         0.0600
     26 H4          3.5649   -0.3424   23.1476 H         1 7PM         0.0560
     27 H5          4.2987   -4.2989   24.5768 H         1 7PM         0.0560
     28 H6          5.7272   -0.9747   23.4473 H         1 7PM         0.0792
     29 H7          7.6946   -0.3911   23.2139 H         1 7PM         0.2698
     30 H8         10.7985   -0.0901   27.5491 H         1 7PM         0.2370
     31 H9         11.8462    2.1489   24.2503 H         1 7PM         0.1822
     32 H10        12.7593    1.3714   27.5047 H         1 7PM         0.1763
     33 H11        13.0892    2.2912   26.0121 H         1 7PM         0.1763
@<TRIPOS>BOND
     1    2    1 ar 
     2    3    1 ar 
     3    4    2 ar 
     4    5    3 ar 
     5    6    4 ar 
     6    6    5 ar 
     7   13    6 1  
     8    8    7 2  
     9    7   10 1  
    10   14    7 1  
    11    8   15 1  
    12   16    8 1  
    13    9   14 1  
    14    9   16 2  
    15   22    9 1  
    16   10   17 am 
    17   10   20 2  
    18   15   11 ar 
    19   11   17 ar 
    20   11   18 ar 
    21   13   12 1  
    22   12   19 ar 
    23   12   21 ar 
    24   13   22 1  
    25    1   23 1  
    26    2   24 1  
    27    3   25 1  
    28    4   26 1  
    29    5   27 1  
    30   13   28 1  
    31   14   29 1  
    32   15   30 1  
    33   17   31 1  
    34   18   32 1  
    35   18   33 1  
@<TRIPOS>SUBSTRUCTURE
     1 7PM         1

