### 
### Created by X-TOOL on Mon Sep 10 21:13:33 2018
### 

@<TRIPOS>MOLECULE
5u11_ligand
   27    28     1     0     0
SMALL
GAST_HUCK


@<TRIPOS>ATOM
      1 C1          9.5110    0.5780   24.4480 C.2       1 7PS         0.0802
      2 C2          9.8280    0.1630   25.7240 C.2       1 7PS         0.1046
      3 C3         10.3040    1.4910   23.7950 C.2       1 7PS         0.2092
      4 C4         11.6330    1.4970   25.6870 C.2       1 7PS         0.2321
      5 C5          8.0580   -0.8790   25.2020 C.2       1 7PS         0.1741
      6 C6          6.2460   -2.8030   22.6030 C.2       1 7PS         0.1885
      7 C7          5.0630   -3.8240   20.6500 C.3       1 7PS         0.0196
      8 C8          5.7930   -1.7940   23.6560 C.3       1 7PS         0.1024
      9 N9         10.9050    0.6090   26.3830 N.2       1 7PS        -0.2804
     10 N10         8.9140   -0.7390   26.1910 N.pl3     1 7PS        -0.2405
     11 N11        11.3810    1.9470   24.4420 N.am      1 7PS        -0.1853
     12 N12         8.3740   -0.0970   24.1270 N.2       1 7PS        -0.3229
     13 N13        12.7540    2.0040   26.3320 N.pl3     1 7PS        -0.2816
     14 N14         5.4300   -2.7000   21.4780 N.am      1 7PS        -0.2892
     15 O15         7.1880   -3.5890   22.7160 O.2       1 7PS        -0.3960
     16 O16        10.0380    1.9410   22.5240 O.2       1 7PS        -0.4108
     17 S17         6.6660   -1.9340   25.2410 S.3       1 7PS        -0.0292
     18 H1          4.4158   -3.4795   19.8300 H         1 7PS         0.0484
     19 H2          4.5226   -4.5655   21.2568 H         1 7PS         0.0484
     20 H3          5.9709   -4.2835   20.2322 H         1 7PS         0.0484
     21 H4          4.7188   -1.9444   23.8389 H         1 7PS         0.0647
     22 H5          5.9591   -0.7819   23.2585 H         1 7PS         0.0647
     23 H6          8.8987   -1.2042   27.1098 H         1 7PS         0.2365
     24 H7         11.9901    2.6115   24.0091 H         1 7PS         0.2510
     25 H8         12.9864    1.6892   27.2848 H         1 7PS         0.1892
     26 H9         13.3528    2.6948   25.8575 H         1 7PS         0.1892
     27 H10         5.0791   -1.7969   21.2305 H         1 7PS         0.1848
@<TRIPOS>BOND
     1    1    2 2  
     2    1    3 1  
     3   12    1 1  
     4    2    9 1  
     5   10    2 1  
     6    3   11 am 
     7    3   16 2  
     8    9    4 2  
     9   11    4 am 
    10    4   13 1  
    11    5   10 1  
    12    5   12 2  
    13   17    5 1  
    14    8    6 1  
    15    6   14 am 
    16    6   15 2  
    17   14    7 1  
    18    8   17 1  
    19    7   18 1  
    20    7   19 1  
    21    7   20 1  
    22    8   21 1  
    23    8   22 1  
    24   10   23 1  
    25   11   24 1  
    26   13   25 1  
    27   13   26 1  
    28   14   27 1  
@<TRIPOS>SUBSTRUCTURE
     1 7PS         1

