### 
### Created by X-TOOL on Mon Sep 10 21:13:32 2018
### 

@<TRIPOS>MOLECULE
5u12_ligand
   30    32     1     0     0
SMALL
GAST_HUCK


@<TRIPOS>ATOM
      1 C11        -2.3420  -12.1610   71.8530 C.ar      1 5RU        -0.0725
      2 C12        -1.1080  -11.9920   72.4480 C.ar      1 5RU        -0.0706
      3 C10        -2.6280  -11.5000   70.6760 C.ar      1 5RU        -0.0610
      4 C13        -0.1610  -11.1630   71.8740 C.ar      1 5RU        -0.0349
      5 C9         -1.6860  -10.6650   70.1070 C.ar      1 5RU         0.0033
      6 C3         -3.4510   -5.6780   68.7800 C.2       1 5RU         0.0802
      7 C14        -0.4480  -10.4990   70.7030 C.ar      1 5RU         0.1340
      8 C4         -3.9500   -5.7870   67.4960 C.2       1 5RU         0.1046
      9 C2         -3.2620   -4.4180   69.3140 C.2       1 5RU         0.2092
     10 C18        -4.0500   -3.5150   67.3170 C.2       1 5RU         0.2321
     11 C6         -3.6510   -7.7800   68.1770 C.2       1 5RU         0.1737
     12 C8         -1.9330   -9.9370   68.8450 C.3       1 5RU         0.0475
     13 N17        -4.2610   -4.7140   66.7390 N.2       1 5RU        -0.2804
     14 N5         -4.0760   -7.1040   67.1300 N.pl3     1 5RU        -0.2405
     15 N20        -3.5680   -3.3400   68.5740 N.am      1 5RU        -0.1853
     16 N16        -3.2590   -6.9730   69.2080 N.2       1 5RU        -0.3229
     17 N19        -4.3450   -2.3520   66.5520 N.pl3     1 5RU        -0.2816
     18 O1         -2.7580   -4.1900   70.5720 O.2       1 5RU        -0.4108
     19 F15         0.4970   -9.6920   70.1600 F         1 5RU        -0.1890
     20 S7         -3.5960   -9.5180   68.3360 S.3       1 5RU        -0.0378
     21 H1         -3.0822  -12.8093   72.3078 H         1 5RU         0.0565
     22 H2         -0.8795  -12.5123   73.3711 H         1 5RU         0.0549
     23 H3         -3.5914  -11.6359   70.1981 H         1 5RU         0.0546
     24 H4          0.8065  -11.0364   72.3461 H         1 5RU         0.0585
     25 H5         -1.5047  -10.5519   68.0398 H         1 5RU         0.0561
     26 H6         -1.3793   -8.9892   68.9167 H         1 5RU         0.0561
     27 H7         -4.4249   -7.4793   66.2365 H         1 5RU         0.2365
     28 H8         -3.4424   -2.4196   68.9443 H         1 5RU         0.2510
     29 H9         -4.7123   -2.4451   65.5942 H         1 5RU         0.1892
     30 H10        -4.1912   -1.4171   66.9560 H         1 5RU         0.1892
@<TRIPOS>BOND
     1    1    2 ar 
     2    3    1 ar 
     3    4    2 ar 
     4    5    3 ar 
     5    7    4 ar 
     6    5    7 ar 
     7   12    5 1  
     8    6    8 2  
     9    6    9 1  
    10   16    6 1  
    11    7   19 1  
    12    8   13 1  
    13   14    8 1  
    14    9   15 am 
    15    9   18 2  
    16   13   10 2  
    17   15   10 am 
    18   10   17 1  
    19   11   14 1  
    20   11   16 2  
    21   20   11 1  
    22   12   20 1  
    23    1   21 1  
    24    2   22 1  
    25    3   23 1  
    26    4   24 1  
    27   12   25 1  
    28   12   26 1  
    29   14   27 1  
    30   15   28 1  
    31   17   29 1  
    32   17   30 1  
@<TRIPOS>SUBSTRUCTURE
     1 5RU         1

