### 
### Created by X-TOOL on Mon Sep 10 21:13:32 2018
### 

@<TRIPOS>MOLECULE
5u13_ligand
   37    39     1     0     0
SMALL
GAST_HUCK


@<TRIPOS>ATOM
      1 C1         10.3860    1.5700   23.7100 C.2       1 YH5         0.3013
      2 O1         10.1810    1.9890   22.5840 O.2       1 YH5        -0.3429
      3 N1          8.4500   -0.0620   23.9330 N.pl3     1 YH5        -0.1498
      4 S1          6.7910   -1.9300   25.2080 S.3       1 YH5         0.0260
      5 C10         4.7390   -4.4780   19.7030 C.ar      1 YH5        -0.0266
      6 C11         3.6930   -3.5930   19.4990 C.ar      1 YH5         0.0966
      7 C12         3.4920   -2.5250   20.3430 C.ar      1 YH5        -0.0266
      8 C13         4.3390   -2.3360   21.3970 C.ar      1 YH5        -0.0514
      9 C14         2.4410   -5.0870   18.2200 C.3       1 YH5         0.0608
     10 N2          8.9730   -0.6750   26.0520 N.2       1 YH5        -0.1891
     11 C2          9.5710    0.5920   24.3880 C.2       1 YH5         0.3016
     12 O2          7.2580   -3.8490   22.8650 O.2       1 YH5        -0.3827
     13 N3         10.9210    0.6330   26.4480 N.pl3     1 YH5        -0.2262
     14 C3          8.1220   -0.8130   24.9810 C.2       1 YH5         0.2590
     15 O3          2.7870   -3.7140   18.4480 O.3       1 YH5        -0.3175
     16 C4          9.9090    0.2300   25.6700 C.2       1 YH5         0.2583
     17 N4         11.4310    1.9670   24.5300 N.am      1 YH5        -0.2440
     18 C5         11.6730    1.5130   25.8510 C.cat     1 YH5         0.1928
     19 N5         12.7670    2.0910   26.4690 N.pl3     1 YH5        -0.3352
     20 C6          6.0010   -1.8620   23.6000 C.3       1 YH5         0.0993
     21 C7          6.3270   -3.0540   22.7260 C.2       1 YH5         0.1394
     22 C8          5.3860   -3.2180   21.6060 C.ar      1 YH5         0.0225
     23 C9          5.5850   -4.2830   20.7640 C.ar      1 YH5        -0.0514
     24 H1          7.9845    0.0108   23.0171 H         1 YH5         0.2698
     25 H2          4.8870   -5.3156   19.0310 H         1 YH5         0.0558
     26 H3          2.6691   -1.8403   20.1727 H         1 YH5         0.0558
     27 H4          4.1923   -1.4977   22.0685 H         1 YH5         0.0645
     28 H5          1.7260   -5.1514   17.3865 H         1 YH5         0.0580
     29 H6          1.9836   -5.5056   19.1286 H         1 YH5         0.0580
     30 H7          3.3479   -5.6570   17.9699 H         1 YH5         0.0580
     31 H8         11.0854    0.2883   27.4046 H         1 YH5         0.2370
     32 H9         12.0734    2.6354   24.1550 H         1 YH5         0.1822
     33 H10        13.0177    1.8205   27.4307 H         1 YH5         0.1763
     34 H11        13.3310    2.7919   25.9675 H         1 YH5         0.1763
     35 H12         6.3342   -0.9490   23.0848 H         1 YH5         0.0650
     36 H13         4.9115   -1.8234   23.7468 H         1 YH5         0.0650
     37 H14         6.4077   -4.9673   20.9370 H         1 YH5         0.0645
@<TRIPOS>BOND
     1    1    2 2  
     2   11    1 1  
     3    1   17 am 
     4    3   11 1  
     5   14    3 1  
     6    4   14 1  
     7   20    4 1  
     8    6    5 ar 
     9    5   23 ar 
    10    7    6 ar 
    11    6   15 1  
    12    8    7 ar 
    13   22    8 ar 
    14   15    9 1  
    15   14   10 2  
    16   10   16 1  
    17   16   11 2  
    18   21   12 2  
    19   16   13 1  
    20   13   18 ar 
    21   18   17 ar 
    22   18   19 ar 
    23   21   20 1  
    24   21   22 1  
    25   22   23 ar 
    26    3   24 1  
    27    5   25 1  
    28    7   26 1  
    29    8   27 1  
    30    9   28 1  
    31    9   29 1  
    32    9   30 1  
    33   13   31 1  
    34   17   32 1  
    35   19   33 1  
    36   19   34 1  
    37   20   35 1  
    38   20   36 1  
    39   23   37 1  
@<TRIPOS>SUBSTRUCTURE
     1 YH5         1

