### 
### Created by X-TOOL on Mon Sep 10 21:13:33 2018
### 

@<TRIPOS>MOLECULE
5u14_ligand
   39    41     1     0     0
SMALL
GAST_HUCK


@<TRIPOS>ATOM
      1 C10        68.0860   -1.1200  101.4700 C.ar      1 7PV        -0.0418
      2 C13        67.1570   -0.3940   98.9790 C.ar      1 7PV         0.1009
      3 C21        73.9330    0.2500  103.0540 C.2       1 7PV         0.3016
      4 C22        74.7490    1.1730  102.3490 C.2       1 7PV         0.3013
      5 N01        77.3810    1.7060  104.7920 N.pl3     1 7PV        -0.3352
      6 C02        76.1890    1.1890  104.1820 C.cat     1 7PV         0.1928
      7 N03        75.4640    0.3220  104.8830 N.pl3     1 7PV        -0.2262
      8 C04        74.3190   -0.1550  104.3190 C.2       1 7PV         0.2583
      9 N05        73.3760   -0.9980  104.7730 N.2       1 7PV        -0.1893
     10 C06        72.4660   -1.1340  103.8490 C.2       1 7PV         0.2569
     11 S07        71.0050   -2.1680  104.0320 S.3       1 7PV         0.0084
     12 C08        70.0870   -1.8300  102.5320 C.3       1 7PV         0.0360
     13 C09        68.6370   -1.4750  102.8280 C.3       1 7PV        -0.0056
     14 C11        67.7990   -2.1180  100.5410 C.ar      1 7PV        -0.0585
     15 C12        67.3280   -1.7560   99.2890 C.ar      1 7PV        -0.0419
     16 S14        66.5640    0.1170   97.3530 S.o2      1 7PV         0.0628
     17 N15        64.9710    0.6480   97.2930 N.am      1 7PV        -0.2617
     18 O16        67.4320    1.1330   96.7660 O.2       1 7PV        -0.1514
     19 O17        66.8340   -1.0660   96.5050 O.2       1 7PV        -0.1514
     20 C18        67.4720    0.5960   99.8950 C.ar      1 7PV        -0.0419
     21 C19        67.9460    0.2300  101.1350 C.ar      1 7PV        -0.0585
     22 N20        72.7650   -0.3930  102.7950 N.pl3     1 7PV        -0.1500
     23 O23        74.4870    1.5620  101.2460 O.2       1 7PV        -0.3429
     24 N24        75.8350    1.5910  102.9430 N.am      1 7PV        -0.2440
     25 H1         77.6505    1.3988  105.7375 H         1 7PV         0.1763
     26 H2         77.9668    2.3842  104.2843 H         1 7PV         0.1763
     27 H3         75.7588    0.0206  105.8228 H         1 7PV         0.2370
     28 H4         70.1115   -2.7229  101.8900 H         1 7PV         0.0452
     29 H5         70.5602   -0.9874  102.0065 H         1 7PV         0.0452
     30 H6         68.1009   -2.3332  103.2594 H         1 7PV         0.0437
     31 H7         68.5729   -0.6191  103.5159 H         1 7PV         0.0437
     32 H8         67.9421   -3.1623  100.7939 H         1 7PV         0.0557
     33 H9         67.0929   -2.5168   98.5535 H         1 7PV         0.0619
     34 H10        64.5759    0.9465   96.4242 H         1 7PV         0.1634
     35 H11        64.4181    0.6655   98.1260 H         1 7PV         0.1634
     36 H12        67.3474    1.6422   99.6399 H         1 7PV         0.0619
     37 H13        68.2124    0.9940  101.8564 H         1 7PV         0.0557
     38 H14        72.2101   -0.3170  101.9306 H         1 7PV         0.2698
     39 H15        76.4282    2.2351  102.4600 H         1 7PV         0.1822
@<TRIPOS>BOND
     1    1   13 1  
     2   14    1 ar 
     3    1   21 ar 
     4   15    2 ar 
     5    2   16 1  
     6    2   20 ar 
     7    3    4 1  
     8    3    8 2  
     9   22    3 1  
    10    4   23 2  
    11    4   24 am 
    12    6    5 ar 
    13    7    6 ar 
    14   24    6 ar 
    15    8    7 1  
    16    9    8 1  
    17   10    9 2  
    18   11   10 1  
    19   10   22 1  
    20   12   11 1  
    21   13   12 1  
    22   14   15 ar 
    23   16   17 am 
    24   16   18 2  
    25   16   19 2  
    26   20   21 ar 
    27    5   25 1  
    28    5   26 1  
    29    7   27 1  
    30   12   28 1  
    31   12   29 1  
    32   13   30 1  
    33   13   31 1  
    34   14   32 1  
    35   15   33 1  
    36   17   34 1  
    37   17   35 1  
    38   20   36 1  
    39   21   37 1  
    40   22   38 1  
    41   24   39 1  
@<TRIPOS>SUBSTRUCTURE
     1 7PV         1

