### 
### Created by X-TOOL on Mon Sep 10 21:13:32 2018
### 

@<TRIPOS>MOLECULE
5u28_ligand
   43    47     1     0     0
SMALL
GAST_HUCK


@<TRIPOS>ATOM
      1 C10       -16.8260    4.7040    8.8050 C.3       1 82V         0.0603
      2 C13       -17.5460    2.8140    3.9970 C.2       1 82V         0.0960
      3 C15       -16.4280    1.2390    2.5060 C.2       1 82V         0.0083
      4 C17       -14.7690    0.2550    4.1180 C.ar      1 82V        -0.0462
      5 C20       -12.6320   -1.5280    4.8440 C.ar      1 82V         0.1183
      6 C22       -11.8440   -3.7520    4.9480 C.3       1 82V         0.0950
      7 C26       -14.6670   -1.0560    3.6650 C.ar      1 82V        -0.0386
      8 O01       -19.3370    4.4520    4.1000 O.2       1 82V        -0.4528
      9 C02       -18.4040    3.8340    4.6120 C.2       1 82V         0.0778
     10 C03       -17.9910    4.0380    6.0350 C.2       1 82V         0.0034
     11 C04       -16.9060    3.4740    6.5540 C.2       1 82V         0.2093
     12 N05       -16.4540    3.5810    7.9040 N.pl3     1 82V        -0.2595
     13 C06       -15.5710    2.5220    8.5460 C.3       1 82V         0.0603
     14 C07       -14.9550    2.8410    9.9350 C.3       1 82V         0.0688
     15 O08       -14.9420    4.1910   10.2190 O.3       1 82V        -0.3756
     16 C09       -16.2190    4.6840   10.2100 C.3       1 82V         0.0688
     17 O11       -16.3250    2.3870    5.9230 O.3       1 82V        -0.2160
     18 C12       -16.5790    2.1400    4.6230 C.2       1 82V         0.1465
     19 S14       -17.6960    2.3620    2.3330 S.3       1 82V        -0.0404
     20 C16       -15.8760    1.1720    3.7380 C.2       1 82V         0.0159
     21 C18       -13.7410    0.6440    4.9940 C.ar      1 82V        -0.0781
     22 C19       -12.6880   -0.2290    5.3500 C.ar      1 82V        -0.0429
     23 O21       -11.6090   -2.3630    5.1780 O.3       1 82V        -0.3199
     24 C23       -12.5260   -4.0230    3.6500 C.3       1 82V         0.0951
     25 O24       -13.6590   -3.2030    3.4550 O.3       1 82V        -0.3197
     26 C25       -13.6440   -1.9540    3.9800 C.ar      1 82V         0.1178
     27 H1        -17.9205    4.6961    8.9140 H         1 82V         0.0554
     28 H2        -16.5126    5.6398    8.3192 H         1 82V         0.0554
     29 H3        -16.0851    0.6171    1.6804 H         1 82V         0.0811
     30 H4        -12.4739   -4.1400    5.7620 H         1 82V         0.0636
     31 H5        -10.8768   -4.2759    4.9512 H         1 82V         0.0636
     32 H6        -15.4520   -1.4133    3.0083 H         1 82V         0.0481
     33 H7        -18.6044    4.6744    6.6711 H         1 82V         0.0124
     34 H8        -14.7383    2.3254    7.8547 H         1 82V         0.0554
     35 H9        -16.1780    1.6114    8.6572 H         1 82V         0.0554
     36 H10       -13.9202    2.4683    9.9541 H         1 82V         0.0581
     37 H11       -15.5447    2.3255   10.7073 H         1 82V         0.0581
     38 H12       -16.8460    4.0529   10.8569 H         1 82V         0.0581
     39 H13       -16.2040    5.7112   10.6032 H         1 82V         0.0581
     40 H14       -13.7562    1.6450    5.4096 H         1 82V         0.0476
     41 H15       -11.9133    0.1154    6.0254 H         1 82V         0.0508
     42 H16       -12.8446   -5.0757    3.6315 H         1 82V         0.0636
     43 H17       -11.8135   -3.8411    2.8320 H         1 82V         0.0636
@<TRIPOS>BOND
     1   12    1 1  
     2    1   16 1  
     3    9    2 1  
     4    2   18 2  
     5    2   19 1  
     6   19    3 1  
     7    3   20 2  
     8    4    7 ar 
     9   20    4 1  
    10    4   21 ar 
    11    5   22 ar 
    12    5   23 1  
    13   26    5 ar 
    14   23    6 1  
    15    6   24 1  
    16    7   26 ar 
    17    9    8 2  
    18   10    9 1  
    19   11   10 2  
    20   11   12 1  
    21   11   17 1  
    22   12   13 1  
    23   13   14 1  
    24   14   15 1  
    25   15   16 1  
    26   17   18 1  
    27   18   20 1  
    28   21   22 ar 
    29   24   25 1  
    30   25   26 1  
    31    1   27 1  
    32    1   28 1  
    33    3   29 1  
    34    6   30 1  
    35    6   31 1  
    36    7   32 1  
    37   10   33 1  
    38   13   34 1  
    39   13   35 1  
    40   14   36 1  
    41   14   37 1  
    42   16   38 1  
    43   16   39 1  
    44   21   40 1  
    45   22   41 1  
    46   24   42 1  
    47   24   43 1  
@<TRIPOS>SUBSTRUCTURE
     1 82V         1

