### 
### Created by X-TOOL on Mon Sep 10 21:13:34 2018
### 

@<TRIPOS>MOLECULE
5u2c_ligand
   45    48     1     0     0
SMALL
GAST_HUCK


@<TRIPOS>ATOM
      1 C10        -5.2580   44.6590   14.6220 C.ar      1 82Y        -0.0460
      2 C15        -8.2260   42.6760   11.8190 C.2       1 82Y         0.1149
      3 C17       -10.0370   44.4270   11.7440 C.3       1 82Y         0.1201
      4 C22       -11.3130   46.5310   11.2600 C.3       1 82Y        -0.0047
      5 C26        -9.2900   46.6500   12.6130 C.3       1 82Y        -0.0047
      6 O01        -1.8930   44.2940   18.2920 O.3       1 82Y        -0.2721
      7 N02        -2.6410   43.7150   17.2670 N.am      1 82Y        -0.1640
      8 C03        -3.5920   44.4980   16.5530 C.2       1 82Y         0.2244
      9 O04        -3.7470   45.6560   16.8330 O.2       1 82Y        -0.3871
     10 C05        -4.4300   43.8600   15.4170 C.ar      1 82Y         0.0470
     11 C06        -4.3660   42.4610   15.1800 C.ar      1 82Y        -0.0460
     12 C07        -5.1370   41.8700   14.1370 C.ar      1 82Y        -0.0547
     13 C08        -5.9700   42.6810   13.3330 C.ar      1 82Y        -0.0233
     14 C09        -6.0320   44.0690   13.5750 C.ar      1 82Y        -0.0547
     15 C11        -6.8410   42.1100   12.1790 C.2       1 82Y         0.0235
     16 C12        -6.5330   41.0200   11.2580 C.2       1 82Y         0.0149
     17 S13        -7.7560   40.8170   10.2250 S.3       1 82Y        -0.0375
     18 C14        -8.7990   41.9820   10.7170 C.2       1 82Y         0.1027
     19 O16        -8.9050   43.8080   12.5290 O.3       1 82Y        -0.2762
     20 C18       -10.6310   43.6710   10.5940 C.3       1 82Y         0.0902
     21 C19       -10.1030   42.3700   10.2350 C.2       1 82Y         0.1267
     22 O20       -10.7510   41.6150    9.5360 O.2       1 82Y        -0.4002
     23 N21       -10.2120   45.8840   11.8760 N.4       1 82Y         0.2653
     24 C23       -11.4200   48.0030   11.5660 C.3       1 82Y         0.0878
     25 O24       -10.1540   48.6190   11.3650 O.3       1 82Y        -0.3693
     26 C25        -9.2300   48.1630   12.3300 C.3       1 82Y         0.0878
     27 H1         -5.3129   45.7269   14.8000 H         1 82Y         0.0657
     28 H2        -10.8309   44.1590   12.4567 H         1 82Y         0.1269
     29 H3        -12.2361   46.0404   11.6023 H         1 82Y         0.0838
     30 H4        -11.2167   46.4121   10.1707 H         1 82Y         0.0838
     31 H5         -8.2890   46.2388   12.4159 H         1 82Y         0.0838
     32 H6         -9.5350   46.5242   13.6780 H         1 82Y         0.0838
     33 H7         -1.3097   43.6427   18.6636 H         1 82Y         0.2491
     34 H8         -2.5096   42.7515   17.0339 H         1 82Y         0.2211
     35 H9         -3.7269   41.8390   15.7961 H         1 82Y         0.0657
     36 H10        -5.0847   40.8017   13.9609 H         1 82Y         0.0597
     37 H11        -6.6718   44.6935   12.9621 H         1 82Y         0.0597
     38 H12        -5.6161   40.4325   11.2668 H         1 82Y         0.0875
     39 H13       -10.5292   44.3117    9.7057 H         1 82Y         0.0561
     40 H14       -11.6974   43.5291   10.8235 H         1 82Y         0.0561
     41 H15       -10.7604   45.7400   12.7094 H         1 82Y         0.2069
     42 H16       -11.7326   48.1390   12.6118 H         1 82Y         0.0613
     43 H17       -12.1628   48.4639   10.8983 H         1 82Y         0.0613
     44 H18        -8.2171   48.4057   11.9762 H         1 82Y         0.0613
     45 H19        -9.4270   48.6960   13.2719 H         1 82Y         0.0613
@<TRIPOS>BOND
     1    1   10 ar 
     2   14    1 ar 
     3   15    2 1  
     4    2   18 2  
     5    2   19 1  
     6   19    3 1  
     7    3   20 1  
     8    3   23 1  
     9   23    4 1  
    10    4   24 1  
    11   23    5 1  
    12    5   26 1  
    13    7    6 1  
    14    8    7 am 
    15    8    9 2  
    16   10    8 1  
    17   11   10 ar 
    18   12   11 ar 
    19   13   12 ar 
    20   13   14 ar 
    21   13   15 1  
    22   15   16 2  
    23   16   17 1  
    24   17   18 1  
    25   18   21 1  
    26   20   21 1  
    27   21   22 2  
    28   24   25 1  
    29   25   26 1  
    30    1   27 1  
    31    3   28 1  
    32    4   29 1  
    33    4   30 1  
    34    5   31 1  
    35    5   32 1  
    36    6   33 1  
    37    7   34 1  
    38   11   35 1  
    39   12   36 1  
    40   14   37 1  
    41   16   38 1  
    42   20   39 1  
    43   20   40 1  
    44   23   41 1  
    45   24   42 1  
    46   24   43 1  
    47   26   44 1  
    48   26   45 1  
@<TRIPOS>SUBSTRUCTURE
     1 82Y         1

