### 
### Created by X-TOOL on Mon Sep 10 21:13:33 2018
### 

@<TRIPOS>MOLECULE
5u2e_ligand
   49    52     1     0     0
SMALL
GAST_HUCK


@<TRIPOS>ATOM
      1 C10       -34.0580   12.7590   -4.2940 C.ar      1 837        -0.0544
      2 C13       -31.5230   14.7520   -6.3170 C.2       1 837         0.0150
      3 C15       -32.1030   16.6950   -4.8090 C.2       1 837         0.1027
      4 C20       -32.2530   17.9060   -4.0170 C.2       1 837         0.1267
      5 C24       -36.4230   17.5460    0.1290 C.3       1 837         0.0878
      6 C26       -36.7110   15.3380   -0.3630 C.3       1 837         0.0878
      7 C01       -38.6480    8.3240   -7.0710 C.3       1 837        -0.0373
      8 C02       -37.5640    8.1710   -6.0000 C.3       1 837         0.0728
      9 O03       -36.4340    8.9430   -6.3270 O.3       1 837        -0.2785
     10 C04       -35.9120    9.5680   -5.1930 C.2       1 837         0.2598
     11 O05       -36.1560    9.0990   -4.1240 O.2       1 837        -0.3592
     12 C06       -35.0670   10.8410   -5.3100 C.ar      1 837         0.0575
     13 C07       -34.5440   11.2310   -6.5330 C.ar      1 837        -0.0447
     14 C08       -33.7770   12.3900   -6.6520 C.ar      1 837        -0.0544
     15 C09       -33.5500   13.1580   -5.5250 C.ar      1 837        -0.0230
     16 C11       -34.8270   11.6080   -4.1740 C.ar      1 837        -0.0447
     17 C12       -32.7070   14.4280   -5.5520 C.2       1 837         0.0237
     18 S14       -31.0030   16.2770   -5.9440 S.3       1 837        -0.0374
     19 C16       -33.0280   15.6110   -4.6350 C.2       1 837         0.1150
     20 O17       -34.1540   15.6740   -3.6940 O.3       1 837        -0.2762
     21 C18       -34.2790   16.8800   -2.8950 C.3       1 837         0.1201
     22 C19       -33.2030   17.9200   -2.9450 C.3       1 837         0.0902
     23 O21       -31.5750   18.8610   -4.2210 O.2       1 837        -0.4002
     24 N22       -34.9860   16.6600   -1.6720 N.4       1 837         0.2653
     25 C23       -35.1100   17.6750   -0.6130 C.3       1 837        -0.0047
     26 O25       -36.5020   16.2650    0.6370 O.3       1 837        -0.3693
     27 C27       -35.6090   15.3560   -1.4140 C.3       1 837        -0.0047
     28 H1        -33.8507   13.3558   -3.4131 H         1 837         0.0598
     29 H2        -31.0434   14.0880   -7.0346 H         1 837         0.0876
     30 H3        -37.2608   17.7263   -0.5606 H         1 837         0.0613
     31 H4        -36.4607   18.2763    0.9507 H         1 837         0.0613
     32 H5        -37.6703   15.5587   -0.8539 H         1 837         0.0613
     33 H6        -36.7520   14.3356    0.0880 H         1 837         0.0613
     34 H7        -39.5218    7.7141   -6.7980 H         1 837         0.0255
     35 H8        -38.2547    7.9874   -8.0415 H         1 837         0.0255
     36 H9        -38.9462    9.3804   -7.1426 H         1 837         0.0255
     37 H10       -37.2713    7.1130   -5.9301 H         1 837         0.0608
     38 H11       -37.9628    8.5060   -5.0311 H         1 837         0.0608
     39 H12       -34.7342   10.6252   -7.4116 H         1 837         0.0660
     40 H13       -33.3661   12.6834   -7.6113 H         1 837         0.0598
     41 H14       -35.2326   11.3129   -3.2130 H         1 837         0.0660
     42 H15       -35.0513   17.4112   -3.4707 H         1 837         0.1269
     43 H16       -33.7056   18.8979   -2.9766 H         1 837         0.0561
     44 H17       -32.6304   17.8320   -2.0099 H         1 837         0.0561
     45 H18       -35.8307   16.9995   -2.1047 H         1 837         0.2069
     46 H19       -34.2824   17.5496    0.1007 H         1 837         0.0838
     47 H20       -35.0535   18.6748   -1.0681 H         1 837         0.0838
     48 H21       -36.0402   14.9962   -2.3598 H         1 837         0.0838
     49 H22       -34.8189   14.6650   -1.0849 H         1 837         0.0838
@<TRIPOS>BOND
     1   15    1 ar 
     2    1   16 ar 
     3   17    2 2  
     4   18    2 1  
     5    4    3 1  
     6    3   18 1  
     7   19    3 2  
     8   22    4 1  
     9    4   23 2  
    10   25    5 1  
    11    5   26 1  
    12   26    6 1  
    13    6   27 1  
    14    8    7 1  
    15    9    8 1  
    16   10    9 1  
    17   10   11 2  
    18   12   10 1  
    19   13   12 ar 
    20   16   12 ar 
    21   14   13 ar 
    22   15   14 ar 
    23   17   15 1  
    24   19   17 1  
    25   20   19 1  
    26   21   20 1  
    27   21   22 1  
    28   24   21 1  
    29   24   25 1  
    30   24   27 1  
    31    1   28 1  
    32    2   29 1  
    33    5   30 1  
    34    5   31 1  
    35    6   32 1  
    36    6   33 1  
    37    7   34 1  
    38    7   35 1  
    39    7   36 1  
    40    8   37 1  
    41    8   38 1  
    42   13   39 1  
    43   14   40 1  
    44   16   41 1  
    45   21   42 1  
    46   22   43 1  
    47   22   44 1  
    48   24   45 1  
    49   25   46 1  
    50   25   47 1  
    51   27   48 1  
    52   27   49 1  
@<TRIPOS>SUBSTRUCTURE
     1 837         1

