### 
### Created by X-TOOL on Mon Sep 10 21:13:34 2018
### 

@<TRIPOS>MOLECULE
5u2f_ligand
   45    48     1     0     0
SMALL
GAST_HUCK


@<TRIPOS>ATOM
      1 C10        27.3250  -11.7820   -4.3930 C.ar      1 82Y        -0.0460
      2 C15        26.9040  -16.0280   -2.8870 C.2       1 82Y         0.1149
      3 C17        28.8660  -17.2730   -3.8380 C.3       1 82Y         0.1201
      4 C22        31.3070  -18.0500   -4.1210 C.3       1 82Y        -0.0047
      5 C26        30.6600  -15.8720   -5.0090 C.3       1 82Y        -0.0047
      6 O01        27.6140   -7.9900   -6.5080 O.3       1 82Y        -0.2721
      7 N02        27.5390   -9.1970   -5.7900 N.am      1 82Y        -0.1640
      8 C03        26.2490   -9.8380   -5.5810 C.2       1 82Y         0.2244
      9 O04        25.2600   -9.3460   -6.0130 O.2       1 82Y        -0.3871
     10 C05        26.1600  -11.1510   -4.8000 C.ar      1 82Y         0.0470
     11 C06        24.9190  -11.7040   -4.5010 C.ar      1 82Y        -0.0460
     12 C07        24.8440  -12.8960   -3.7950 C.ar      1 82Y        -0.0547
     13 C08        26.0140  -13.5230   -3.3860 C.ar      1 82Y        -0.0233
     14 C09        27.2490  -12.9700   -3.6860 C.ar      1 82Y        -0.0547
     15 C11        25.9730  -14.8350   -2.6040 C.2       1 82Y         0.0235
     16 C12        25.0920  -15.1510   -1.4880 C.2       1 82Y         0.0149
     17 S13        25.4220  -16.6720   -0.9650 S.3       1 82Y        -0.0375
     18 C14        26.6240  -17.1140   -1.9700 C.2       1 82Y         0.1027
     19 O16        27.9630  -16.1230   -3.9440 O.3       1 82Y        -0.2762
     20 C18        28.5380  -18.4210   -2.9180 C.3       1 82Y         0.0902
     21 C19        27.3910  -18.3580   -2.0590 C.2       1 82Y         0.1267
     22 O20        27.0690  -19.3070   -1.4250 O.2       1 82Y        -0.4002
     23 N21        30.2240  -17.0840   -4.3100 N.4       1 82Y         0.2653
     24 C23        32.2530  -18.1690   -5.3110 C.3       1 82Y         0.0878
     25 O24        32.6890  -16.9400   -5.7710 O.3       1 82Y        -0.3693
     26 C25        31.6320  -16.1350   -6.1560 C.3       1 82Y         0.0878
     27 H1         28.2903  -11.3478   -4.6269 H         1 82Y         0.0657
     28 H2         28.5051  -17.7755   -4.7475 H         1 82Y         0.1269
     29 H3         30.8598  -19.0378   -3.9357 H         1 82Y         0.0838
     30 H4         31.8941  -17.7427   -3.2430 H         1 82Y         0.0838
     31 H5         31.1538  -15.2112   -4.2813 H         1 82Y         0.0838
     32 H6         29.7710  -15.3688   -5.4170 H         1 82Y         0.0838
     33 H7         28.5194   -7.7062   -6.5545 H         1 82Y         0.2491
     34 H8         28.3707   -9.6142   -5.4236 H         1 82Y         0.2211
     35 H9         24.0114  -11.2040   -4.8193 H         1 82Y         0.0657
     36 H10        23.8799  -13.3346   -3.5644 H         1 82Y         0.0597
     37 H11        28.1570  -13.4685   -3.3665 H         1 82Y         0.0597
     38 H12        24.3376  -14.4869   -1.0689 H         1 82Y         0.0875
     39 H13        29.4128  -18.5632   -2.2664 H         1 82Y         0.0561
     40 H14        28.4070  -19.3083   -3.5548 H         1 82Y         0.0561
     41 H15        29.9633  -17.5203   -5.1805 H         1 82Y         0.2069
     42 H16        31.7273  -18.6843   -6.1283 H         1 82Y         0.0613
     43 H17        33.1284  -18.7616   -5.0068 H         1 82Y         0.0613
     44 H18        32.0303  -15.1729   -6.5105 H         1 82Y         0.0613
     45 H19        31.0888  -16.6308   -6.9740 H         1 82Y         0.0613
@<TRIPOS>BOND
     1    1   10 ar 
     2   14    1 ar 
     3   15    2 1  
     4    2   18 2  
     5    2   19 1  
     6   19    3 1  
     7    3   20 1  
     8    3   23 1  
     9   23    4 1  
    10    4   24 1  
    11   23    5 1  
    12    5   26 1  
    13    7    6 1  
    14    8    7 am 
    15    8    9 2  
    16   10    8 1  
    17   11   10 ar 
    18   12   11 ar 
    19   13   12 ar 
    20   13   14 ar 
    21   13   15 1  
    22   15   16 2  
    23   16   17 1  
    24   17   18 1  
    25   18   21 1  
    26   20   21 1  
    27   21   22 2  
    28   24   25 1  
    29   25   26 1  
    30    1   27 1  
    31    3   28 1  
    32    4   29 1  
    33    4   30 1  
    34    5   31 1  
    35    5   32 1  
    36    6   33 1  
    37    7   34 1  
    38   11   35 1  
    39   12   36 1  
    40   14   37 1  
    41   16   38 1  
    42   20   39 1  
    43   20   40 1  
    44   23   41 1  
    45   24   42 1  
    46   24   43 1  
    47   26   44 1  
    48   26   45 1  
@<TRIPOS>SUBSTRUCTURE
     1 82Y         1

