### 
### Created by X-TOOL on Mon Sep 10 21:13:32 2018
### 

@<TRIPOS>MOLECULE
5u3b_ligand
   45    45     1     0     0
SMALL
GAST_HUCK


@<TRIPOS>ATOM
      1 C1         16.0560  -15.9870   11.9230 C.3       1 7TD         0.1768
      2 C2         15.5270  -14.9730   12.9740 C.2       1 7TD         0.2303
      3 C3         16.4750  -15.3880   10.5250 C.3       1 7TD         0.0214
      4 O1         14.4840  -14.3460   12.7720 O.2       1 7TD        -0.3942
      5 O2         11.3600  -22.4190   11.0480 O.3       1 7TD        -0.3020
      6 O3         16.5580  -18.7680   11.9150 O.2       1 7TD        -0.3896
      7 C11        14.2790  -19.3950   11.6500 C.ar      1 7TD         0.0386
      8 C12        12.8980  -19.0250   11.6560 C.ar      1 7TD        -0.0504
      9 C13        11.8960  -20.0130   11.4810 C.ar      1 7TD        -0.0268
     10 C14        15.3890  -18.3830   11.8110 C.2       1 7TD         0.1992
     11 C15         8.5840  -24.4090   10.2730 C.1       1 7TD        -0.1029
     12 C16         7.8140  -25.6150    9.9250 C.3       1 7TD        -0.0025
     13 C4         15.2930  -14.9730    9.6180 C.3       1 7TD        -0.0147
     14 C5         17.3880  -14.1590   10.6790 C.3       1 7TD        -0.0147
     15 N1         17.2110  -16.3930    9.7490 N.4       1 7TD         0.2259
     16 C6          9.2350  -23.4160   10.5760 C.1       1 7TD        -0.0690
     17 C7          9.9570  -22.1850   10.9410 C.3       1 7TD         0.1321
     18 C8         12.2480  -21.3830   11.2670 C.ar      1 7TD         0.0979
     19 C9         13.6180  -21.7390   11.2340 C.ar      1 7TD        -0.0268
     20 C10        14.6260  -20.7550   11.4110 C.ar      1 7TD        -0.0504
     21 N2         15.0760  -17.0690   11.7800 N.am      1 7TD        -0.2616
     22 N3         16.2770  -14.7310   14.0640 N.am      1 7TD        -0.1621
     23 O4         15.6890  -13.7450   14.9020 O.3       1 7TD        -0.2717
     24 H1         16.9704  -16.4270   12.3475 H         1 7TD         0.0860
     25 H2         12.6164  -17.9874   11.7946 H         1 7TD         0.0642
     26 H3         10.8509  -19.7268   11.5097 H         1 7TD         0.0556
     27 H4          7.0852  -25.3703    9.1383 H         1 7TD         0.0362
     28 H5          7.2827  -25.9807   10.8161 H         1 7TD         0.0362
     29 H6          8.4988  -26.3949    9.5606 H         1 7TD         0.0362
     30 H7         15.6814  -14.5693    8.6713 H         1 7TD         0.0289
     31 H8         14.6934  -14.2034   10.1262 H         1 7TD         0.0289
     32 H9         14.6635  -15.8511    9.4113 H         1 7TD         0.0289
     33 H10        18.2438  -14.4161   11.3204 H         1 7TD         0.0289
     34 H11        16.8205  -13.3358   11.1375 H         1 7TD         0.0289
     35 H12        17.7524  -13.8466    9.6893 H         1 7TD         0.0289
     36 H13        16.6368  -17.2130    9.6309 H         1 7TD         0.2002
     37 H14        18.0563  -16.6424   10.2382 H         1 7TD         0.2002
     38 H15        17.4454  -16.0140    8.8449 H         1 7TD         0.2002
     39 H16         9.7788  -21.4227   10.1682 H         1 7TD         0.0755
     40 H17         9.5796  -21.8218   11.9083 H         1 7TD         0.0755
     41 H18        13.9000  -22.7731   11.0720 H         1 7TD         0.0556
     42 H19        15.6702  -21.0420   11.3637 H         1 7TD         0.0642
     43 H20        14.1164  -16.8185   11.6516 H         1 7TD         0.1875
     44 H21        17.1436  -15.1894   14.2610 H         1 7TD         0.2217
     45 H22        16.2452  -13.6015   15.6586 H         1 7TD         0.2490
@<TRIPOS>BOND
     1    1    2 1  
     2    1    3 1  
     3   21    1 1  
     4    2    4 2  
     5    2   22 am 
     6    3   13 1  
     7    3   14 1  
     8    3   15 1  
     9   17    5 1  
    10    5   18 1  
    11   10    6 2  
    12    8    7 ar 
    13    7   10 1  
    14    7   20 ar 
    15    9    8 ar 
    16   18    9 ar 
    17   10   21 am 
    18   11   12 1  
    19   16   11 3  
    20   16   17 1  
    21   18   19 ar 
    22   19   20 ar 
    23   22   23 1  
    24    1   24 1  
    25    8   25 1  
    26    9   26 1  
    27   12   27 1  
    28   12   28 1  
    29   12   29 1  
    30   13   30 1  
    31   13   31 1  
    32   13   32 1  
    33   14   33 1  
    34   14   34 1  
    35   14   35 1  
    36   15   36 1  
    37   15   37 1  
    38   15   38 1  
    39   17   39 1  
    40   17   40 1  
    41   19   41 1  
    42   20   42 1  
    43   21   43 1  
    44   22   44 1  
    45   23   45 1  
@<TRIPOS>SUBSTRUCTURE
     1 7TD         1

