### 
### Created by X-TOOL on Mon Sep 10 21:13:33 2018
### 

@<TRIPOS>MOLECULE
5u49_ligand
   29    30     1     0     0
SMALL
GAST_HUCK


@<TRIPOS>ATOM
      1 C01        44.5830   79.7230   42.5190 C.ar      1 S2L        -0.0066
      2 C02        43.6560   79.0270   41.7570 C.ar      1 S2L         0.0782
      3 C03        43.7160   77.6410   41.7990 C.ar      1 S2L        -0.0400
      4 C04        44.6400   76.9350   42.5640 C.ar      1 S2L        -0.0478
      5 C05        45.5350   77.7040   43.3000 C.ar      1 S2L        -0.0400
      6 C06        45.5380   79.0900   43.3040 C.ar      1 S2L         0.0782
      7 O01        46.4700   79.8070   44.0780 O.3       1 S2L        -0.3363
      8 C07        44.8240   75.4340   42.7040 C.2       1 S2L        -0.0651
      9 C08        44.0440   74.4950   42.1450 C.2       1 S2L        -0.0612
     10 C09        44.2170   72.9890   42.2610 C.ar      1 S2L        -0.0195
     11 C10        44.1990   72.3130   41.0500 C.ar      1 S2L        -0.0602
     12 C11        44.3280   70.9430   40.9010 C.ar      1 S2L        -0.0297
     13 C12        44.4980   70.1210   42.0000 C.ar      1 S2L         0.0918
     14 C13        44.5230   70.7620   43.2160 C.ar      1 S2L        -0.0161
     15 C14        44.3850   72.1280   43.3390 C.ar      1 S2L         0.0420
     16 CL1        44.4240   72.7750   45.0220 Cl        1 S2L        -0.0706
     17 O02        44.6350   68.7460   41.8700 O.3       1 S2L        -0.3306
     18 O03        42.6880   79.6590   40.9570 O.3       1 S2L        -0.3363
     19 H1         44.5611   80.8066   42.5010 H         1 S2L         0.0461
     20 H2         43.0054   77.0784   41.2044 H         1 S2L         0.0441
     21 H3         46.2727   77.1898   43.9054 H         1 S2L         0.0441
     22 H4         46.3273   80.7389   43.9606 H         1 S2L         0.2476
     23 H5         45.6607   75.0896   43.3100 H         1 S2L         0.0564
     24 H6         43.2034   74.8473   41.5490 H         1 S2L         0.0616
     25 H7         44.0741   72.9039   40.1498 H         1 S2L         0.0608
     26 H8         44.2953   70.5081   39.9086 H         1 S2L         0.0556
     27 H9         44.6566   70.1695   44.1139 H         1 S2L         0.0559
     28 H10        44.5896   68.5098   40.9509 H         1 S2L         0.2499
     29 H11        42.7785   80.6013   41.0374 H         1 S2L         0.2476
@<TRIPOS>BOND
     1    1    2 ar 
     2    1    6 ar 
     3    2    3 ar 
     4    2   18 1  
     5    3    4 ar 
     6    4    5 ar 
     7    4    8 1  
     8    5    6 ar 
     9    6    7 1  
    10    8    9 2  
    11    9   10 1  
    12   10   11 ar 
    13   10   15 ar 
    14   11   12 ar 
    15   12   13 ar 
    16   13   14 ar 
    17   13   17 1  
    18   14   15 ar 
    19   15   16 1  
    20    1   19 1  
    21    3   20 1  
    22    5   21 1  
    23    7   22 1  
    24    8   23 1  
    25    9   24 1  
    26   11   25 1  
    27   12   26 1  
    28   14   27 1  
    29   17   28 1  
    30   18   29 1  
@<TRIPOS>SUBSTRUCTURE
     1 S2L         1

