### 
### Created by X-TOOL on Mon Sep 10 21:13:32 2018
### 

@<TRIPOS>MOLECULE
5u4b_ligand
   29    30     1     0     0
SMALL
GAST_HUCK


@<TRIPOS>ATOM
      1 C01       -20.4970    0.6320  -30.5720 C.ar      1 XOS        -0.0491
      2 C02       -21.5490   -0.0460  -29.9740 C.ar      1 XOS         0.0093
      3 C03       -21.6470   -0.0950  -28.5900 C.ar      1 XOS        -0.0424
      4 C04       -20.6890    0.5350  -27.8070 C.ar      1 XOS        -0.0262
      5 C05       -19.6400    1.2100  -28.4100 C.ar      1 XOS        -0.0543
      6 C06       -19.5410    1.2590  -29.7900 C.ar      1 XOS        -0.0594
      7 C07       -20.7540    0.5090  -26.2930 C.2       1 XOS        -0.0590
      8 C08       -21.6390   -0.1390  -25.5220 C.2       1 XOS        -0.0610
      9 C09       -21.6190   -0.1040  -24.0070 C.ar      1 XOS        -0.0333
     10 C10       -21.4970    1.1100  -23.3490 C.ar      1 XOS        -0.0606
     11 C11       -21.4670    1.1500  -21.9640 C.ar      1 XOS        -0.0299
     12 C12       -21.5560   -0.0230  -21.2340 C.ar      1 XOS         0.0914
     13 C13       -21.6730   -1.2380  -21.8900 C.ar      1 XOS        -0.0299
     14 C14       -21.7000   -1.2810  -23.2760 C.ar      1 XOS        -0.0606
     15 C15       -22.5840   -0.7260  -30.8450 C.2       1 XOS         0.0627
     16 O01       -21.5270    0.0220  -19.8280 O.3       1 XOS        -0.3306
     17 O02       -22.3230   -0.9620  -32.0540 O.co2     1 XOS        -0.5606
     18 O03       -23.7010   -1.0580  -30.3660 O.co2     1 XOS        -0.5606
     19 H1        -20.4229    0.6712  -31.6528 H         1 XOS         0.0638
     20 H2        -22.4694   -0.6238  -28.1219 H         1 XOS         0.0646
     21 H3        -18.8929    1.7023  -27.7980 H         1 XOS         0.0630
     22 H4        -18.7175    1.7867  -30.2573 H         1 XOS         0.0620
     23 H5        -19.9919    1.0846  -25.7696 H         1 XOS         0.0571
     24 H6        -22.4162   -0.7236  -26.0121 H         1 XOS         0.0614
     25 H7        -21.4250    2.0295  -23.9186 H         1 XOS         0.0607
     26 H8        -21.3737    2.1008  -21.4517 H         1 XOS         0.0554
     27 H9        -21.7436   -2.1566  -21.3188 H         1 XOS         0.0554
     28 H10       -21.7843   -2.2329  -23.7878 H         1 XOS         0.0607
     29 H11       -21.4437    0.9244  -19.5428 H         1 XOS         0.2499
@<TRIPOS>BOND
     1    1    2 ar 
     2    1    6 ar 
     3    2    3 ar 
     4    2   15 1  
     5    3    4 ar 
     6    4    5 ar 
     7    4    7 1  
     8    5    6 ar 
     9    7    8 2  
    10    8    9 1  
    11    9   10 ar 
    12    9   14 ar 
    13   10   11 ar 
    14   11   12 ar 
    15   12   13 ar 
    16   12   16 1  
    17   13   14 ar 
    18   15   17 ar 
    19   15   18 ar 
    20    1   19 1  
    21    3   20 1  
    22    5   21 1  
    23    6   22 1  
    24    7   23 1  
    25    8   24 1  
    26   10   25 1  
    27   11   26 1  
    28   13   27 1  
    29   14   28 1  
    30   16   29 1  
@<TRIPOS>SUBSTRUCTURE
     1 XOS         1

