### 
### Created by X-TOOL on Mon Sep 10 21:13:33 2018
### 

@<TRIPOS>MOLECULE
5u4d_ligand
   29    30     1     0     0
SMALL
GAST_HUCK


@<TRIPOS>ATOM
      1 C01       -19.7880    1.5320  -29.7140 C.ar      1 XLO        -0.0491
      2 C02       -19.2390    1.9380  -28.5080 C.ar      1 XLO        -0.0594
      3 C03       -19.7350    1.4290  -27.3210 C.ar      1 XLO        -0.0543
      4 C04       -20.7700    0.5130  -27.3390 C.ar      1 XLO        -0.0262
      5 C05       -21.3120    0.0980  -28.5440 C.ar      1 XLO        -0.0424
      6 C06       -20.8240    0.6150  -29.7320 C.ar      1 XLO         0.0093
      7 C07       -21.4140    0.1780  -31.0570 C.2       1 XLO         0.0627
      8 C08       -21.2850   -0.0630  -26.0430 C.2       1 XLO        -0.0590
      9 C09       -20.7810    0.1650  -24.8200 C.2       1 XLO        -0.0608
     10 C10       -21.3160   -0.4840  -23.5650 C.ar      1 XLO        -0.0197
     11 C11       -21.4900   -1.8680  -23.6030 C.ar      1 XLO        -0.0603
     12 C12       -21.9730   -2.5390  -22.5010 C.ar      1 XLO        -0.0297
     13 C13       -22.2630   -1.8240  -21.3510 C.ar      1 XLO         0.0917
     14 C14       -22.0830   -0.4480  -21.3030 C.ar      1 XLO        -0.0162
     15 C15       -21.6050    0.2380  -22.4160 C.ar      1 XLO         0.0419
     16 O01       -22.5360   -0.3960  -31.0970 O.co2     1 XLO        -0.5606
     17 O02       -20.7750    0.3910  -32.1220 O.co2     1 XLO        -0.5606
     18 O03       -22.7620   -2.5130  -20.2300 O.3       1 XLO        -0.3306
     19 CL1       -21.3810    1.9740  -22.3250 Cl        1 XLO        -0.0706
     20 H1        -19.4050    1.9337  -30.6451 H         1 XLO         0.0638
     21 H2        -18.4236    2.6521  -28.4948 H         1 XLO         0.0620
     22 H3        -19.3115    1.7489  -26.3758 H         1 XLO         0.0630
     23 H4        -22.1157   -0.6293  -28.5570 H         1 XLO         0.0646
     24 H5        -22.1466   -0.7260  -26.1057 H         1 XLO         0.0571
     25 H6        -19.9426    0.8538  -24.7276 H         1 XLO         0.0613
     26 H7        -21.2439   -2.4179  -24.5042 H         1 XLO         0.0608
     27 H8        -22.1240   -3.6119  -22.5336 H         1 XLO         0.0556
     28 H9        -22.3159    0.0949  -20.3941 H         1 XLO         0.0559
     29 H10       -22.1750   -2.3852  -19.4940 H         1 XLO         0.2499
@<TRIPOS>BOND
     1    1    2 ar 
     2    1    6 ar 
     3    2    3 ar 
     4    3    4 ar 
     5    4    5 ar 
     6    4    8 1  
     7    5    6 ar 
     8    6    7 1  
     9    7   16 ar 
    10    7   17 ar 
    11    8    9 2  
    12    9   10 1  
    13   10   11 ar 
    14   10   15 ar 
    15   11   12 ar 
    16   12   13 ar 
    17   13   14 ar 
    18   13   18 1  
    19   14   15 ar 
    20   15   19 1  
    21    1   20 1  
    22    2   21 1  
    23    3   22 1  
    24    5   23 1  
    25    8   24 1  
    26    9   25 1  
    27   11   26 1  
    28   12   27 1  
    29   14   28 1  
    30   18   29 1  
@<TRIPOS>SUBSTRUCTURE
     1 XLO         1

