### 
### Created by X-TOOL on Wed Jan  1 15:39:34 2020
### 

@<TRIPOS>MOLECULE
5u4x_ligand
   70    73     1     0     0
SMALL
GAST_HUCK


@<TRIPOS>ATOM
      1 C4          8.7220   29.9210   20.6130 C.3       1 7VM         0.0022
      2 C5          8.4100   29.2510   21.9450 C.3       1 7VM         0.0157
      3 C6          7.5630   28.0220   21.7090 C.ar      1 7VM         0.0231
      4 N1         10.9190   30.6970   21.4720 N.4       1 7VM         0.2392
      5 C7          5.5420   26.9780   21.9520 C.ar      1 7VM        -0.0052
      6 C8          5.9750   25.8560   21.2650 C.ar      1 7VM        -0.0379
      7 N2          6.3110   28.0560   22.1860 N.ar      1 7VM        -0.3077
      8 C9          7.2700   25.8260   20.7660 C.ar      1 7VM        -0.0081
      9 C10         7.8430   24.6480   20.0070 C.3       1 7VM         0.0720
     10 C11         5.9930   24.1410   18.4550 C.3       1 7VM         0.0246
     11 C12         6.8100   22.3780   19.9180 C.2       1 7VM         0.2068
     12 N3          6.8520   23.6660   19.5300 N.am      1 7VM        -0.2624
     13 C13         7.6690   21.9560   21.0630 C.ar      1 7VM         0.0425
     14 C14         8.6450   20.9840   20.8840 C.ar      1 7VM        -0.0524
     15 C15         9.4120   20.5620   21.9530 C.ar      1 7VM        -0.0640
     16 O1          6.1520   21.5350   19.3320 O.2       1 7VM        -0.3843
     17 C24         7.4790   22.5190   22.3250 C.ar      1 7VM        -0.0088
     18 C17         8.2650   22.1010   23.3900 C.ar      1 7VM         0.1214
     19 O           8.1270   22.6470   24.6790 O.3       1 7VM        -0.2569
     20 C18         7.1480   23.6140   24.9160 C.ar      1 7VM         0.1161
     21 C23         5.9130   23.2220   25.4080 C.ar      1 7VM        -0.0285
     22 C22         4.9360   24.1770   25.6320 C.ar      1 7VM        -0.0697
     23 C21         5.1830   25.5090   25.3530 C.ar      1 7VM        -0.0723
     24 C20         6.4120   25.8890   24.8530 C.ar      1 7VM        -0.0697
     25 C19         7.4040   24.9450   24.6350 C.ar      1 7VM        -0.0285
     26 C16         9.2310   21.1160   23.2100 C.ar      1 7VM        -0.0241
     27 C25         8.0680   26.9370   21.0000 C.ar      1 7VM        -0.0297
     28 C3          9.6880   31.0880   20.7770 C.3       1 7VM        -0.0294
     29 C26         9.7060   28.9120   22.6780 C.3       1 7VM         0.0022
     30 C27        10.6230   30.1230   22.7890 C.3       1 7VM        -0.0294
     31 C2         11.8540   29.9130   20.6540 C.3       1 7VM         0.0092
     32 C1         13.1270   30.6680   20.3880 C.3       1 7VM         0.0072
     33 N          14.1630   29.8440   19.7100 N.4       1 7VM         0.2285
     34 C          13.8820   29.4600   18.3310 C.3       1 7VM        -0.0447
     35 H1          7.7848   30.2940   20.1743 H         1 7VM         0.0344
     36 H2          9.1727   29.1784   19.9382 H         1 7VM         0.0344
     37 H3          7.8357   29.9534   22.5669 H         1 7VM         0.0492
     38 H4         11.4055   31.5594   21.6606 H         1 7VM         0.2036
     39 H5          4.5234   26.9877   22.3228 H         1 7VM         0.0780
     40 H6          5.3109   25.0118   21.1188 H         1 7VM         0.0595
     41 H7          8.5473   24.1255   20.6710 H         1 7VM         0.0710
     42 H8          8.3841   25.0376   19.1322 H         1 7VM         0.0710
     43 H9          5.2910   23.3444   18.1675 H         1 7VM         0.0488
     44 H10         6.6101   24.4167   17.5872 H         1 7VM         0.0488
     45 H11         5.4287   25.0207   18.7980 H         1 7VM         0.0488
     46 H12         8.8056   20.5548   19.9016 H         1 7VM         0.0580
     47 H13        10.1608   19.7919   21.8072 H         1 7VM         0.0602
     48 H14         6.7209   23.2795   22.4734 H         1 7VM         0.0603
     49 H15         5.7138   22.1769   25.6156 H         1 7VM         0.0552
     50 H16         3.9720   23.8791   26.0283 H         1 7VM         0.0590
     51 H17         4.4134   26.2524   25.5266 H         1 7VM         0.0528
     52 H18         6.6030   26.9323   24.6292 H         1 7VM         0.0590
     53 H19         8.3707   25.2465   24.2482 H         1 7VM         0.0552
     54 H20         9.8367   20.7849   24.0458 H         1 7VM         0.0588
     55 H21         9.0865   26.9593   20.6297 H         1 7VM         0.0586
     56 H22         9.1910   31.8802   21.3562 H         1 7VM         0.0816
     57 H23         9.9511   31.4724   19.7805 H         1 7VM         0.0816
     58 H24        10.2300   28.1173   22.1268 H         1 7VM         0.0344
     59 H25         9.4610   28.5564   23.6897 H         1 7VM         0.0344
     60 H26        10.1321   30.8871   23.4096 H         1 7VM         0.0816
     61 H27        11.5658   29.8147   23.2644 H         1 7VM         0.0816
     62 H28        11.3738   29.6741   19.6936 H         1 7VM         0.0868
     63 H29        12.0967   28.9805   21.1846 H         1 7VM         0.0868
     64 H30        13.5326   31.0198   21.3481 H         1 7VM         0.0867
     65 H31        12.8943   31.5328   19.7493 H         1 7VM         0.0867
     66 H32        14.2826   28.9987   20.2460 H         1 7VM         0.2013
     67 H33        15.0237   30.3687   19.7135 H         1 7VM         0.2013
     68 H34        14.7156   28.8575   17.9411 H         1 7VM         0.0777
     69 H35        13.7637   30.3639   17.7155 H         1 7VM         0.0777
     70 H36        12.9549   28.8690   18.2966 H         1 7VM         0.0777
@<TRIPOS>BOND
     1    2    1 1  
     2    1   28 1  
     3    3    2 1  
     4    2   29 1  
     5    7    3 ar 
     6    3   27 ar 
     7   28    4 1  
     8    4   30 1  
     9    4   31 1  
    10    5    6 ar 
    11    5    7 ar 
    12    6    8 ar 
    13    8    9 1  
    14    8   27 ar 
    15    9   12 1  
    16   12   10 1  
    17   12   11 am 
    18   11   13 1  
    19   11   16 2  
    20   13   14 ar 
    21   13   17 ar 
    22   14   15 ar 
    23   15   26 ar 
    24   17   18 ar 
    25   18   19 1  
    26   18   26 ar 
    27   19   20 1  
    28   20   21 ar 
    29   20   25 ar 
    30   21   22 ar 
    31   22   23 ar 
    32   23   24 ar 
    33   24   25 ar 
    34   29   30 1  
    35   31   32 1  
    36   32   33 1  
    37   33   34 1  
    38    1   35 1  
    39    1   36 1  
    40    2   37 1  
    41    4   38 1  
    42    5   39 1  
    43    6   40 1  
    44    9   41 1  
    45    9   42 1  
    46   10   43 1  
    47   10   44 1  
    48   10   45 1  
    49   14   46 1  
    50   15   47 1  
    51   17   48 1  
    52   21   49 1  
    53   22   50 1  
    54   23   51 1  
    55   24   52 1  
    56   25   53 1  
    57   26   54 1  
    58   27   55 1  
    59   28   56 1  
    60   28   57 1  
    61   29   58 1  
    62   29   59 1  
    63   30   60 1  
    64   30   61 1  
    65   31   62 1  
    66   31   63 1  
    67   32   64 1  
    68   32   65 1  
    69   33   66 1  
    70   33   67 1  
    71   34   68 1  
    72   34   69 1  
    73   34   70 1  
@<TRIPOS>SUBSTRUCTURE
     1 7VM         1

