### 
### Created by X-TOOL on Mon Sep 10 21:13:31 2018
### 

@<TRIPOS>MOLECULE
5u5h_ligand
   47    49     1     0     0
SMALL
GAST_HUCK


@<TRIPOS>ATOM
      1 C1         -5.0760    4.9770   21.4120 C.ar      1 7VV        -0.0417
      2 C2         -4.0030    4.6080   22.2390 C.ar      1 7VV         0.0801
      3 C3         -2.8750    5.4490   22.2960 C.ar      1 7VV        -0.0335
      4 C11        -1.5300    8.1830   24.0100 C.3       1 7VV        -0.0383
      5 C12        -1.2870    9.4180   24.9340 C.3       1 7VV        -0.0102
      6 C13        -1.9420   10.6700   24.3970 C.2       1 7VV         0.0367
      7 C15        -2.1360   11.8310   25.0610 C.2       1 7VV        -0.0310
      8 C17        -3.0740   11.9030   23.0650 C.2       1 7VV         0.1932
      9 C18        -1.6900   12.3130   26.4210 C.3       1 7VV        -0.0310
     10 C19        -0.8210   13.5800   26.1960 C.3       1 7VV        -0.0589
     11 C20        -2.9370   12.6280   27.2970 C.3       1 7VV        -0.0589
     12 C23        -3.0150    3.0150   23.8820 C.3       1 7VV         0.0584
     13 C4         -2.7860    6.6010   21.5030 C.ar      1 7VV        -0.0177
     14 C5         -3.8460    6.9180   20.6450 C.ar      1 7VV         0.1210
     15 C6         -4.9970    6.1240   20.6170 C.ar      1 7VV        -0.0435
     16 F7         -3.7810    8.0000   19.8740 F         1 7VV        -0.1984
     17 C8         -1.4730    7.4190   21.5090 C.3       1 7VV        -0.0154
     18 C9         -2.5790    9.6440   22.2370 C.3       1 7VV         0.0590
     19 C10        -1.4550    8.6170   22.5230 C.3       1 7VV        -0.0040
     20 N14        -2.5230   10.7410   23.2100 N.pl3     1 7VV        -0.2390
     21 N16        -2.8690   12.5950   24.0920 N.2       1 7VV        -0.3408
     22 N21        -3.7130   12.3160   22.0150 N.pl3     1 7VV        -0.3011
     23 O22        -4.1050    3.4810   23.0730 O.3       1 7VV        -0.3255
     24 H1         -5.9724    4.3678   21.3899 H         1 7VV         0.0476
     25 H2         -2.0599    5.2006   22.9661 H         1 7VV         0.0469
     26 H3         -2.5246    7.7615   24.2177 H         1 7VV         0.0287
     27 H4         -0.7607    7.4220   24.2076 H         1 7VV         0.0287
     28 H5         -0.2039    9.5919   25.0156 H         1 7VV         0.0391
     29 H6         -1.6997    9.2017   25.9304 H         1 7VV         0.0391
     30 H7         -1.0887   11.5364   26.9162 H         1 7VV         0.0369
     31 H8         -0.4746   13.9641   27.1668 H         1 7VV         0.0245
     32 H9         -1.4206   14.3507   25.6896 H         1 7VV         0.0245
     33 H10         0.0478   13.3228   25.5723 H         1 7VV         0.0245
     34 H11        -3.5285   11.7110   27.4360 H         1 7VV         0.0245
     35 H12        -3.5534   13.3896   26.7971 H         1 7VV         0.0245
     36 H13        -2.6106   13.0059   28.2771 H         1 7VV         0.0245
     37 H14        -3.3308    2.1242   24.4448 H         1 7VV         0.0576
     38 H15        -2.7160    3.8061   24.5854 H         1 7VV         0.0576
     39 H16        -2.1628    2.7574   23.2360 H         1 7VV         0.0576
     40 H17        -5.8287    6.3984   19.9781 H         1 7VV         0.0559
     41 H18        -1.3155    7.8227   20.4980 H         1 7VV         0.0420
     42 H19        -0.6466    6.7398   21.7655 H         1 7VV         0.0420
     43 H20        -3.5557    9.1433   22.3098 H         1 7VV         0.0607
     44 H21        -2.4501   10.0508   21.2231 H         1 7VV         0.0607
     45 H22        -0.4931    9.1318   22.3831 H         1 7VV         0.0349
     46 H23        -4.1174   13.2631   21.9976 H         1 7VV         0.1787
     47 H24        -3.8162   11.6969   21.1983 H         1 7VV         0.1787
@<TRIPOS>BOND
     1    2    1 ar 
     2   15    1 ar 
     3    3    2 ar 
     4    2   23 1  
     5   13    3 ar 
     6    4    5 1  
     7   19    4 1  
     8    5    6 1  
     9    6    7 2  
    10    6   20 1  
    11    7    9 1  
    12    7   21 1  
    13   20    8 1  
    14    8   21 2  
    15    8   22 1  
    16    9   10 1  
    17    9   11 1  
    18   23   12 1  
    19   13   14 ar 
    20   17   13 1  
    21   14   15 ar 
    22   14   16 1  
    23   17   19 1  
    24   19   18 1  
    25   18   20 1  
    26    1   24 1  
    27    3   25 1  
    28    4   26 1  
    29    4   27 1  
    30    5   28 1  
    31    5   29 1  
    32    9   30 1  
    33   10   31 1  
    34   10   32 1  
    35   10   33 1  
    36   11   34 1  
    37   11   35 1  
    38   11   36 1  
    39   12   37 1  
    40   12   38 1  
    41   12   39 1  
    42   15   40 1  
    43   17   41 1  
    44   17   42 1  
    45   18   43 1  
    46   18   44 1  
    47   19   45 1  
    48   22   46 1  
    49   22   47 1  
@<TRIPOS>SUBSTRUCTURE
     1 7VV         1

