### 
### Created by X-TOOL on Mon Sep 10 21:13:31 2018
### 

@<TRIPOS>MOLECULE
5u5k_ligand
   35    36     1     0     0
SMALL
GAST_HUCK


@<TRIPOS>ATOM
      1 C1         22.1740   -4.9290   10.5780 C.ar      1 7VY        -0.0401
      2 C2         22.1070   -3.7860   11.3900 C.ar      1 7VY        -0.0772
      3 C3         20.9300   -3.0220   11.4030 C.ar      1 7VY        -0.0714
      4 C11        19.3390    0.9410    7.6420 C.3       1 7VY        -0.0336
      5 C13        19.2250    0.0250   10.0030 C.3       1 7VY        -0.0290
      6 C15        20.0100   -6.9980    8.2150 C.3       1 7VY         0.0592
      7 C4         19.8190   -3.3940   10.6090 C.ar      1 7VY        -0.0515
      8 C5         19.9230   -4.5200    9.7750 C.ar      1 7VY        -0.0322
      9 C6         21.0810   -5.3120    9.7580 C.ar      1 7VY         0.0841
     10 C7         18.5860   -2.4770   10.4910 C.3       1 7VY        -0.0140
     11 C8         19.0310   -1.4120    9.4350 C.3       1 7VY         0.0088
     12 C9         18.1800   -1.3150    8.1400 C.3       1 7VY        -0.0388
     13 C10        18.9200   -0.4490    7.0710 C.3       1 7VY        -0.0120
     14 N12        19.9540    0.8670    9.0070 N.4       1 7VY         0.2273
     15 O14        21.1420   -6.4450    8.9060 O.3       1 7VY        -0.3230
     16 H1         23.0764   -5.5296   10.5773 H         1 7VY         0.0486
     17 H2         22.9550   -3.4967   12.0002 H         1 7VY         0.0572
     18 H3         20.8711   -2.1379   12.0275 H         1 7VY         0.0464
     19 H4         18.4443    1.5785    7.6976 H         1 7VY         0.0814
     20 H5         20.0695    1.3935    6.9553 H         1 7VY         0.0814
     21 H6         19.8076   -0.0258   10.9347 H         1 7VY         0.0818
     22 H7         18.2415    0.4723   10.2094 H         1 7VY         0.0818
     23 H8         20.3305   -7.8691    7.6247 H         1 7VY         0.0577
     24 H9         19.5825   -6.2380    7.5445 H         1 7VY         0.0577
     25 H10        19.2504   -7.3103    8.9468 H         1 7VY         0.0577
     26 H11        19.0912   -4.7823    9.1313 H         1 7VY         0.0478
     27 H12        18.3538   -2.0024   11.4558 H         1 7VY         0.0429
     28 H13        17.7088   -3.0392   10.1383 H         1 7VY         0.0429
     29 H14        20.0270   -1.7476    9.1105 H         1 7VY         0.0375
     30 H15        17.2111   -0.8509    8.3760 H         1 7VY         0.0273
     31 H16        18.0144   -2.3253    7.7376 H         1 7VY         0.0273
     32 H17        19.8220   -0.9850    6.7406 H         1 7VY         0.0317
     33 H18        18.2502   -0.2942    6.2123 H         1 7VY         0.0317
     34 H19        20.0067    1.8044    9.3739 H         1 7VY         0.2013
     35 H20        20.8845    0.4924    8.9073 H         1 7VY         0.2013
@<TRIPOS>BOND
     1    2    1 ar 
     2    9    1 ar 
     3    3    2 ar 
     4    7    3 ar 
     5    4   13 1  
     6   14    4 1  
     7   11    5 1  
     8    5   14 1  
     9   15    6 1  
    10    7    8 ar 
    11   10    7 1  
    12    8    9 ar 
    13    9   15 1  
    14   10   11 1  
    15   11   12 1  
    16   12   13 1  
    17    1   16 1  
    18    2   17 1  
    19    3   18 1  
    20    4   19 1  
    21    4   20 1  
    22    5   21 1  
    23    5   22 1  
    24    6   23 1  
    25    6   24 1  
    26    6   25 1  
    27    8   26 1  
    28   10   27 1  
    29   10   28 1  
    30   11   29 1  
    31   12   30 1  
    32   12   31 1  
    33   13   32 1  
    34   13   33 1  
    35   14   34 1  
    36   14   35 1  
@<TRIPOS>SUBSTRUCTURE
     1 7VY         1

