### 
### Created by X-TOOL on Mon Sep 10 21:13:32 2018
### 

@<TRIPOS>MOLECULE
5u5l_ligand
   47    50     1     0     0
SMALL
GAST_HUCK


@<TRIPOS>ATOM
      1 C10        -6.1350   28.6310  130.2270 C.ar      1 7VA        -0.0685
      2 C13        -8.8200   29.2460  129.9320 C.ar      1 7VA        -0.0393
      3 C17        -7.8500   30.6090  125.8520 C.2       1 7VA         0.1500
      4 C20        -8.6040   32.5890  125.3470 C.ar      1 7VA         0.0116
      5 C22        -6.8250   33.4910  123.9790 C.ar      1 7VA        -0.0149
      6 C24        -8.7890   34.8340  124.4160 C.ar      1 7VA        -0.0475
      7 C26        -5.6700   30.6020  124.6850 C.3       1 7VA         0.0453
      8 C28        -6.9490   36.9490  123.7070 C.3       1 7VA         0.0576
      9 N01        -5.3340   31.8750  134.6980 N.am      1 7VA        -0.1891
     10 C02        -6.0280   30.6510  134.5870 C.2       1 7VA         0.2225
     11 C03        -5.7690   30.0520  133.2790 C.3       1 7VA         0.1282
     12 S04        -4.7350   31.1080  132.4830 S.3       1 7VA         0.0006
     13 C05        -4.6120   32.2350  133.6520 C.2       1 7VA         0.2695
     14 O06        -3.9710   33.2270  133.5770 O.2       1 7VA        -0.3731
     15 O07        -6.7170   30.1840  135.4290 O.2       1 7VA        -0.3846
     16 C08        -6.3190   28.7230  132.7550 C.3       1 7VA         0.0077
     17 C09        -6.9220   28.8430  131.3510 C.ar      1 7VA        -0.0502
     18 C11        -6.6900   28.7320  128.9570 C.ar      1 7VA        -0.0393
     19 C12        -8.0360   29.0410  128.8080 C.ar      1 7VA         0.0879
     20 C14        -8.2660   29.1450  131.1990 C.ar      1 7VA        -0.0685
     21 O15        -8.6250   29.1460  127.5360 O.3       1 7VA        -0.3009
     22 C16        -7.7450   29.2040  126.4470 C.3       1 7VA         0.1490
     23 N18        -6.9330   31.1910  125.0930 N.pl3     1 7VA        -0.2373
     24 C19        -7.3750   32.4370  124.7580 C.ar      1 7VA         0.0719
     25 N21        -8.8730   31.4340  126.0210 N.2       1 7VA        -0.3228
     26 C23        -7.5350   34.6780  123.8150 C.ar      1 7VA         0.0764
     27 C25        -9.3290   33.8020  125.1800 C.ar      1 7VA        -0.0711
     28 O27        -6.9890   35.7150  123.0460 O.3       1 7VA        -0.3282
     29 H1         -5.0851   28.3861  130.3404 H         1 7VA         0.0530
     30 H2         -9.8711   29.4864  129.8202 H         1 7VA         0.0525
     31 H3         -5.8537   33.3711  123.5129 H         1 7VA         0.0448
     32 H4         -9.3404   35.7583  124.2870 H         1 7VA         0.0463
     33 H5         -5.5853   29.5889  125.1050 H         1 7VA         0.0564
     34 H6         -4.8399   31.2224  125.0539 H         1 7VA         0.0564
     35 H7         -5.6280   30.5485  123.5871 H         1 7VA         0.0564
     36 H8         -6.5100   37.7072  123.0418 H         1 7VA         0.0575
     37 H9         -6.3353   36.8587  124.6154 H         1 7VA         0.0575
     38 H10        -7.9703   37.2505  123.9829 H         1 7VA         0.0575
     39 H11        -5.3860   32.4383  135.5226 H         1 7VA         0.2265
     40 H12        -6.6541   30.5380  132.8426 H         1 7VA         0.0706
     41 H13        -7.1002   28.3696  133.4441 H         1 7VA         0.0442
     42 H14        -5.4987   27.9908  132.7239 H         1 7VA         0.0442
     43 H15        -6.0718   28.5694  128.0815 H         1 7VA         0.0525
     44 H16        -8.8864   29.3028  132.0738 H         1 7VA         0.0530
     45 H17        -6.7154   29.0140  126.7845 H         1 7VA         0.0880
     46 H18        -8.0283   28.4540  125.6938 H         1 7VA         0.0880
     47 H19       -10.3000   33.9227  125.6466 H         1 7VA         0.0519
@<TRIPOS>BOND
     1    1   17 ar 
     2   18    1 ar 
     3   19    2 ar 
     4    2   20 ar 
     5    3   22 1  
     6   23    3 1  
     7   25    3 2  
     8   24    4 ar 
     9    4   25 1  
    10   27    4 ar 
    11    5   24 ar 
    12   26    5 ar 
    13   26    6 ar 
    14    6   27 ar 
    15   23    7 1  
    16   28    8 1  
    17   10    9 am 
    18   13    9 am 
    19   11   10 1  
    20   10   15 2  
    21   11   12 1  
    22   16   11 1  
    23   12   13 1  
    24   13   14 2  
    25   17   16 1  
    26   20   17 ar 
    27   19   18 ar 
    28   21   19 1  
    29   22   21 1  
    30   24   23 1  
    31   26   28 1  
    32    1   29 1  
    33    2   30 1  
    34    5   31 1  
    35    6   32 1  
    36    7   33 1  
    37    7   34 1  
    38    7   35 1  
    39    8   36 1  
    40    8   37 1  
    41    8   38 1  
    42    9   39 1  
    43   11   40 1  
    44   16   41 1  
    45   16   42 1  
    46   18   43 1  
    47   20   44 1  
    48   22   45 1  
    49   22   46 1  
    50   27   47 1  
@<TRIPOS>SUBSTRUCTURE
     1 7VA         1

