### 
### Created by X-TOOL on Mon Sep 10 21:13:31 2018
### 

@<TRIPOS>MOLECULE
5u5t_ligand
   39    41     1     0     0
SMALL
GAST_HUCK


@<TRIPOS>ATOM
      1 C1         28.1280   71.6780   95.2540 C.ar      1 7W7        -0.0216
      2 C2         27.3490   70.9540   94.3240 C.ar      1 7W7        -0.0797
      3 C3         25.9390   70.9600   94.4050 C.ar      1 7W7        -0.0881
      4 C11        30.0300   72.7270   94.1550 C.3       1 7W7         0.0001
      5 C12        31.2650   72.3080   93.3890 C.3       1 7W7         0.0692
      6 C14        31.5820   74.6340   92.5910 C.3       1 7W7         0.0649
      7 C15        30.4650   75.1060   93.5310 C.3       1 7W7        -0.0191
      8 C16        30.2690   74.1330   94.7040 C.3       1 7W7        -0.0423
      9 C17        31.1540   72.7470   90.9890 C.cat     1 7W7         0.2903
     10 C4         25.2670   71.7110   95.3860 C.ar      1 7W7        -0.0481
     11 C5         26.0730   72.4430   96.2530 C.ar      1 7W7         0.1167
     12 C6         27.4470   72.4350   96.1850 C.ar      1 7W7         0.1240
     13 O7         25.6830   73.2210   97.3000 O.3       1 7W7        -0.2932
     14 C8         26.8620   73.8130   97.8910 C.3       1 7W7         0.1850
     15 O9         27.9670   73.2370   97.1690 O.3       1 7W7        -0.2955
     16 C10        29.6370   71.7150   95.2220 C.3       1 7W7        -0.0177
     17 N13        31.3150   73.2190   92.2460 N.pl3     1 7W7        -0.2593
     18 N18        31.5390   73.4410   89.9190 N.pl3     1 7W7        -0.2848
     19 N19        30.5740   71.4590   90.7570 N.pl3     1 7W7        -0.2848
     20 H1         27.8387   70.3879   93.5399 H         1 7W7         0.0437
     21 H2         25.3635   70.3743   93.6973 H         1 7W7         0.0479
     22 H3         29.1925   72.7828   93.4441 H         1 7W7         0.0354
     23 H4         31.1774   71.2649   93.0510 H         1 7W7         0.0694
     24 H5         32.1646   72.4171   94.0125 H         1 7W7         0.0694
     25 H6         32.5561   74.7189   93.0949 H         1 7W7         0.0690
     26 H7         31.5868   75.2473   91.6779 H         1 7W7         0.0690
     27 H8         29.5254   75.1756   92.9633 H         1 7W7         0.0299
     28 H9         30.7274   76.0974   93.9288 H         1 7W7         0.0299
     29 H10        31.1689   74.1331   95.3365 H         1 7W7         0.0272
     30 H11        29.4007   74.4473   95.3017 H         1 7W7         0.0272
     31 H12        24.1857   71.7192   95.4623 H         1 7W7         0.0456
     32 H13        26.9260   73.5632   98.9603 H         1 7W7         0.0970
     33 H14        26.8484   74.9062   97.7700 H         1 7W7         0.0970
     34 H15        30.0348   70.7218   94.9665 H         1 7W7         0.0403
     35 H16        30.0290   72.0262   96.2015 H         1 7W7         0.0403
     36 H17        31.4013   73.0514   88.9755 H         1 7W7         0.2615
     37 H18        31.9744   74.3672   90.0352 H         1 7W7         0.2615
     38 H19        30.2607   70.8844   91.5524 H         1 7W7         0.2615
     39 H20        30.4699   71.1068   89.7947 H         1 7W7         0.2615
@<TRIPOS>BOND
     1    1    2 ar 
     2    1   12 ar 
     3   16    1 1  
     4    2    3 ar 
     5    3   10 ar 
     6    5    4 1  
     7    4    8 1  
     8    4   16 1  
     9   17    5 1  
    10    6    7 1  
    11    6   17 1  
    12    7    8 1  
    13   17    9 ar 
    14    9   18 ar 
    15    9   19 ar 
    16   10   11 ar 
    17   11   12 ar 
    18   11   13 1  
    19   12   15 1  
    20   13   14 1  
    21   14   15 1  
    22    2   20 1  
    23    3   21 1  
    24    4   22 1  
    25    5   23 1  
    26    5   24 1  
    27    6   25 1  
    28    6   26 1  
    29    7   27 1  
    30    7   28 1  
    31    8   29 1  
    32    8   30 1  
    33   10   31 1  
    34   14   32 1  
    35   14   33 1  
    36   16   34 1  
    37   16   35 1  
    38   18   36 1  
    39   18   37 1  
    40   19   38 1  
    41   19   39 1  
@<TRIPOS>SUBSTRUCTURE
     1 7W7         1

