### 
### Created by X-TOOL on Mon Sep 10 21:13:31 2018
### 

@<TRIPOS>MOLECULE
5u62_ligand
   37    40     1     0     0
SMALL
GAST_HUCK


@<TRIPOS>ATOM
      1 C1         26.2370   72.4840   96.5000 C.ar      1 7WD         0.1167
      2 C2         27.6200   72.5140   96.4950 C.ar      1 7WD         0.1240
      3 C3         28.3750   71.7860   95.5810 C.ar      1 7WD        -0.0216
      4 C11        30.6290   72.6950   94.5620 C.3       1 7WD        -0.0045
      5 C12        30.3790   74.1950   94.8020 C.3       1 7WD        -0.0363
      6 C13        31.1820   75.1020   93.8550 C.3       1 7WD        -0.0037
      7 C14        31.1900   74.5310   92.4530 C.2       1 7WD         0.0407
      8 C16        30.3170   72.2830   93.1130 C.3       1 7WD         0.0617
      9 C17        31.5560   75.1830   91.2660 C.2       1 7WD        -0.0514
     10 C19        30.9620   73.2010   90.8240 C.2       1 7WD         0.1966
     11 C4         27.6590   70.9500   94.7110 C.ar      1 7WD        -0.0797
     12 C5         26.2470   70.9160   94.7120 C.ar      1 7WD        -0.0881
     13 C6         25.4980   71.7040   95.6010 C.ar      1 7WD        -0.0481
     14 O7         25.7680   73.3470   97.4460 O.3       1 7WD        -0.2932
     15 C8         26.8980   73.9430   98.1270 C.3       1 7WD         0.1850
     16 O9         28.0470   73.4270   97.4130 O.3       1 7WD        -0.2955
     17 C10        29.9030   71.8120   95.5980 C.3       1 7WD        -0.0183
     18 N15        30.8150   73.2830   92.1550 N.pl3     1 7WD        -0.2306
     19 N18        31.3810   74.3260   90.2280 N.2       1 7WD        -0.3471
     20 N20        30.6290   72.1020   90.1010 N.pl3     1 7WD        -0.3003
     21 H1         31.7062   72.5282   94.7096 H         1 7WD         0.0348
     22 H2         30.6603   74.4350   95.8380 H         1 7WD         0.0290
     23 H3         29.3079   74.3986   94.6563 H         1 7WD         0.0290
     24 H4         32.2168   75.1802   94.2197 H         1 7WD         0.0421
     25 H5         30.7234   76.1016   93.8359 H         1 7WD         0.0421
     26 H6         29.2278   72.1846   92.9948 H         1 7WD         0.0612
     27 H7         30.7974   71.3158   92.9039 H         1 7WD         0.0612
     28 H8         31.9200   76.2065   91.1900 H         1 7WD         0.0251
     29 H9         28.2027   70.3147   94.0212 H         1 7WD         0.0437
     30 H10        25.7310   70.2685   94.0123 H         1 7WD         0.0479
     31 H11        24.4140   71.7084   95.5921 H         1 7WD         0.0456
     32 H12        26.9241   73.6372   99.1833 H         1 7WD         0.0970
     33 H13        26.8586   75.0405   98.0638 H         1 7WD         0.0970
     34 H14        30.2485   70.7789   95.4451 H         1 7WD         0.0403
     35 H15        30.2122   72.1582   96.5953 H         1 7WD         0.0403
     36 H16        30.7644   72.0968   89.0799 H         1 7WD         0.1788
     37 H17        30.2409   71.2730   90.5733 H         1 7WD         0.1788
@<TRIPOS>BOND
     1    2    1 ar 
     2    1   13 ar 
     3    1   14 1  
     4    3    2 ar 
     5    2   16 1  
     6    3   11 ar 
     7   17    3 1  
     8    4    5 1  
     9    4    8 1  
    10    4   17 1  
    11    5    6 1  
    12    6    7 1  
    13    7    9 2  
    14    7   18 1  
    15    8   18 1  
    16    9   19 1  
    17   18   10 1  
    18   10   19 2  
    19   10   20 1  
    20   11   12 ar 
    21   12   13 ar 
    22   14   15 1  
    23   15   16 1  
    24    4   21 1  
    25    5   22 1  
    26    5   23 1  
    27    6   24 1  
    28    6   25 1  
    29    8   26 1  
    30    8   27 1  
    31    9   28 1  
    32   11   29 1  
    33   12   30 1  
    34   13   31 1  
    35   15   32 1  
    36   15   33 1  
    37   17   34 1  
    38   17   35 1  
    39   20   36 1  
    40   20   37 1  
@<TRIPOS>SUBSTRUCTURE
     1 7WD         1

