### 
### Created by X-TOOL on Mon Sep 10 21:13:30 2018
### 

@<TRIPOS>MOLECULE
5u69_ligand
   58    61     1     0     0
SMALL
GAST_HUCK


@<TRIPOS>ATOM
      1 C1        -17.3960  -23.7630   24.7060 C.2       1 LQD        -0.0325
      2 C2        -17.4030  -23.8660   23.1980 C.3       1 LQD         0.0636
      3 C3        -18.2520  -22.9360   25.3980 C.2       1 LQD         0.0196
      4 C11       -16.5320  -25.4730   21.6090 C.3       1 LQD         0.0151
      5 C12       -14.2950  -24.4560   21.2050 C.3       1 LQD         0.0008
      6 C14       -12.4290  -25.9270   22.0870 C.ar      1 LQD         0.0974
      7 C15       -18.7640  -22.2870   27.7290 C.3       1 LQD         0.0373
      8 C16       -15.5790  -25.3110   25.6710 C.ar      1 LQD        -0.0747
      9 C18       -16.4500  -24.3330   28.1660 C.ar      1 LQD        -0.0442
     10 C19       -13.5940  -26.6060   20.1400 C.ar      1 LQD        -0.0637
     11 C20       -19.9580  -25.3840   23.0770 C.3       1 LQD        -0.0428
     12 C21       -19.1290  -26.5050   21.2010 C.3       1 LQD        -0.0428
     13 C22       -11.6520  -27.0700   22.0050 C.ar      1 LQD        -0.0394
     14 C23       -11.2330  -25.1220   24.0120 C.3       1 LQD         0.0578
     15 C24       -15.0160  -25.7260   26.8530 C.ar      1 LQD        -0.0792
     16 C25       -15.4340  -25.2600   28.0770 C.ar      1 LQD        -0.0768
     17 C26       -12.8150  -27.7420   20.0470 C.ar      1 LQD        -0.0795
     18 C27       -11.8440  -27.9740   20.9870 C.ar      1 LQD        -0.0776
     19 N4        -18.0170  -23.0410   26.7370 N.pl3     1 LQD        -0.2777
     20 C5        -16.6080  -24.3890   25.7150 C.ar      1 LQD        -0.0208
     21 N6        -15.4400  -24.6520   22.1270 N.4       1 LQD         0.2509
     22 C7        -17.6210  -25.2620   22.6420 C.3       1 LQD         0.0314
     23 C8        -17.0060  -23.9310   26.9700 C.ar      1 LQD         0.0625
     24 C9        -16.1220  -23.4080   22.5270 C.3       1 LQD        -0.0180
     25 C10       -13.4210  -25.6790   21.1520 C.ar      1 LQD         0.0306
     26 N13       -18.9420  -25.3070   22.0190 N.4       1 LQD         0.2380
     27 O17       -12.2950  -24.9790   23.0800 O.3       1 LQD        -0.3248
     28 H1        -18.2260  -23.2241   22.8508 H         1 LQD         0.0494
     29 H2        -19.0048  -22.2936   24.9435 H         1 LQD         0.0797
     30 H3        -16.2398  -26.5318   21.5504 H         1 LQD         0.0872
     31 H4        -16.8537  -25.1258   20.6160 H         1 LQD         0.0872
     32 H5        -13.6958  -23.6022   21.5541 H         1 LQD         0.0956
     33 H6        -14.6792  -24.2461   20.1959 H         1 LQD         0.0956
     34 H7        -19.5111  -21.6568   27.2243 H         1 LQD         0.0559
     35 H8        -18.0738  -21.6501   28.3017 H         1 LQD         0.0559
     36 H9        -19.2728  -22.9831   28.4120 H         1 LQD         0.0559
     37 H10       -15.2237  -25.6985   24.7230 H         1 LQD         0.0540
     38 H11       -16.7912  -23.9436   29.1184 H         1 LQD         0.0541
     39 H12       -14.3648  -26.4353   19.3972 H         1 LQD         0.0528
     40 H13       -20.9590  -25.4186   22.6222 H         1 LQD         0.0778
     41 H14       -19.8802  -24.4987   23.7252 H         1 LQD         0.0778
     42 H15       -19.7958  -26.2924   23.6758 H         1 LQD         0.0778
     43 H16       -18.3931  -26.5092   20.3834 H         1 LQD         0.0778
     44 H17       -20.1451  -26.5064   20.7797 H         1 LQD         0.0778
     45 H18       -18.9893  -27.4003   21.8246 H         1 LQD         0.0778
     46 H19       -10.8859  -27.2537   22.7496 H         1 LQD         0.0521
     47 H20       -11.2639  -24.2920   24.7332 H         1 LQD         0.0574
     48 H21       -10.2717  -25.1077   23.4776 H         1 LQD         0.0574
     49 H22       -11.3409  -26.0770   24.5472 H         1 LQD         0.0574
     50 H23       -14.2098  -26.4499   26.8195 H         1 LQD         0.0510
     51 H24       -14.9599  -25.6252   28.9808 H         1 LQD         0.0530
     52 H25       -12.9698  -28.4454   19.2368 H         1 LQD         0.0505
     53 H26       -11.2307  -28.8659   20.9278 H         1 LQD         0.0531
     54 H27       -15.0675  -25.0969   22.9512 H         1 LQD         0.2050
     55 H28       -17.5519  -26.0195   23.4366 H         1 LQD         0.0924
     56 H29       -15.5002  -22.8342   23.2300 H         1 LQD         0.0834
     57 H30       -16.3462  -22.7887   21.6460 H         1 LQD         0.0834
     58 H31       -19.0751  -24.4815   21.4561 H         1 LQD         0.2034
@<TRIPOS>BOND
     1    2    1 1  
     2    1    3 2  
     3    1   20 1  
     4   22    2 1  
     5    2   24 1  
     6    3   19 1  
     7    4   21 1  
     8   22    4 1  
     9   21    5 1  
    10    5   25 1  
    11    6   13 ar 
    12   25    6 ar 
    13    6   27 1  
    14   19    7 1  
    15    8   15 ar 
    16   20    8 ar 
    17    9   16 ar 
    18   23    9 ar 
    19   10   17 ar 
    20   25   10 ar 
    21   26   11 1  
    22   26   12 1  
    23   13   18 ar 
    24   27   14 1  
    25   15   16 ar 
    26   17   18 ar 
    27   23   19 1  
    28   20   23 ar 
    29   21   24 1  
    30   22   26 1  
    31    2   28 1  
    32    3   29 1  
    33    4   30 1  
    34    4   31 1  
    35    5   32 1  
    36    5   33 1  
    37    7   34 1  
    38    7   35 1  
    39    7   36 1  
    40    8   37 1  
    41    9   38 1  
    42   10   39 1  
    43   11   40 1  
    44   11   41 1  
    45   11   42 1  
    46   12   43 1  
    47   12   44 1  
    48   12   45 1  
    49   13   46 1  
    50   14   47 1  
    51   14   48 1  
    52   14   49 1  
    53   15   50 1  
    54   16   51 1  
    55   17   52 1  
    56   18   53 1  
    57   21   54 1  
    58   22   55 1  
    59   24   56 1  
    60   24   57 1  
    61   26   58 1  
@<TRIPOS>SUBSTRUCTURE
     1 LQD         1

