### 
### Created by X-TOOL on Mon Sep 10 21:13:33 2018
### 

@<TRIPOS>MOLECULE
5u6b_ligand
   54    57     1     0     0
SMALL
GAST_HUCK


@<TRIPOS>ATOM
      1 N3         26.6810  -12.6260   14.0370 N.ar      1 7YS        -0.2818
      2 C4         27.1150  -12.1060   15.1920 C.ar      1 7YS         0.0063
      3 C5         26.6590  -12.5540   16.4270 C.ar      1 7YS         0.0285
      4 C7         26.9760  -11.8370   17.6990 C.2       1 7YS         0.0203
      5 C8         28.1230  -10.9640   17.9540 C.2       1 7YS         0.0083
      6 C15        22.8640  -14.4130   18.5070 C.ar      1 7YS         0.0510
      7 C17        23.9830  -15.6890   16.5880 C.3       1 7YS         0.1184
      8 C20        21.6890  -14.4710   16.4360 C.ar      1 7YS         0.0829
      9 C21        20.6930  -13.7030   16.9620 C.ar      1 7YS         0.1454
     10 C22        20.7380  -13.2830   18.2670 C.ar      1 7YS        -0.0286
     11 C28        26.6290  -10.7110   21.1430 C.3       1 7YS         0.0915
     12 C1         25.3560  -14.1100   15.3450 C.ar      1 7YS         0.2072
     13 C2         25.7690  -13.6250   14.0540 C.ar      1 7YS         0.1641
     14 N6         25.8040  -13.5870   16.4760 N.ar      1 7YS        -0.2753
     15 N9         28.0910  -10.5260   19.2020 N.2       1 7YS        -0.2348
     16 N10        26.9540  -11.0630   19.7610 N.pl3     1 7YS        -0.2031
     17 C11        26.2610  -11.8500   18.8960 C.2       1 7YS         0.1059
     18 C12        24.9420  -12.5170   19.2140 C.3       1 7YS         0.0992
     19 N13        24.9540  -13.8940   19.6940 N.am      1 7YS        -0.2602
     20 C14        24.0020  -14.8020   19.4080 C.2       1 7YS         0.2019
     21 C16        22.8170  -14.8450   17.1730 C.ar      1 7YS         0.0232
     22 O18        24.4670  -15.1300   15.3670 O.3       1 7YS        -0.2809
     23 C19        23.6050  -17.1320   16.3250 C.3       1 7YS        -0.0227
     24 C23        21.8240  -13.6470   19.0450 C.ar      1 7YS        -0.0498
     25 F24        19.6560  -13.3110   16.1850 F         1 7YS        -0.1804
     26 CL25       21.4880  -14.9760   14.8020 Cl        1 7YS        -0.0775
     27 O26        24.0010  -15.9210   19.8780 O.2       1 7YS        -0.3900
     28 C27        26.0500  -14.2700   20.5800 C.3       1 7YS         0.0247
     29 C29        26.1100   -9.2920   21.2780 C.3       1 7YS         0.0730
     30 O30        24.9730   -9.0690   20.4680 O.3       1 7YS        -0.3922
     31 C31        29.2160  -10.5170   17.0390 C.3       1 7YS        -0.0282
     32 N32        25.3010  -14.0630   12.8830 N.pl3     1 7YS        -0.3218
     33 H1         27.8477  -11.3076   15.1634 H         1 7YS         0.0704
     34 H2         24.7998  -15.6785   17.3246 H         1 7YS         0.0832
     35 H3         19.9393  -12.6782   18.6810 H         1 7YS         0.0560
     36 H4         27.5370  -10.8135   21.7553 H         1 7YS         0.0652
     37 H5         25.8583  -11.4042   21.5110 H         1 7YS         0.0652
     38 H6         24.3397  -12.4997   18.2937 H         1 7YS         0.0756
     39 H7         24.4489  -11.9087   19.9865 H         1 7YS         0.0756
     40 H8         24.4724  -17.6691   15.9137 H         1 7YS         0.0283
     41 H9         22.7756  -17.1681   15.6034 H         1 7YS         0.0283
     42 H10        23.2926  -17.6067   17.2668 H         1 7YS         0.0283
     43 H11        21.8690  -13.3351   20.0822 H         1 7YS         0.0643
     44 H12        25.9429  -15.3263   20.8678 H         1 7YS         0.0488
     45 H13        26.0254  -13.6401   21.4814 H         1 7YS         0.0488
     46 H14        27.0082  -14.1274   20.0589 H         1 7YS         0.0488
     47 H15        26.9039   -8.5925   20.9774 H         1 7YS         0.0586
     48 H16        25.8397   -9.1103   22.3287 H         1 7YS         0.0586
     49 H17        24.2803   -9.6661   20.7252 H         1 7YS         0.2095
     50 H18        29.9072   -9.8598   17.5871 H         1 7YS         0.0381
     51 H19        28.7822   -9.9671   16.1908 H         1 7YS         0.0381
     52 H20        29.7635  -11.3949   16.6654 H         1 7YS         0.0381
     53 H21        24.6056  -14.8224   12.8579 H         1 7YS         0.1741
     54 H22        25.6353  -13.6416   12.0046 H         1 7YS         0.1741
@<TRIPOS>BOND
     1    2    1 ar 
     2    1   13 ar 
     3    3    2 ar 
     4    4    3 1  
     5    3   14 ar 
     6    5    4 1  
     7    4   17 2  
     8   15    5 2  
     9    5   31 1  
    10    6   20 1  
    11   21    6 ar 
    12    6   24 ar 
    13    7   21 1  
    14   22    7 1  
    15    7   23 1  
    16    8    9 ar 
    17   21    8 ar 
    18    8   26 1  
    19    9   10 ar 
    20    9   25 1  
    21   24   10 ar 
    22   16   11 1  
    23   11   29 1  
    24   12   13 ar 
    25   14   12 ar 
    26   12   22 1  
    27   13   32 1  
    28   15   16 1  
    29   16   17 1  
    30   17   18 1  
    31   18   19 1  
    32   19   20 am 
    33   19   28 1  
    34   20   27 2  
    35   29   30 1  
    36    2   33 1  
    37    7   34 1  
    38   10   35 1  
    39   11   36 1  
    40   11   37 1  
    41   18   38 1  
    42   18   39 1  
    43   23   40 1  
    44   23   41 1  
    45   23   42 1  
    46   24   43 1  
    47   28   44 1  
    48   28   45 1  
    49   28   46 1  
    50   29   47 1  
    51   29   48 1  
    52   30   49 1  
    53   31   50 1  
    54   31   51 1  
    55   31   52 1  
    56   32   53 1  
    57   32   54 1  
@<TRIPOS>SUBSTRUCTURE
     1 7YS         1

