### 
### Created by X-TOOL on Mon Sep 10 21:13:33 2018
### 

@<TRIPOS>MOLECULE
5u6c_ligand
   54    57     1     0     0
SMALL
GAST_HUCK


@<TRIPOS>ATOM
      1 N3         -2.1210  -22.9260  -18.0730 N.ar      1 7YS        -0.2818
      2 C4         -2.2160  -22.0300  -17.0810 C.ar      1 7YS         0.0063
      3 C5         -3.0450  -20.9150  -17.1620 C.ar      1 7YS         0.0285
      4 C7         -3.0270  -19.8550  -16.1140 C.2       1 7YS         0.0203
      5 C8         -2.7320  -20.0390  -14.6800 C.2       1 7YS         0.0083
      6 C15        -4.6980  -17.9050  -20.2690 C.ar      1 7YS         0.0510
      7 C17        -5.3750  -20.3620  -20.5020 C.3       1 7YS         0.1184
      8 C20        -3.7140  -19.1320  -22.0670 C.ar      1 7YS         0.0829
      9 C21        -3.0040  -18.0000  -22.4510 C.ar      1 7YS         0.1454
     10 C22        -3.1210  -16.8220  -21.7570 C.ar      1 7YS        -0.0286
     11 C28        -3.0910  -16.5390  -14.6190 C.3       1 7YS         0.0915
     12 C1         -3.7330  -21.6160  -19.2360 C.ar      1 7YS         0.2072
     13 C2         -2.8530  -22.7620  -19.1990 C.ar      1 7YS         0.1641
     14 N6         -3.8160  -20.7400  -18.2460 N.ar      1 7YS        -0.2753
     15 N9         -2.7770  -18.8790  -14.0620 N.2       1 7YS        -0.2348
     16 N10        -3.0790  -17.9450  -15.0240 N.pl3     1 7YS        -0.2031
     17 C11        -3.2480  -18.4910  -16.2620 C.2       1 7YS         0.1059
     18 C12        -3.6410  -17.7230  -17.5370 C.3       1 7YS         0.0992
     19 N13        -5.0670  -17.6540  -17.8480 N.am      1 7YS        -0.2602
     20 C14        -5.6110  -17.7580  -19.0750 C.2       1 7YS         0.2019
     21 C16        -4.5820  -19.1180  -20.9680 C.ar      1 7YS         0.0232
     22 O18        -4.4890  -21.4700  -20.3440 O.3       1 7YS        -0.2809
     23 C19        -6.4990  -20.7770  -21.4290 C.3       1 7YS        -0.0227
     24 C23        -3.9760  -16.7720  -20.6710 C.ar      1 7YS        -0.0498
     25 F24        -2.2080  -18.0290  -23.5420 F         1 7YS        -0.1804
     26 CL25       -3.4620  -20.5750  -22.9900 Cl        1 7YS        -0.0775
     27 O26        -6.8210  -17.7460  -19.2590 O.2       1 7YS        -0.3900
     28 C27        -5.9730  -17.4070  -16.7290 C.3       1 7YS         0.0247
     29 C29        -1.6970  -15.9510  -14.5510 C.3       1 7YS         0.0730
     30 O30        -1.0950  -16.0970  -15.8230 O.3       1 7YS        -0.3922
     31 C31        -2.4520  -21.2790  -13.8980 C.3       1 7YS        -0.0282
     32 N32        -2.6880  -23.6470  -20.1910 N.pl3     1 7YS        -0.3218
     33 H1         -1.6263  -22.1789  -16.1837 H         1 7YS         0.0704
     34 H2         -5.8184  -20.1232  -19.5241 H         1 7YS         0.0832
     35 H3         -2.5541  -15.9472  -22.0543 H         1 7YS         0.0560
     36 H4         -3.5573  -16.4604  -13.6258 H         1 7YS         0.0652
     37 H5         -3.6821  -15.9654  -15.3481 H         1 7YS         0.0652
     38 H6         -3.1377  -18.2076  -18.3866 H         1 7YS         0.0756
     39 H7         -3.2725  -16.6919  -17.4320 H         1 7YS         0.0756
     40 H8         -7.0034  -21.6645  -21.0192 H         1 7YS         0.0283
     41 H9         -6.0874  -21.0145  -22.4210 H         1 7YS         0.0283
     42 H10        -7.2224  -19.9534  -21.5198 H         1 7YS         0.0283
     43 H11        -4.0896  -15.8438  -20.1228 H         1 7YS         0.0643
     44 H12        -7.0096  -17.3786  -17.0959 H         1 7YS         0.0488
     45 H13        -5.7233  -16.4435  -16.2608 H         1 7YS         0.0488
     46 H14        -5.8684  -18.2130  -15.9877 H         1 7YS         0.0488
     47 H15        -1.1036  -16.4852  -13.7944 H         1 7YS         0.0586
     48 H16        -1.7547  -14.8849  -14.2862 H         1 7YS         0.0586
     49 H17        -1.6135  -15.6364  -16.4722 H         1 7YS         0.2095
     50 H18        -2.2768  -21.0162  -12.8443 H         1 7YS         0.0381
     51 H19        -1.5590  -21.7756  -14.3053 H         1 7YS         0.0381
     52 H20        -3.3138  -21.9590  -13.9679 H         1 7YS         0.0381
     53 H21        -3.2296  -23.5514  -21.0619 H         1 7YS         0.1741
     54 H22        -2.0195  -24.4231  -20.0829 H         1 7YS         0.1741
@<TRIPOS>BOND
     1    2    1 ar 
     2    1   13 ar 
     3    3    2 ar 
     4    4    3 1  
     5    3   14 ar 
     6    5    4 1  
     7    4   17 2  
     8   15    5 2  
     9    5   31 1  
    10    6   20 1  
    11   21    6 ar 
    12    6   24 ar 
    13    7   21 1  
    14   22    7 1  
    15    7   23 1  
    16    8    9 ar 
    17   21    8 ar 
    18    8   26 1  
    19    9   10 ar 
    20    9   25 1  
    21   24   10 ar 
    22   16   11 1  
    23   11   29 1  
    24   12   13 ar 
    25   14   12 ar 
    26   12   22 1  
    27   13   32 1  
    28   15   16 1  
    29   16   17 1  
    30   17   18 1  
    31   18   19 1  
    32   19   20 am 
    33   19   28 1  
    34   20   27 2  
    35   29   30 1  
    36    2   33 1  
    37    7   34 1  
    38   10   35 1  
    39   11   36 1  
    40   11   37 1  
    41   18   38 1  
    42   18   39 1  
    43   23   40 1  
    44   23   41 1  
    45   23   42 1  
    46   24   43 1  
    47   28   44 1  
    48   28   45 1  
    49   28   46 1  
    50   29   47 1  
    51   29   48 1  
    52   30   49 1  
    53   31   50 1  
    54   31   51 1  
    55   31   52 1  
    56   32   53 1  
    57   32   54 1  
@<TRIPOS>SUBSTRUCTURE
     1 7YS         1

