### 
### Created by X-TOOL on Mon Sep 10 21:13:30 2018
### 

@<TRIPOS>MOLECULE
5u6d_ligand
   64    67     1     0     0
SMALL
GAST_HUCK


@<TRIPOS>ATOM
      1 C1        -11.7050  -27.9630   20.8830 C.ar      1 7XG        -0.0772
      2 C2        -17.8920  -23.4030   26.9230 C.ar      1 7XG        -0.0681
      3 C3        -16.2210  -25.0820   26.7370 C.ar      1 7XG        -0.0681
      4 C4        -17.9810  -23.3330   25.5460 C.ar      1 7XG        -0.0639
      5 C5        -16.3190  -25.0070   25.3610 C.ar      1 7XG        -0.0639
      6 C6        -11.5240  -27.0890   21.9370 C.ar      1 7XG        -0.0709
      7 C7        -12.6870  -27.7110   19.9530 C.ar      1 7XG        -0.0416
      8 C8        -17.8210  -23.8120   29.9270 C.2       1 7XG         0.0049
      9 C9        -15.8660  -24.8120   29.6930 C.2       1 7XG         0.0645
     10 C10       -17.0130  -24.2770   27.5260 C.ar      1 7XG        -0.0415
     11 C11       -16.9160  -24.3010   28.9580 C.2       1 7XG        -0.0031
     12 C12       -17.1920  -24.1320   24.7450 C.ar      1 7XG        -0.0333
     13 C13       -12.3070  -25.9640   22.0780 C.ar      1 7XG        -0.0407
     14 C14       -13.2980  -25.7070   21.1450 C.ar      1 7XG         0.0364
     15 C15       -13.4740  -26.5870   20.0900 C.ar      1 7XG         0.1317
     16 C16       -15.4120  -23.9610   33.2650 C.2       1 7XG         0.2068
     17 C17       -15.9760  -23.5370   22.6680 C.3       1 7XG        -0.0130
     18 C18       -16.4140  -25.5470   21.5490 C.3       1 7XG         0.0158
     19 C19       -17.2880  -24.0470   23.2390 C.3       1 7XG         0.0787
     20 C20       -17.5180  -25.4070   22.5740 C.3       1 7XG         0.0363
     21 C21       -12.0050  -25.0990   23.2690 C.3       1 7XG        -0.0344
     22 C22       -19.1110  -26.5510   20.9960 C.3       1 7XG        -0.0427
     23 C23       -19.9010  -25.5080   23.0320 C.3       1 7XG        -0.0427
     24 C24       -14.1780  -24.5060   21.2400 C.3       1 7XG         0.0008
     25 C25       -15.3880  -24.9750   32.1500 C.3       1 7XG         0.1596
     26 N26       -17.3790  -24.0020   31.1720 N.2       1 7XG        -0.2119
     27 N27       -16.1910  -24.6040   31.0010 N.pl3     1 7XG        -0.1849
     28 N28       -15.3230  -24.7530   22.1440 N.4       1 7XG         0.2514
     29 N29       -14.7130  -24.4110   34.3550 N.am      1 7XG        -0.2984
     30 N30       -18.8750  -25.4410   21.9560 N.4       1 7XG         0.2386
     31 O31       -15.9760  -22.8720   33.2210 O.2       1 7XG        -0.3940
     32 F32       -14.4300  -26.3880   19.1580 F         1 7XG        -0.1909
     33 H1        -11.0774  -28.8418   20.7891 H         1 7XG         0.0532
     34 H2        -18.5192  -22.7647   27.5348 H         1 7XG         0.0560
     35 H3        -15.5223  -25.7729   27.1949 H         1 7XG         0.0560
     36 H4        -18.6797  -22.6414   25.0894 H         1 7XG         0.0547
     37 H5        -15.6958  -25.6503   24.7503 H         1 7XG         0.0547
     38 H6        -10.7501  -27.2922   22.6683 H         1 7XG         0.0504
     39 H7        -12.8405  -28.3890   19.1212 H         1 7XG         0.0528
     40 H8        -18.7698  -23.3351   29.6857 H         1 7XG         0.0670
     41 H9        -14.9635  -25.2842   29.3078 H         1 7XG         0.1023
     42 H10       -15.3625  -23.0700   23.4525 H         1 7XG         0.0842
     43 H11       -16.1556  -22.8105   21.8619 H         1 7XG         0.0842
     44 H12       -16.7203  -25.1351   20.5761 H         1 7XG         0.0873
     45 H13       -16.1179  -26.5991   21.4250 H         1 7XG         0.0873
     46 H14       -18.1092  -23.3642   22.9756 H         1 7XG         0.0566
     47 H15       -17.4423  -26.2147   23.3169 H         1 7XG         0.0932
     48 H16       -11.1725  -25.5374   23.8389 H         1 7XG         0.0375
     49 H17       -12.8957  -25.0355   23.9113 H         1 7XG         0.0375
     50 H18       -11.7256  -24.0910   22.9287 H         1 7XG         0.0375
     51 H19       -20.1356  -26.4831   20.6017 H         1 7XG         0.0778
     52 H20       -18.9791  -27.5146   21.5099 H         1 7XG         0.0778
     53 H21       -18.3930  -26.4768   20.1659 H         1 7XG         0.0778
     54 H22       -19.7350  -24.6899   23.7484 H         1 7XG         0.0778
     55 H23       -19.8230  -26.4734   23.5534 H         1 7XG         0.0778
     56 H24       -20.9033  -25.4101   22.5896 H         1 7XG         0.0778
     57 H25       -14.5586  -24.2596   20.2378 H         1 7XG         0.0956
     58 H26       -13.5908  -23.6604   21.6274 H         1 7XG         0.0956
     59 H27       -15.7659  -25.9305   32.5426 H         1 7XG         0.0888
     60 H28       -14.3467  -25.1009   31.8186 H         1 7XG         0.0888
     61 H29       -14.9539  -25.2689   22.9274 H         1 7XG         0.2050
     62 H30       -14.6428  -23.8414   35.1739 H         1 7XG         0.1815
     63 H31       -14.2733  -25.3088   34.3312 H         1 7XG         0.1815
     64 H32       -18.9955  -24.5769   21.4511 H         1 7XG         0.2034
@<TRIPOS>BOND
     1    6    1 ar 
     2    7    1 ar 
     3    2    4 ar 
     4   10    2 ar 
     5    3    5 ar 
     6   10    3 ar 
     7    4   12 ar 
     8    5   12 ar 
     9   13    6 ar 
    10   15    7 ar 
    11   11    8 1  
    12    8   26 2  
    13    9   11 2  
    14   27    9 1  
    15   11   10 1  
    16   12   19 1  
    17   14   13 ar 
    18   13   21 1  
    19   14   15 ar 
    20   24   14 1  
    21   15   32 1  
    22   25   16 1  
    23   16   29 am 
    24   16   31 2  
    25   19   17 1  
    26   17   28 1  
    27   20   18 1  
    28   18   28 1  
    29   19   20 1  
    30   20   30 1  
    31   30   22 1  
    32   30   23 1  
    33   28   24 1  
    34   25   27 1  
    35   26   27 1  
    36    1   33 1  
    37    2   34 1  
    38    3   35 1  
    39    4   36 1  
    40    5   37 1  
    41    6   38 1  
    42    7   39 1  
    43    8   40 1  
    44    9   41 1  
    45   17   42 1  
    46   17   43 1  
    47   18   44 1  
    48   18   45 1  
    49   19   46 1  
    50   20   47 1  
    51   21   48 1  
    52   21   49 1  
    53   21   50 1  
    54   22   51 1  
    55   22   52 1  
    56   22   53 1  
    57   23   54 1  
    58   23   55 1  
    59   23   56 1  
    60   24   57 1  
    61   24   58 1  
    62   25   59 1  
    63   25   60 1  
    64   28   61 1  
    65   29   62 1  
    66   29   63 1  
    67   30   64 1  
@<TRIPOS>SUBSTRUCTURE
     1 7XG         1

