### 
### Created by X-TOOL on Mon Sep 10 21:13:32 2018
### 

@<TRIPOS>MOLECULE
5u6j_ligand
   78    81     1     0     0
SMALL
GAST_HUCK


@<TRIPOS>ATOM
      1 C13         3.6010   35.7100   24.3470 C.ar      1 82J        -0.0471
      2 C18         5.6920   39.8320   22.1980 C.ar      1 82J        -0.0100
      3 C17         6.7200   40.2320   23.2340 C.3       1 82J         0.0657
      4 C19         5.8320   40.0610   20.8150 C.ar      1 82J         0.0762
      5 C20         4.8370   39.6660   19.9260 C.ar      1 82J        -0.0571
      6 C21         3.6890   39.0400   20.3870 C.ar      1 82J        -0.0464
      7 C22         3.5180   38.8070   21.7450 C.ar      1 82J         0.0614
      8 C23         4.5220   39.1950   22.6280 C.ar      1 82J        -0.0370
      9 C11         3.2550   36.6410   26.5480 C.ar      1 82J        -0.0727
     10 C12         2.7290   36.0250   25.4120 C.ar      1 82J        -0.0449
     11 C34         3.3060   33.5490   23.2020 C.3       1 82J        -0.0565
     12 C1          9.5470   33.7590   28.4530 C.ar      1 82J        -0.0553
     13 C2          8.7820   34.8650   28.8130 C.ar      1 82J         0.0379
     14 C3          8.2040   35.6460   27.8140 C.ar      1 82J        -0.0246
     15 C4          8.3930   35.3250   26.4650 C.ar      1 82J         0.0470
     16 C5          9.1630   34.2160   26.1240 C.ar      1 82J        -0.0399
     17 C6          9.7320   33.4410   27.1180 C.ar      1 82J        -0.0680
     18 N7          7.8590   36.1010   25.4320 N.pl3     1 82J        -0.2923
     19 C8          6.8990   37.1850   25.5750 C.3       1 82J         0.1541
     20 C9          7.0860   38.1490   24.3900 C.2       1 82J         0.2156
     21 C10         4.5980   36.9610   26.6290 C.ar      1 82J        -0.0692
     22 C14         4.9520   36.0430   24.4560 C.ar      1 82J        -0.0608
     23 O15         7.5840   37.7240   23.3660 O.2       1 82J        -0.3915
     24 N16         6.6530   39.4280   24.4690 N.am      1 82J        -0.2618
     25 N24         2.3310   38.1710   22.2060 N.am      1 82J        -0.2104
     26 C25         1.2270   35.7690   25.3610 C.3       1 82J         0.0033
     27 C26         1.7870   38.2400   23.4530 C.2       1 82J         0.3502
     28 O27         0.7810   37.3450   23.5570 O.3       1 82J        -0.2571
     29 O28         2.1780   38.9280   24.3670 O.2       1 82J        -0.3669
     30 C29         0.3990   36.9720   24.9110 C.3       1 82J         0.0854
     31 C30         3.1610   35.0050   23.0900 C.3       1 82J        -0.0259
     32 C31         8.5400   35.2580   30.2510 C.2       1 82J         0.1994
     33 N32         9.1390   34.5370   31.2250 N.am      1 82J        -0.3002
     34 O33         7.7770   36.2080   30.5000 O.2       1 82J        -0.3849
     35 C35         6.1440   40.1020   25.6640 C.3       1 82J         0.0249
     36 S36         7.2470   40.8660   20.0580 S.o2      1 82J        -0.0095
     37 O37         7.9620   41.6130   21.0580 O.2       1 82J        -0.1720
     38 C38         8.3480   39.4950   19.4770 C.3       1 82J         0.0736
     39 C39         9.0470   38.7250   20.5840 C.3       1 82J        -0.0430
     40 C40         9.3220   40.0450   18.4530 C.3       1 82J        -0.0430
     41 O41         6.7760   41.5650   18.8930 O.2       1 82J        -0.1720
     42 C42         5.4590   36.6870   25.5780 C.ar      1 82J        -0.0132
     43 H1          6.5575   41.2878   23.4965 H         1 82J         0.0684
     44 H2          7.7215   40.1132   22.7949 H         1 82J         0.0684
     45 H3          4.9604   39.8492   18.8647 H         1 82J         0.0579
     46 H4          2.9227   38.7316   19.6851 H         1 82J         0.0447
     47 H5          4.3932   38.9968   23.6859 H         1 82J         0.0437
     48 H6          2.6005   36.8725   27.3805 H         1 82J         0.0522
     49 H7          2.9750   33.0745   22.2664 H         1 82J         0.0250
     50 H8          2.6906   33.1823   24.0367 H         1 82J         0.0250
     51 H9          4.3611   33.2987   23.3867 H         1 82J         0.0250
     52 H10        10.0002   33.1436   29.2217 H         1 82J         0.0557
     53 H11         7.6041   36.5077   28.0836 H         1 82J         0.0565
     54 H12         9.3161   33.9607   25.0817 H         1 82J         0.0551
     55 H13        10.3284   32.5765   26.8496 H         1 82J         0.0594
     56 H14         8.1761   35.8842   24.4763 H         1 82J         0.1809
     57 H15         7.0945   37.7145   26.5191 H         1 82J         0.0938
     58 H16         4.9823   37.4323   27.5263 H         1 82J         0.0487
     59 H17         5.6240   35.7924   23.6432 H         1 82J         0.0482
     60 H18         1.8409   37.6100   21.5389 H         1 82J         0.2274
     61 H19         0.8927   35.4780   26.3677 H         1 82J         0.0425
     62 H20         1.0421   34.9419   24.6598 H         1 82J         0.0425
     63 H21         0.5824   37.8179   25.5898 H         1 82J         0.0631
     64 H22        -0.6692   36.7102   24.9316 H         1 82J         0.0631
     65 H23         3.7749   35.3602   22.2492 H         1 82J         0.0408
     66 H24         2.1043   35.2438   22.8992 H         1 82J         0.0408
     67 H25         8.9949   34.7768   32.1851 H         1 82J         0.1808
     68 H26         9.7262   33.7638   30.9855 H         1 82J         0.1808
     69 H27         6.1448   39.3988   26.5099 H         1 82J         0.0488
     70 H28         5.1176   40.4515   25.4787 H         1 82J         0.0488
     71 H29         6.7870   40.9622   25.9018 H         1 82J         0.0488
     72 H30         7.7045   38.7688   18.9588 H         1 82J         0.0531
     73 H31         9.6742   37.9365   20.1425 H         1 82J         0.0248
     74 H32         8.2950   38.2686   21.2445 H         1 82J         0.0248
     75 H33         9.6781   39.4122   21.1667 H         1 82J         0.0248
     76 H34         9.9804   39.2367   18.1022 H         1 82J         0.0248
     77 H35         9.9289   40.8385   18.9134 H         1 82J         0.0248
     78 H36         8.7632   40.4587   17.6006 H         1 82J         0.0248
@<TRIPOS>BOND
     1   10    1 ar 
     2    1   22 ar 
     3    1   31 1  
     4    3    2 1  
     5    2    4 ar 
     6    2    8 ar 
     7   24    3 1  
     8    4    5 ar 
     9    4   36 1  
    10    5    6 ar 
    11    7    6 ar 
    12    8    7 ar 
    13    7   25 1  
    14    9   10 ar 
    15   21    9 ar 
    16   10   26 1  
    17   31   11 1  
    18   13   12 ar 
    19   17   12 ar 
    20   14   13 ar 
    21   13   32 1  
    22   15   14 ar 
    23   15   16 ar 
    24   18   15 1  
    25   16   17 ar 
    26   19   18 1  
    27   19   20 1  
    28   42   19 1  
    29   20   23 2  
    30   20   24 am 
    31   21   42 ar 
    32   22   42 ar 
    33   24   35 1  
    34   25   27 am 
    35   26   30 1  
    36   27   28 1  
    37   27   29 2  
    38   28   30 1  
    39   32   33 am 
    40   32   34 2  
    41   36   37 2  
    42   36   38 1  
    43   36   41 2  
    44   38   39 1  
    45   38   40 1  
    46    3   43 1  
    47    3   44 1  
    48    5   45 1  
    49    6   46 1  
    50    8   47 1  
    51    9   48 1  
    52   11   49 1  
    53   11   50 1  
    54   11   51 1  
    55   12   52 1  
    56   14   53 1  
    57   16   54 1  
    58   17   55 1  
    59   18   56 1  
    60   19   57 1  
    61   21   58 1  
    62   22   59 1  
    63   25   60 1  
    64   26   61 1  
    65   26   62 1  
    66   30   63 1  
    67   30   64 1  
    68   31   65 1  
    69   31   66 1  
    70   33   67 1  
    71   33   68 1  
    72   35   69 1  
    73   35   70 1  
    74   35   71 1  
    75   38   72 1  
    76   39   73 1  
    77   39   74 1  
    78   39   75 1  
    79   40   76 1  
    80   40   77 1  
    81   40   78 1  
@<TRIPOS>SUBSTRUCTURE
     1 82J         1

