### 
### Created by X-TOOL on Mon Sep 10 21:13:31 2018
### 

@<TRIPOS>MOLECULE
5u6v_ligand
   48    52     1     0     0
SMALL
GAST_HUCK


@<TRIPOS>ATOM
      1 C10       -18.2630   -4.5150   -8.3360 C.ar      1 7WY         0.0706
      2 C13       -19.4080   -2.7470   -6.5130 C.ar      1 7WY        -0.0687
      3 C15       -19.4570   -3.8320   -8.6710 C.ar      1 7WY        -0.0343
      4 C17       -22.0090   -2.8360   -9.1150 C.ar      1 7WY        -0.0466
      5 C21       -21.5660   -1.1010   -7.5200 C.ar      1 7WY         0.0041
      6 C24       -17.2480   -3.4630  -10.8470 C.ar      1 7WY        -0.0388
      7 C26       -17.1160   -3.7970  -13.2300 C.ar      1 7WY         0.0273
      8 C28       -17.5930   -5.6590  -11.7770 C.ar      1 7WY        -0.0388
      9 C01       -15.3500   -3.0560   -5.1820 C.3       1 7WY        -0.0280
     10 C02       -15.4170   -4.4250   -5.8130 C.2       1 7WY         0.0436
     11 C03       -16.4390   -4.9710   -6.6650 C.2       1 7WY         0.1087
     12 N04       -16.0530   -6.1830   -6.9640 N.pl3     1 7WY        -0.1744
     13 N05       -14.8420   -6.4330   -6.3510 N.2       1 7WY        -0.1032
     14 N06       -14.4750   -5.3540   -5.6640 N.2       1 7WY        -0.2239
     15 C07       -16.9520   -7.0380   -7.6950 C.3       1 7WY         0.0974
     16 C08       -17.0480   -6.6530   -9.1540 C.3       1 7WY         0.0748
     17 N09       -17.6700   -5.3770   -9.3510 N.pl3     1 7WY        -0.2569
     18 C11       -17.6410   -4.3210   -7.1270 C.ar      1 7WY         0.0295
     19 C12       -18.2340   -3.4230   -6.1850 C.ar      1 7WY        -0.0638
     20 C14       -20.0280   -2.9540   -7.7540 C.ar      1 7WY        -0.0313
     21 C16       -21.1960   -2.2960   -8.1150 C.ar      1 7WY        -0.0078
     22 C18       -23.1710   -2.1740   -9.4870 C.ar      1 7WY        -0.0155
     23 C19       -23.5030   -0.9780   -8.8580 C.ar      1 7WY         0.1097
     24 N20       -22.7020   -0.4780   -7.9000 N.ar      1 7WY        -0.2838
     25 N22       -24.6910   -0.2850   -9.2260 N.pl3     1 7WY        -0.3216
     26 C23       -17.5280   -4.8200  -10.6670 C.ar      1 7WY         0.0619
     27 C25       -17.0460   -2.9490  -12.1290 C.ar      1 7WY        -0.0583
     28 C27       -17.3860   -5.1460  -13.0570 C.ar      1 7WY        -0.0583
     29 CL        -16.8630   -3.1830  -14.8410 Cl        1 7WY        -0.0820
     30 H1        -19.8458   -2.0551   -5.8026 H         1 7WY         0.0514
     31 H2        -19.9239   -3.9918   -9.6361 H         1 7WY         0.0513
     32 H3        -21.7338   -3.7668   -9.5976 H         1 7WY         0.0704
     33 H4        -20.9423   -0.6652   -6.7479 H         1 7WY         0.0790
     34 H5        -17.1873   -2.8061   -9.9868 H         1 7WY         0.0531
     35 H6        -17.8051   -6.7139  -11.6454 H         1 7WY         0.0531
     36 H7        -14.4276   -2.9705   -4.5888 H         1 7WY         0.0358
     37 H8        -16.2219   -2.9110   -4.5272 H         1 7WY         0.0358
     38 H9        -15.3516   -2.2885   -5.9700 H         1 7WY         0.0358
     39 H10       -17.9527   -6.9679   -7.2438 H         1 7WY         0.0662
     40 H11       -16.5901   -8.0744   -7.6254 H         1 7WY         0.0662
     41 H12       -17.6382   -7.4170   -9.6812 H         1 7WY         0.0595
     42 H13       -16.0328   -6.6181   -9.5760 H         1 7WY         0.0595
     43 H14       -17.7710   -3.2683   -5.2171 H         1 7WY         0.0569
     44 H15       -23.8124   -2.5840  -10.2587 H         1 7WY         0.0612
     45 H16       -24.9361    0.6002   -8.7600 H         1 7WY         0.1773
     46 H17       -25.3053   -0.6689   -9.9582 H         1 7WY         0.1773
     47 H18       -16.8357   -1.8945  -12.2662 H         1 7WY         0.0592
     48 H19       -17.4362   -5.8027  -13.9180 H         1 7WY         0.0592
@<TRIPOS>BOND
     1    3    1 ar 
     2    1   17 1  
     3    1   18 ar 
     4    2   19 ar 
     5   20    2 ar 
     6   20    3 ar 
     7   21    4 ar 
     8    4   22 ar 
     9   21    5 ar 
    10    5   24 ar 
    11   26    6 ar 
    12    6   27 ar 
    13   27    7 ar 
    14   28    7 ar 
    15    7   29 1  
    16   26    8 ar 
    17    8   28 ar 
    18   10    9 1  
    19   11   10 2  
    20   10   14 1  
    21   11   12 1  
    22   18   11 1  
    23   12   13 1  
    24   12   15 1  
    25   13   14 2  
    26   16   15 1  
    27   17   16 1  
    28   17   26 1  
    29   19   18 ar 
    30   20   21 1  
    31   22   23 ar 
    32   23   24 ar 
    33   23   25 1  
    34    2   30 1  
    35    3   31 1  
    36    4   32 1  
    37    5   33 1  
    38    6   34 1  
    39    8   35 1  
    40    9   36 1  
    41    9   37 1  
    42    9   38 1  
    43   15   39 1  
    44   15   40 1  
    45   16   41 1  
    46   16   42 1  
    47   19   43 1  
    48   22   44 1  
    49   25   45 1  
    50   25   46 1  
    51   27   47 1  
    52   28   48 1  
@<TRIPOS>SUBSTRUCTURE
     1 7WY         1

