### 
### Created by X-TOOL on Mon Sep 10 21:13:31 2018
### 

@<TRIPOS>MOLECULE
5u7d_ligand
   67    70     1     0     0
SMALL
GAST_HUCK


@<TRIPOS>ATOM
      1 CAB        10.4890    8.3960   20.6830 C.3       1 19F         0.0568
      2 OAW        10.2960    9.2540   19.5600 O.3       1 19F        -0.3265
      3 CBC        10.2980    8.6870   18.3130 C.ar      1 19F         0.1138
      4 CAN        10.4320    7.3310   18.0550 C.ar      1 19F        -0.0370
      5 CBB        10.1320    9.5890   17.2410 C.ar      1 19F         0.1127
      6 OAV        10.0650   10.9090   17.5900 O.3       1 19F        -0.3291
      7 CAA        10.0010   11.8790   16.5430 C.3       1 19F         0.0555
      8 CAM        10.0810    9.1090   15.9420 C.ar      1 19F        -0.0473
      9 CAL        10.2230    7.7510   15.7060 C.ar      1 19F        -0.0772
     10 CAY        10.4030    6.8520   16.7490 C.ar      1 19F        -0.0434
     11 CAR        10.5890    5.3780   16.4750 C.3       1 19F         0.0547
     12 CBA        11.9760    4.9340   16.7630 C.2       1 19F         0.1550
     13 NAU        12.7860    4.7300   15.5990 N.am      1 19F        -0.2078
     14 CBE        14.0570    4.2070   15.6080 C.2       1 19F         0.2416
     15 OAE        14.6890    4.0910   14.5660 O.2       1 19F        -0.3925
     16 NAT        12.3320    4.6790   17.9570 N.2       1 19F        -0.1939
     17 NBI        13.6490    4.1230   18.0480 N.pl3     1 19F        -0.1725
     18 CBF        14.4910    3.8690   16.9500 C.2       1 19F         0.1583
     19 CAZ        15.6250    3.3140   17.4740 C.2       1 19F         0.0032
     20 CAC        16.8720    2.8550   16.8000 C.3       1 19F        -0.0357
     21 NAS        15.5080    3.2460   18.8500 N.2       1 19F        -0.3254
     22 CBD        14.3140    3.7240   19.1850 C.2       1 19F         0.1368
     23 CBH        13.7210    3.7700   20.5530 C.3       1 19F         0.0618
     24 CBG        12.4200    2.9570   20.6650 C.3       1 19F         0.0702
     25 CAD        12.4840    1.6250   19.9500 C.3       1 19F        -0.0364
     26 OAF        12.0800    2.7570   22.0360 O.3       1 19F        -0.3893
     27 CAQ        13.5420    5.2250   21.0070 C.3       1 19F        -0.0307
     28 CAO        14.8310    5.8940   21.4970 C.3       1 19F        -0.0407
     29 CAP        14.5810    7.1890   22.2380 C.3       1 19F        -0.0190
     30 CAX        15.8690    7.8570   22.6590 C.ar      1 19F        -0.0430
     31 CAJ        16.6420    8.5430   21.7410 C.ar      1 19F        -0.0603
     32 CAH        17.8120    9.1720   22.1260 C.ar      1 19F        -0.0686
     33 CAG        18.2370    9.1100   23.4350 C.ar      1 19F        -0.0687
     34 CAI        17.5020    8.3920   24.3530 C.ar      1 19F        -0.0686
     35 CAK        16.3210    7.7760   23.9690 C.ar      1 19F        -0.0603
     36 H1         10.4627    8.9910   21.6078 H         1 19F         0.0573
     37 H2         11.4640    7.8940   20.5977 H         1 19F         0.0573
     38 H3          9.6891    7.6414   20.7097 H         1 19F         0.0573
     39 H4         10.5605    6.6378   18.8785 H         1 19F         0.0456
     40 H5          9.9517   12.8873   16.9799 H         1 19F         0.0570
     41 H6          9.1042   11.7001   15.9317 H         1 19F         0.0570
     42 H7         10.8978   11.7965   15.9114 H         1 19F         0.0570
     43 H8          9.9307    9.7927   15.1144 H         1 19F         0.0494
     44 H9         10.1930    7.3830   14.6868 H         1 19F         0.0442
     45 H10        10.3651    5.1817   15.4161 H         1 19F         0.0654
     46 H11         9.8939    4.8076   17.1086 H         1 19F         0.0654
     47 H12        12.3977    4.9873   14.7141 H         1 19F         0.2401
     48 H13        17.5714    2.4608   17.5520 H         1 19F         0.0355
     49 H14        17.3377    3.7017   16.2744 H         1 19F         0.0355
     50 H15        16.6276    2.0636   16.0761 H         1 19F         0.0355
     51 H16        14.4457    3.3030   21.2361 H         1 19F         0.0554
     52 H17        11.6194    3.5475   20.1957 H         1 19F         0.0621
     53 H18        11.5258    1.0982   20.0697 H         1 19F         0.0256
     54 H19        13.2932    1.0165   20.3800 H         1 19F         0.0256
     55 H20        12.6795    1.7919   18.8805 H         1 19F         0.0256
     56 H21        11.2333    2.3299   22.0921 H         1 19F         0.2100
     57 H22        12.8107    5.2425   21.8285 H         1 19F         0.0297
     58 H23        13.1534    5.8060   20.1576 H         1 19F         0.0297
     59 H24        15.4686    6.1062   20.6261 H         1 19F         0.0289
     60 H25        15.3517    5.1990   22.1721 H         1 19F         0.0289
     61 H26        13.9820    6.9749   23.1354 H         1 19F         0.0426
     62 H27        14.0246    7.8730   21.5803 H         1 19F         0.0426
     63 H28        16.3267    8.5886   20.7049 H         1 19F         0.0557
     64 H29        18.3976    9.7165   21.3941 H         1 19F         0.0599
     65 H30        19.1424    9.6220   23.7403 H         1 19F         0.0559
     66 H31        17.8478    8.3087   25.3770 H         1 19F         0.0599
     67 H32        15.7430    7.2239   24.7012 H         1 19F         0.0557
@<TRIPOS>BOND
     1    1    2 1  
     2    2    3 1  
     3    3    4 ar 
     4    3    5 ar 
     5    4   10 ar 
     6    5    6 1  
     7    5    8 ar 
     8    6    7 1  
     9    8    9 ar 
    10    9   10 ar 
    11   10   11 1  
    12   11   12 1  
    13   12   13 1  
    14   12   16 2  
    15   13   14 am 
    16   14   15 2  
    17   14   18 1  
    18   16   17 1  
    19   17   18 1  
    20   17   22 1  
    21   18   19 2  
    22   19   20 1  
    23   19   21 1  
    24   21   22 2  
    25   22   23 1  
    26   23   24 1  
    27   23   27 1  
    28   24   25 1  
    29   24   26 1  
    30   27   28 1  
    31   28   29 1  
    32   29   30 1  
    33   30   31 ar 
    34   30   35 ar 
    35   31   32 ar 
    36   32   33 ar 
    37   33   34 ar 
    38   34   35 ar 
    39    1   36 1  
    40    1   37 1  
    41    1   38 1  
    42    4   39 1  
    43    7   40 1  
    44    7   41 1  
    45    7   42 1  
    46    8   43 1  
    47    9   44 1  
    48   11   45 1  
    49   11   46 1  
    50   13   47 1  
    51   20   48 1  
    52   20   49 1  
    53   20   50 1  
    54   23   51 1  
    55   24   52 1  
    56   25   53 1  
    57   25   54 1  
    58   25   55 1  
    59   26   56 1  
    60   27   57 1  
    61   27   58 1  
    62   28   59 1  
    63   28   60 1  
    64   29   61 1  
    65   29   62 1  
    66   31   63 1  
    67   32   64 1  
    68   33   65 1  
    69   34   66 1  
    70   35   67 1  
@<TRIPOS>SUBSTRUCTURE
     1 19F         1

