### 
### Created by X-TOOL on Mon Sep 10 21:13:32 2018
### 

@<TRIPOS>MOLECULE
5u7i_ligand
   52    55     1     0     0
SMALL
GAST_HUCK


@<TRIPOS>ATOM
      1 N3          9.5240   -6.1700   -7.2520 N.pl3     1 7XS        -0.2785
      2 C4          7.8760   -4.7770   -4.3220 C.3       1 7XS        -0.0074
      3 N2          8.4730   -5.4790   -9.0950 N.ar      1 7XS        -0.2658
      4 C7          6.4400   -4.3020   -7.7290 C.ar      1 7XS         0.1574
      5 C6          7.4490   -4.8770   -6.9390 C.ar      1 7XS         0.0845
      6 C9          8.4560   -5.4880   -7.7530 C.ar      1 7XS         0.1322
      7 C13        10.7810   -9.8210   -5.6020 C.ar      1 7XS         0.0803
      8 C20         4.3980   -2.9270   -7.2780 C.3       1 7XS         0.0552
      9 C8          7.4330   -4.8550   -9.6530 C.ar      1 7XS         0.0558
     10 N5          5.9680   -3.8840   -5.5630 N.2       1 7XS        -0.2139
     11 C18        10.8850  -11.1750   -5.8850 C.ar      1 7XS        -0.0415
     12 C16        10.9630  -11.6520   -3.5330 C.ar      1 7XS         0.0794
     13 C19        10.9300  -12.3420   -1.2240 C.3       1 7XS         0.0569
     14 C1          8.8260   -2.4580   -4.1310 C.3       1 7XS        -0.0609
     15 C2          9.1530   -3.9370   -4.1970 C.3       1 7XS        -0.0368
     16 C3          9.9490   -4.3390   -2.9700 C.3       1 7XS        -0.0609
     17 C5          7.0800   -4.5490   -5.5830 C.2       1 7XS         0.0431
     18 N1          6.3830   -4.2770   -9.0670 N.ar      1 7XS        -0.2692
     19 C10         9.8090   -6.8590   -5.9850 C.3       1 7XS         0.0665
     20 C11        10.9290   -7.6070   -6.7160 C.3       1 7XS         0.1204
     21 C12        10.4680   -6.9840   -8.0380 C.3       1 7XS         0.0665
     22 O1         10.5710   -9.0250   -6.7080 O.3       1 7XS        -0.3178
     23 C14        10.8110   -9.3780   -4.2860 C.ar      1 7XS        -0.0415
     24 C15        10.8870  -10.2930   -3.2510 C.ar      1 7XS        -0.0415
     25 C17        10.9910  -12.0900   -4.8500 C.ar      1 7XS        -0.0415
     26 O2         10.9780  -12.6710   -2.6130 O.3       1 7XS        -0.3284
     27 N4          5.5680   -3.7060   -6.8900 N.pl3     1 7XS        -0.1982
     28 H1          7.2289   -4.5429   -3.4638 H         1 7XS         0.0428
     29 H2          8.1618   -5.8386   -4.2870 H         1 7XS         0.0428
     30 H3          3.8809   -2.5680   -6.3759 H         1 7XS         0.0578
     31 H4          3.7152   -3.5586   -7.8651 H         1 7XS         0.0578
     32 H5          4.7153   -2.0666   -7.8855 H         1 7XS         0.0578
     33 H6          7.4431   -4.8118  -10.7361 H         1 7XS         0.1029
     34 H7         10.8833  -11.5165   -6.9138 H         1 7XS         0.0516
     35 H8         10.9497  -13.2660   -0.6275 H         1 7XS         0.0573
     36 H9         10.0045  -11.7873   -1.0103 H         1 7XS         0.0573
     37 H10        11.7989  -11.7194   -0.9644 H         1 7XS         0.0573
     38 H11         9.7577   -1.8801   -4.0418 H         1 7XS         0.0234
     39 H12         8.1880   -2.2622   -3.2566 H         1 7XS         0.0234
     40 H13         8.2951   -2.1586   -5.0467 H         1 7XS         0.0234
     41 H14         9.7718   -4.1175   -5.0883 H         1 7XS         0.0317
     42 H15        10.1844   -5.4123   -3.0212 H         1 7XS         0.0234
     43 H16         9.3563   -4.1364   -2.0658 H         1 7XS         0.0234
     44 H17        10.8835   -3.7600   -2.9333 H         1 7XS         0.0234
     45 H18         8.9935   -7.4998   -5.6185 H         1 7XS         0.0561
     46 H19        10.1518   -6.2011   -5.1728 H         1 7XS         0.0561
     47 H20        11.9646   -7.4100   -6.4017 H         1 7XS         0.0688
     48 H21        11.2408   -6.4071   -8.5671 H         1 7XS         0.0561
     49 H22         9.9941   -7.6892   -8.7366 H         1 7XS         0.0561
     50 H23        10.7749   -8.3163   -4.0700 H         1 7XS         0.0516
     51 H24        10.8873   -9.9508   -2.2224 H         1 7XS         0.0516
     52 H25        11.0957  -13.1466   -5.0684 H         1 7XS         0.0516
@<TRIPOS>BOND
     1    1    6 1  
     2   19    1 1  
     3   21    1 1  
     4    2   15 1  
     5   17    2 1  
     6    6    3 ar 
     7    3    9 ar 
     8    5    4 ar 
     9    4   18 ar 
    10    4   27 1  
    11    6    5 ar 
    12    5   17 1  
    13    7   11 ar 
    14   22    7 1  
    15    7   23 ar 
    16   27    8 1  
    17    9   18 ar 
    18   17   10 2  
    19   10   27 1  
    20   11   25 ar 
    21   12   24 ar 
    22   25   12 ar 
    23   12   26 1  
    24   26   13 1  
    25   15   14 1  
    26   15   16 1  
    27   20   19 1  
    28   20   21 1  
    29   20   22 1  
    30   23   24 ar 
    31    2   28 1  
    32    2   29 1  
    33    8   30 1  
    34    8   31 1  
    35    8   32 1  
    36    9   33 1  
    37   11   34 1  
    38   13   35 1  
    39   13   36 1  
    40   13   37 1  
    41   14   38 1  
    42   14   39 1  
    43   14   40 1  
    44   15   41 1  
    45   16   42 1  
    46   16   43 1  
    47   16   44 1  
    48   19   45 1  
    49   19   46 1  
    50   20   47 1  
    51   21   48 1  
    52   21   49 1  
    53   23   50 1  
    54   24   51 1  
    55   25   52 1  
@<TRIPOS>SUBSTRUCTURE
     1 7XS         1

