### 
### Created by X-TOOL on Mon Sep 10 21:13:32 2018
### 

@<TRIPOS>MOLECULE
5u7j_ligand
   46    48     1     0     0
SMALL
GAST_HUCK


@<TRIPOS>ATOM
      1 N3          7.5250    4.3780    6.3210 N.pl3     1 7XV        -0.1279
      2 C4          7.7890    4.3560    3.7980 C.3       1 7XV         0.0316
      3 N2          5.6220    3.2400    6.5090 N.2       1 7XV        -0.2808
      4 C7          8.6220    5.0470    6.8480 C.2       1 7XV         0.2664
      5 C6          6.5870    3.8150    7.1970 C.2       1 7XV         0.1760
      6 C9          6.8030    3.8920    8.6100 C.2       1 7XV         0.0530
      7 C13        10.0530    7.7490    3.0640 C.ar      1 7XV        -0.0687
      8 C8          8.7490    5.0780    8.2490 C.2       1 7XV         0.0628
      9 C18        10.8090   11.0730    6.4220 C.3       1 7XV         0.0577
     10 C16         9.6920   10.3500    3.9350 C.ar      1 7XV        -0.0396
     11 C1          8.5190    1.9980    3.3490 C.3       1 7XV        -0.0604
     12 C2          8.9720    3.4290    3.5290 C.3       1 7XV        -0.0311
     13 C3          9.7350    3.8900    2.3100 C.3       1 7XV        -0.0604
     14 C5          7.0440    4.0670    5.0650 C.2       1 7XV         0.1592
     15 N1          5.9170    3.4080    5.1580 N.2       1 7XV        -0.2704
     16 N4          7.8510    4.4940    9.1050 N.2       1 7XV        -0.3105
     17 O1          9.4180    5.6110    5.9130 O.3       1 7XV        -0.2650
     18 C10        10.4610    6.5100    6.3810 C.3       1 7XV         0.0893
     19 C11        11.2070    7.0620    5.1870 C.3       1 7XV         0.0083
     20 C12        10.4530    8.0840    4.3550 C.ar      1 7XV        -0.0110
     21 C14         9.5190    8.7000    2.2110 C.ar      1 7XV        -0.0797
     22 C15         9.3320    9.9930    2.6470 C.ar      1 7XV        -0.0776
     23 C17        10.2750    9.4060    4.7780 C.ar      1 7XV         0.0925
     24 O2         10.7750    9.7000    6.0190 O.3       1 7XV        -0.3250
     25 H1          7.0846    4.2656    2.9580 H         1 7XV         0.0499
     26 H2          8.1669    5.3877    3.8503 H         1 7XV         0.0499
     27 H3          6.0789    3.4395    9.2858 H         1 7XV         0.0866
     28 H4         10.1615    6.7264    2.7210 H         1 7XV         0.0526
     29 H5          9.6073    5.5940    8.6768 H         1 7XV         0.0556
     30 H6         11.2334   11.1476    7.4341 H         1 7XV         0.0574
     31 H7          9.7873   11.4806    6.4219 H         1 7XV         0.0574
     32 H8         11.4325   11.6459    5.7199 H         1 7XV         0.0574
     33 H9          9.5209   11.3609    4.2868 H         1 7XV         0.0521
     34 H10         9.3930    1.3581    3.1574 H         1 7XV         0.0234
     35 H11         7.8262    1.9371    2.4968 H         1 7XV         0.0234
     36 H12         8.0083    1.6574    4.2618 H         1 7XV         0.0234
     37 H13         9.6457    3.4706    4.3975 H         1 7XV         0.0322
     38 H14        10.0591    4.9315    2.4525 H         1 7XV         0.0234
     39 H15         9.0851    3.8262    1.4248 H         1 7XV         0.0234
     40 H16        10.6165    3.2483    2.1648 H         1 7XV         0.0234
     41 H17        11.1586    5.9598    7.0296 H         1 7XV         0.0651
     42 H18        10.0083    7.3370    6.9476 H         1 7XV         0.0651
     43 H19        11.4672    6.2180    4.5313 H         1 7XV         0.0430
     44 H20        12.1279    7.5384    5.5544 H         1 7XV         0.0430
     45 H21         9.2475    8.4263    1.1979 H         1 7XV         0.0505
     46 H22         8.9023   10.7321    1.9806 H         1 7XV         0.0531
@<TRIPOS>BOND
     1    4    1 1  
     2    1    5 1  
     3    1   14 1  
     4    2   12 1  
     5   14    2 1  
     6    5    3 2  
     7   15    3 1  
     8    4    8 2  
     9   17    4 1  
    10    5    6 1  
    11   16    6 2  
    12   20    7 ar 
    13    7   21 ar 
    14    8   16 1  
    15   24    9 1  
    16   10   22 ar 
    17   23   10 ar 
    18   12   11 1  
    19   12   13 1  
    20   14   15 2  
    21   18   17 1  
    22   19   18 1  
    23   20   19 1  
    24   23   20 ar 
    25   22   21 ar 
    26   23   24 1  
    27    2   25 1  
    28    2   26 1  
    29    6   27 1  
    30    7   28 1  
    31    8   29 1  
    32    9   30 1  
    33    9   31 1  
    34    9   32 1  
    35   10   33 1  
    36   11   34 1  
    37   11   35 1  
    38   11   36 1  
    39   12   37 1  
    40   13   38 1  
    41   13   39 1  
    42   13   40 1  
    43   18   41 1  
    44   18   42 1  
    45   19   43 1  
    46   19   44 1  
    47   21   45 1  
    48   22   46 1  
@<TRIPOS>SUBSTRUCTURE
     1 7XV         1

