### 
### Created by X-TOOL on Mon Sep 10 21:13:32 2018
### 

@<TRIPOS>MOLECULE
5u7k_ligand
   49    52     1     0     0
SMALL
GAST_HUCK


@<TRIPOS>ATOM
      1 N3        -11.7350   19.7940  -26.0230 N.pl3     1 7Y1        -0.1325
      2 C6        -10.9940   19.1440  -26.9570 C.2       1 7Y1         0.1787
      3 C9        -12.8910   19.4120  -23.0470 C.2       1 7Y1         0.0138
      4 C13       -13.1210   20.6550  -27.7500 C.2       1 7Y1         0.0651
      5 C20        -8.2870   22.9930  -22.8650 C.ar      1 7Y1        -0.0582
      6 C21        -7.2840   22.4480  -22.0720 C.ar      1 7Y1        -0.0416
      7 C16        -8.7640   20.6630  -21.4640 C.ar      1 7Y1        -0.0564
      8 C19        -7.5350   21.2890  -21.3520 C.ar      1 7Y1        -0.0582
      9 C26        -6.1610   24.3400  -21.0510 C.3       1 7Y1        -0.0551
     10 C27       -12.8730   24.2620  -24.1090 C.3       1 7Y1        -0.0627
     11 C25       -14.0410   23.3900  -24.4880 C.3       1 7Y1        -0.0265
     12 C23       -13.7580   22.6350  -25.7680 C.3       1 7Y1         0.0813
     13 O18       -13.5210   21.2550  -25.5040 O.3       1 7Y1        -0.2662
     14 C10       -12.7780   20.5620  -26.4140 C.2       1 7Y1         0.2664
     15 N12       -12.3740   20.0080  -28.6520 N.2       1 7Y1        -0.3080
     16 C15       -11.3310   19.2490  -28.3070 C.2       1 7Y1         0.0555
     17 N7         -9.9910   18.4630  -26.3490 N.2       1 7Y1        -0.2728
     18 N4        -10.1120   18.6840  -24.9580 N.2       1 7Y1        -0.2693
     19 C1        -11.1570   19.5270  -24.8270 C.2       1 7Y1         0.1653
     20 C2        -11.6610   19.9230  -23.4370 C.2       1 7Y1         0.0569
     21 N8        -13.1100   19.8030  -21.7620 N.2       1 7Y1        -0.2123
     22 N11       -11.9620   20.4990  -21.3890 N.pl3     1 7Y1        -0.2011
     23 C22       -11.9930   21.0090  -20.0060 C.3       1 7Y1         0.0597
     24 C5        -11.0440   20.5430  -22.3570 C.2       1 7Y1         0.1050
     25 C14        -9.7470   21.2110  -22.2600 C.ar      1 7Y1         0.0076
     26 C17        -9.5330   22.3800  -22.9690 C.ar      1 7Y1        -0.0564
     27 C24        -5.9470   23.1370  -21.9570 C.3       1 7Y1        -0.0212
     28 H1        -13.5596   18.8078  -23.6584 H         1 7Y1         0.0691
     29 H2        -13.9825   21.2435  -28.0622 H         1 7Y1         0.0570
     30 H3         -8.0963   23.9097  -23.4111 H         1 7Y1         0.0563
     31 H4         -8.9538   19.7415  -20.9257 H         1 7Y1         0.0615
     32 H5         -6.7710   20.8752  -20.7039 H         1 7Y1         0.0563
     33 H6         -5.2116   24.8827  -20.9317 H         1 7Y1         0.0252
     34 H7         -6.5148   23.9994  -20.0667 H         1 7Y1         0.0252
     35 H8         -6.9112   25.0079  -21.4994 H         1 7Y1         0.0252
     36 H9        -13.1035   24.7990  -23.1771 H         1 7Y1         0.0231
     37 H10       -12.6815   24.9881  -24.9128 H         1 7Y1         0.0231
     38 H11       -11.9809   23.6358  -23.9602 H         1 7Y1         0.0231
     39 H12       -14.9303   24.0214  -24.6314 H         1 7Y1         0.0290
     40 H13       -14.2297   22.6691  -23.6789 H         1 7Y1         0.0290
     41 H14       -12.8693   23.0667  -26.2515 H         1 7Y1         0.0630
     42 H15       -14.6235   22.7293  -26.4403 H         1 7Y1         0.0630
     43 H16       -10.7540   18.7217  -29.0652 H         1 7Y1         0.0873
     44 H17       -11.0557   21.5432  -19.7911 H         1 7Y1         0.0598
     45 H18       -12.1035   20.1669  -19.3070 H         1 7Y1         0.0598
     46 H19       -12.8427   21.6975  -19.8880 H         1 7Y1         0.0598
     47 H20       -10.3137   22.8067  -23.5882 H         1 7Y1         0.0615
     48 H21        -5.6010   23.4642  -22.9486 H         1 7Y1         0.0429
     49 H22        -5.2045   22.4558  -21.5159 H         1 7Y1         0.0429
@<TRIPOS>BOND
     1    1    2 1  
     2    1   14 1  
     3   19    1 1  
     4    2   16 1  
     5   17    2 2  
     6   20    3 1  
     7   21    3 2  
     8   14    4 2  
     9    4   15 1  
    10    6    5 ar 
    11    5   26 ar 
    12    8    6 ar 
    13    6   27 1  
    14    7    8 ar 
    15   25    7 ar 
    16   27    9 1  
    17   11   10 1  
    18   12   11 1  
    19   13   12 1  
    20   14   13 1  
    21   16   15 2  
    22   18   17 1  
    23   19   18 2  
    24   20   19 1  
    25   24   20 2  
    26   22   21 1  
    27   22   23 1  
    28   24   22 1  
    29   24   25 1  
    30   25   26 ar 
    31    3   28 1  
    32    4   29 1  
    33    5   30 1  
    34    7   31 1  
    35    8   32 1  
    36    9   33 1  
    37    9   34 1  
    38    9   35 1  
    39   10   36 1  
    40   10   37 1  
    41   10   38 1  
    42   11   39 1  
    43   11   40 1  
    44   12   41 1  
    45   12   42 1  
    46   16   43 1  
    47   23   44 1  
    48   23   45 1  
    49   23   46 1  
    50   26   47 1  
    51   27   48 1  
    52   27   49 1  
@<TRIPOS>SUBSTRUCTURE
     1 7Y1         1

