### 
### Created by X-TOOL on Mon Sep 10 21:13:33 2018
### 

@<TRIPOS>MOLECULE
5u7l_ligand
   63    67     1     0     0
SMALL
GAST_HUCK


@<TRIPOS>ATOM
      1 C4         16.2170    6.8400   22.0540 C.ar      1 7Y4        -0.0584
      2 C7         14.2440    3.4850   18.0700 C.ar      1 7Y4         0.0822
      3 C6         14.3250    3.6920   15.4540 C.ar      1 7Y4         0.0562
      4 C9         13.9170    3.1930   20.6440 C.2       1 7Y4         0.0174
      5 C13        15.3030    3.0330   17.2920 C.ar      1 7Y4         0.1597
      6 C20        12.9070    3.8610   24.0380 C.3       1 7Y4         0.0593
      7 C21        17.5050    1.8590   17.8460 C.3       1 7Y4         0.0571
      8 C8         15.2030    4.7120   22.2450 C.ar      1 7Y4         0.0064
      9 C18        11.4490    6.7600   18.9860 C.3       1 7Y4         0.0020
     10 C16        11.0680    5.2580   17.1810 C.3       1 7Y4         0.0394
     11 C19        17.8470    8.4690   24.3040 C.3       1 7Y4        -0.0551
     12 C1         16.1720    4.3110   23.1380 C.ar      1 7Y4        -0.0568
     13 C2         15.2200    5.9690   21.7050 C.ar      1 7Y4        -0.0568
     14 C3         17.1780    5.1880   23.5020 C.ar      1 7Y4        -0.0584
     15 C5         12.7420    2.4380   20.8620 C.2       1 7Y4         0.0085
     16 C10        17.1900    6.4590   22.9460 C.ar      1 7Y4        -0.0418
     17 C11        14.6480    3.1270   19.3980 C.2       1 7Y4         0.0539
     18 C12        14.1550    3.8350   21.8430 C.2       1 7Y4         0.0993
     19 C14        13.1680    4.1050   17.4160 C.ar      1 7Y4         0.1317
     20 C15        10.3870    6.3540   17.9970 C.3       1 7Y4         0.0133
     21 C17        12.3560    5.5450   19.1780 C.3       1 7Y4         0.0768
     22 C22        11.8060    7.4520   21.3640 C.3       1 7Y4        -0.0430
     23 C23         9.9050    8.3530   20.1100 C.3       1 7Y4        -0.0430
     24 C24        18.2680    7.4420   23.2860 C.3       1 7Y4        -0.0213
     25 N25        12.2650    2.6040   22.1050 N.2       1 7Y4        -0.2136
     26 N26        15.4070    3.1030   15.9710 N.ar      1 7Y4        -0.2683
     27 N27        13.2460    4.1930   16.0740 N.ar      1 7Y4        -0.2658
     28 N28        15.8330    2.5280   19.4310 N.2       1 7Y4        -0.2107
     29 N29        13.1260    3.4610   22.6660 N.pl3     1 7Y4        -0.2025
     30 N30        16.2320    2.5010   18.1490 N.pl3     1 7Y4        -0.1940
     31 N31        12.0240    4.6150   18.0940 N.pl3     1 7Y4        -0.2792
     32 N32        10.8210    7.1860   20.2700 N.4       1 7Y4         0.2346
     33 H1         16.2388    7.8350   21.6245 H         1 7Y4         0.0562
     34 H2         14.3179    3.7778   14.3734 H         1 7Y4         0.1030
     35 H3         11.9901    3.3856   24.4166 H         1 7Y4         0.0598
     36 H4         12.8007    4.9547   24.0886 H         1 7Y4         0.0598
     37 H5         13.7635    3.5470   24.6527 H         1 7Y4         0.0598
     38 H6         17.9925    1.5511   18.7828 H         1 7Y4         0.0584
     39 H7         18.1544    2.5670   17.3102 H         1 7Y4         0.0584
     40 H8         17.3289    0.9744   17.2164 H         1 7Y4         0.0584
     41 H9         12.0359    7.5979   18.5816 H         1 7Y4         0.0873
     42 H10        11.5949    5.6934   16.3191 H         1 7Y4         0.0532
     43 H11        10.3261    4.5273   16.8264 H         1 7Y4         0.0532
     44 H12        18.6851    9.1531   24.5029 H         1 7Y4         0.0252
     45 H13        17.5572    7.9633   25.2369 H         1 7Y4         0.0252
     46 H14        16.9913    9.0408   23.9157 H         1 7Y4         0.0252
     47 H15        16.1464    3.3106   23.5546 H         1 7Y4         0.0613
     48 H16        14.4495    6.2731   21.0058 H         1 7Y4         0.0613
     49 H17        17.9430    4.8876   24.2088 H         1 7Y4         0.0562
     50 H18        12.2796    1.7986   20.1114 H         1 7Y4         0.0682
     51 H19        10.1000    7.2012   17.3568 H         1 7Y4         0.0341
     52 H20         9.4962    5.9657   18.5124 H         1 7Y4         0.0341
     53 H21        12.1652    5.0766   20.1548 H         1 7Y4         0.0587
     54 H22        13.4128    5.8435   19.1147 H         1 7Y4         0.0587
     55 H23        11.2694    7.7596   22.2736 H         1 7Y4         0.0778
     56 H24        12.4912    8.2545   21.0534 H         1 7Y4         0.0778
     57 H25        12.3816    6.5375   21.5695 H         1 7Y4         0.0778
     58 H26         9.1857    8.1467   19.3038 H         1 7Y4         0.0778
     59 H27        10.4922    9.2481   19.8572 H         1 7Y4         0.0778
     60 H28         9.3618    8.5245   21.0510 H         1 7Y4         0.0778
     61 H29        19.1301    6.8883   23.6863 H         1 7Y4         0.0428
     62 H30        18.5641    7.9658   22.3652 H         1 7Y4         0.0428
     63 H31        10.2540    6.4102   20.5745 H         1 7Y4         0.2031
@<TRIPOS>BOND
     1   13    1 ar 
     2    1   16 ar 
     3    2    5 ar 
     4    2   17 1  
     5   19    2 ar 
     6    3   26 ar 
     7   27    3 ar 
     8    4   15 1  
     9   17    4 1  
    10    4   18 2  
    11    5   26 ar 
    12    5   30 1  
    13   29    6 1  
    14   30    7 1  
    15    8   12 ar 
    16    8   13 ar 
    17   18    8 1  
    18   20    9 1  
    19    9   21 1  
    20    9   32 1  
    21   10   20 1  
    22   31   10 1  
    23   24   11 1  
    24   12   14 ar 
    25   14   16 ar 
    26   15   25 2  
    27   16   24 1  
    28   17   28 2  
    29   18   29 1  
    30   19   27 ar 
    31   19   31 1  
    32   21   31 1  
    33   32   22 1  
    34   32   23 1  
    35   25   29 1  
    36   28   30 1  
    37    1   33 1  
    38    3   34 1  
    39    6   35 1  
    40    6   36 1  
    41    6   37 1  
    42    7   38 1  
    43    7   39 1  
    44    7   40 1  
    45    9   41 1  
    46   10   42 1  
    47   10   43 1  
    48   11   44 1  
    49   11   45 1  
    50   11   46 1  
    51   12   47 1  
    52   13   48 1  
    53   14   49 1  
    54   15   50 1  
    55   20   51 1  
    56   20   52 1  
    57   21   53 1  
    58   21   54 1  
    59   22   55 1  
    60   22   56 1  
    61   22   57 1  
    62   23   58 1  
    63   23   59 1  
    64   23   60 1  
    65   24   61 1  
    66   24   62 1  
    67   32   63 1  
@<TRIPOS>SUBSTRUCTURE
     1 7Y4         1

