### 
### Created by X-TOOL on Mon Sep 10 21:13:34 2018
### 

@<TRIPOS>MOLECULE
5u7m_ligand
   52    55     1     0     0
SMALL
GAST_HUCK


@<TRIPOS>ATOM
      1 C14       147.1990  306.8660  -18.0030 C.2       1 83G         0.2639
      2 C11       144.7110  305.9260  -17.8380 C.2       1 83G         0.0537
      3 C10       143.8450  305.2990  -17.0840 C.2       1 83G         0.0507
      4 C12       145.9250  306.6050  -17.2040 C.2       1 83G         0.2138
      5 C01       146.2940  307.4350  -21.8970 C.3       1 83G         0.0625
      6 C03       144.8250  306.3100  -20.4240 C.ar      1 83G         0.1041
      7 C04       144.0780  305.9800  -21.5410 C.ar      1 83G        -0.0215
      8 C05       142.9070  305.2360  -21.4080 C.ar      1 83G        -0.0177
      9 C07       143.1730  305.1330  -19.1870 C.ar      1 83G         0.1303
     10 C08       144.4060  305.8990  -19.1790 C.ar      1 83G         0.0503
     11 C17       148.9070  308.4290  -18.9580 C.3       1 83G         0.0553
     12 C18       149.8320  309.4200  -18.2280 C.3       1 83G         0.0540
     13 C20       147.9230  310.2460  -16.8410 C.3       1 83G         0.0565
     14 C21       146.9760  309.3390  -17.6140 C.3       1 83G         0.0633
     15 C22       146.3190  310.1220  -18.7580 C.3       1 83G        -0.0397
     16 C23       149.2270  311.8930  -18.2510 C.2       1 83G         0.2075
     17 C25       150.3610  312.1620  -19.2560 C.ar      1 83G         0.0500
     18 C26       150.1500  311.9120  -20.6110 C.ar      1 83G        -0.0419
     19 C27       151.1590  312.1480  -21.5270 C.ar      1 83G        -0.0562
     20 C28       152.3740  312.6350  -21.0950 C.ar      1 83G        -0.0575
     21 C29       152.5870  312.8850  -19.7570 C.ar      1 83G        -0.0562
     22 C30       151.5880  312.6520  -18.8300 C.ar      1 83G        -0.0419
     23 N06       142.4370  304.8020  -20.2370 N.ar      1 83G        -0.3025
     24 N09       142.9440  304.8340  -17.8700 N.pl3     1 83G        -0.2604
     25 N16       147.6970  308.2190  -18.1820 N.am      1 83G        -0.2569
     26 N19       149.0000  310.5290  -17.7670 N.am      1 83G        -0.2682
     27 O02       145.9980  307.0600  -20.5800 O.3       1 83G        -0.3138
     28 O13       145.8780  306.9080  -16.0600 O.2       1 83G        -0.3585
     29 O15       147.7910  305.9580  -18.4770 O.2       1 83G        -0.3615
     30 O24       148.5390  312.7830  -17.8780 O.2       1 83G        -0.3845
     31 H1        143.8818  305.1926  -16.0008 H         1 83G         0.1058
     32 H2        147.2278  308.0162  -21.9117 H         1 83G         0.0584
     33 H3        145.4736  308.0492  -22.2966 H         1 83G         0.0584
     34 H4        146.4131  306.5341  -22.5168 H         1 83G         0.0584
     35 H5        144.4048  306.3014  -22.5233 H         1 83G         0.0513
     36 H6        142.3474  304.9968  -22.3050 H         1 83G         0.0715
     37 H7        149.4291  307.4694  -19.0863 H         1 83G         0.0544
     38 H8        148.6415  308.8368  -19.9445 H         1 83G         0.0544
     39 H9        150.6058  309.7904  -18.9165 H         1 83G         0.0542
     40 H10       150.3109  308.9261  -17.3697 H         1 83G         0.0542
     41 H11       148.3058  309.7341  -15.9458 H         1 83G         0.0545
     42 H12       147.4139  311.1744  -16.5430 H         1 83G         0.0545
     43 H13       146.1990  308.9647  -16.9313 H         1 83G         0.0577
     44 H14       145.6367  309.4597  -19.3111 H         1 83G         0.0253
     45 H15       147.0967  310.4983  -19.4388 H         1 83G         0.0253
     46 H16       145.7524  310.9693  -18.3444 H         1 83G         0.0253
     47 H17       149.1924  311.5316  -20.9477 H         1 83G         0.0669
     48 H18       150.9950  311.9508  -22.5802 H         1 83G         0.0629
     49 H19       153.1657  312.8222  -21.8114 H         1 83G         0.0653
     50 H20       153.5464  313.2678  -19.4281 H         1 83G         0.0629
     51 H21       151.7616  312.8504  -17.7785 H         1 83G         0.0669
     52 H22       142.1315  304.2913  -17.5441 H         1 83G         0.2345
@<TRIPOS>BOND
     1    1    4 1  
     2   25    1 am 
     3    1   29 2  
     4    2    3 2  
     5    4    2 1  
     6    2   10 1  
     7    3   24 1  
     8    4   28 2  
     9   27    5 1  
    10    6    7 ar 
    11   10    6 ar 
    12    6   27 1  
    13    7    8 ar 
    14   23    8 ar 
    15   10    9 ar 
    16    9   23 ar 
    17    9   24 1  
    18   12   11 1  
    19   11   25 1  
    20   26   12 1  
    21   13   14 1  
    22   26   13 1  
    23   14   15 1  
    24   14   25 1  
    25   16   17 1  
    26   16   26 am 
    27   16   30 2  
    28   17   18 ar 
    29   17   22 ar 
    30   18   19 ar 
    31   19   20 ar 
    32   20   21 ar 
    33   21   22 ar 
    34    3   31 1  
    35    5   32 1  
    36    5   33 1  
    37    5   34 1  
    38    7   35 1  
    39    8   36 1  
    40   11   37 1  
    41   11   38 1  
    42   12   39 1  
    43   12   40 1  
    44   13   41 1  
    45   13   42 1  
    46   14   43 1  
    47   15   44 1  
    48   15   45 1  
    49   15   46 1  
    50   18   47 1  
    51   19   48 1  
    52   20   49 1  
    53   21   50 1  
    54   22   51 1  
    55   24   52 1  
@<TRIPOS>SUBSTRUCTURE
     1 83G         1

