### 
### Created by X-TOOL on Mon Sep 10 21:13:34 2018
### 

@<TRIPOS>MOLECULE
5u7o_ligand
   58    62     1     0     0
SMALL
GAST_HUCK


@<TRIPOS>ATOM
      1 C10       195.4080  288.0590   27.5950 C.3       1 83J         0.0539
      2 C13       197.8640  288.7450   27.9260 C.2       1 83J         0.2075
      3 C15       197.4520  289.9140   28.8350 C.ar      1 83J         0.0500
      4 C17       195.4570  281.7720   29.2590 C.ar      1 83J         0.0389
      5 C20       197.6680  291.2400   28.4750 C.ar      1 83J        -0.0419
      6 C21       196.8340  289.6390   30.0540 C.ar      1 83J        -0.0419
      7 C22       195.7750  282.6020   30.3240 C.ar      1 83J         0.0997
      8 C24       196.4450  290.6710   30.8940 C.ar      1 83J        -0.0562
      9 C26       196.6700  291.9820   30.5210 C.ar      1 83J        -0.0575
     10 C01       196.8340  285.5250   27.3220 C.3       1 83J         0.0550
     11 C04       197.2110  286.7480   26.5060 C.3       1 83J         0.0539
     12 C07       194.9370  286.8250   28.3680 C.3       1 83J         0.0550
     13 C12       194.5520  284.4740   27.6570 C.2       1 83J         0.2636
     14 C14       195.0220  283.1610   27.0460 C.2       1 83J         0.2140
     15 C16       195.1290  281.8910   27.8810 C.2       1 83J         0.0536
     16 C18       194.9250  280.6270   27.4040 C.2       1 83J         0.0514
     17 C19       195.4180  280.3780   29.5160 C.ar      1 83J         0.1291
     18 C23       197.2790  292.2640   29.3180 C.ar      1 83J        -0.0562
     19 C25       196.0270  282.0050   31.5480 C.ar      1 83J         0.0101
     20 C27       196.3240  284.7610   31.2120 C.3       1 83J         0.0593
     21 C29       195.6880  279.8780   30.7800 C.ar      1 83J         0.1965
     22 C31       195.9500  277.8670   32.1790 C.2       1 83J         0.1386
     23 C33       195.4190  276.3220   30.7700 C.2       1 83J         0.0725
     24 C35       195.1360  274.9520   30.1560 C.3       1 83J        -0.0126
     25 N02       195.4590  285.6100   27.7720 N.am      1 83J        -0.2597
     26 N05       196.8410  287.8700   27.3440 N.am      1 83J        -0.2685
     27 N08       195.1030  279.8230   28.3800 N.pl3     1 83J        -0.2651
     28 N28       195.9870  280.7040   31.7640 N.ar      1 83J        -0.2999
     29 N30       195.6520  278.4480   31.0350 N.pl3     1 83J        -0.1350
     30 N32       195.8060  276.5490   32.0270 N.2       1 83J        -0.2815
     31 N34       195.3240  277.4830   30.1560 N.2       1 83J        -0.1897
     32 O03       193.4360  284.5690   28.0390 O.2       1 83J        -0.3615
     33 O06       199.0090  288.5430   27.6990 O.2       1 83J        -0.3845
     34 O09       195.3090  283.1300   25.8990 O.2       1 83J        -0.3587
     35 O11       195.8330  283.9920   30.1470 O.3       1 83J        -0.3224
     36 H1        195.2433  288.9677   28.1925 H         1 83J         0.0542
     37 H2        194.8631  288.1423   26.6431 H         1 83J         0.0542
     38 H3        198.1437  291.4715   27.5288 H         1 83J         0.0669
     39 H4        196.6563  288.6106   30.3472 H         1 83J         0.0669
     40 H5        195.9657  290.4499   31.8408 H         1 83J         0.0629
     41 H6        196.3667  292.7905   31.1763 H         1 83J         0.0653
     42 H7        197.4964  285.4575   28.1976 H         1 83J         0.0544
     43 H8        196.9550  284.6255   26.7005 H         1 83J         0.0544
     44 H9        196.6535  286.7701   25.5580 H         1 83J         0.0542
     45 H10       198.2909  286.7583   26.2967 H         1 83J         0.0542
     46 H11       193.8377  286.7893   28.3541 H         1 83J         0.0544
     47 H12       195.2885  286.8957   29.4079 H         1 83J         0.0544
     48 H13       194.6603  280.3560   26.3830 H         1 83J         0.1076
     49 H14       197.4541  293.2945   29.0309 H         1 83J         0.0629
     50 H15       196.2735  282.6494   32.3841 H         1 83J         0.0569
     51 H16       196.3115  285.8248   30.9324 H         1 83J         0.0578
     52 H17       197.3552  284.4542   31.4410 H         1 83J         0.0578
     53 H18       195.6904  284.6073   32.0979 H         1 83J         0.0578
     54 H19       196.2603  278.3745   33.0912 H         1 83J         0.1365
     55 H20       195.3011  274.1702   30.9120 H         1 83J         0.0407
     56 H21       195.8108  274.7858   29.3034 H         1 83J         0.0407
     57 H22       194.0924  274.9135   29.8106 H         1 83J         0.0407
     58 H23       195.0041  278.8030   28.2761 H         1 83J         0.2338
@<TRIPOS>BOND
     1   12    1 1  
     2    1   26 1  
     3    2    3 1  
     4   26    2 am 
     5    2   33 2  
     6    3    5 ar 
     7    3    6 ar 
     8    4    7 ar 
     9    4   15 1  
    10   17    4 ar 
    11    5   18 ar 
    12    6    8 ar 
    13   19    7 ar 
    14    7   35 1  
    15    8    9 ar 
    16   18    9 ar 
    17   10   11 1  
    18   25   10 1  
    19   11   26 1  
    20   25   12 1  
    21   14   13 1  
    22   13   25 am 
    23   13   32 2  
    24   15   14 1  
    25   14   34 2  
    26   16   15 2  
    27   27   16 1  
    28   21   17 ar 
    29   17   27 1  
    30   28   19 ar 
    31   35   20 1  
    32   21   28 ar 
    33   29   21 1  
    34   22   29 1  
    35   30   22 2  
    36   23   24 1  
    37   23   30 1  
    38   23   31 2  
    39   29   31 1  
    40    1   36 1  
    41    1   37 1  
    42    5   38 1  
    43    6   39 1  
    44    8   40 1  
    45    9   41 1  
    46   10   42 1  
    47   10   43 1  
    48   11   44 1  
    49   11   45 1  
    50   12   46 1  
    51   12   47 1  
    52   16   48 1  
    53   18   49 1  
    54   19   50 1  
    55   20   51 1  
    56   20   52 1  
    57   20   53 1  
    58   22   54 1  
    59   24   55 1  
    60   24   56 1  
    61   24   57 1  
    62   27   58 1  
@<TRIPOS>SUBSTRUCTURE
     1 83J         1

