### 
### Created by X-TOOL on Mon Sep 10 21:13:30 2018
### 

@<TRIPOS>MOLECULE
5u8a_ligand
   54    57     1     0     0
SMALL
GAST_HUCK


@<TRIPOS>ATOM
      1 C4        -16.7710  -24.3620   25.7200 C.ar      1 82D        -0.0208
      2 C5        -15.8180  -25.3630   25.6630 C.ar      1 82D        -0.0747
      3 C6        -15.3190  -25.8590   26.8490 C.ar      1 82D        -0.0792
      4 C7        -15.7390  -25.3770   28.0700 C.ar      1 82D        -0.0768
      5 C8        -16.6820  -24.3750   28.1540 C.ar      1 82D        -0.0442
      6 C10       -17.4810  -23.6540   24.7150 C.2       1 82D        -0.0325
      7 C13       -16.0190  -23.4210   22.7010 C.3       1 82D        -0.0177
      8 C15       -14.3080  -24.4600   21.3450 C.3       1 82D         0.0045
      9 C17       -12.4680  -26.0020   22.1760 C.ar      1 82D         0.0173
     10 C20       -11.8330  -27.9750   21.0230 C.ar      1 82D        -0.0678
     11 C21       -12.7990  -27.7050   20.0830 C.ar      1 82D        -0.0319
     12 C22       -13.5780  -26.5700   20.1950 C.ar      1 82D         0.1409
     13 C24       -16.5120  -25.3730   21.6390 C.3       1 82D         0.0153
     14 C28       -19.1370  -26.5780   21.2080 C.3       1 82D        -0.0428
     15 C19       -11.6630  -27.1110   22.0830 C.ar      1 82D        -0.0628
     16 C9        -18.2980  -22.7640   25.3870 C.2       1 82D         0.0196
     17 C16       -13.4380  -25.6820   21.2440 C.ar      1 82D         0.0447
     18 C3        -17.1810  -23.8960   26.9630 C.ar      1 82D         0.0625
     19 C11       -17.3970  -23.7900   23.2290 C.3       1 82D         0.0636
     20 C25       -17.6070  -25.2080   22.6630 C.3       1 82D         0.0314
     21 C1        -18.8020  -22.1510   27.7400 C.3       1 82D         0.0373
     22 C29       -19.9870  -25.3120   23.1360 C.3       1 82D        -0.0428
     23 N2        -18.1050  -22.9210   26.7260 N.pl3     1 82D        -0.2777
     24 N14       -15.4180  -24.6680   22.2650 N.4       1 82D         0.2524
     25 N27       -18.9600  -25.3590   22.0420 N.4       1 82D         0.2380
     26 F23       -14.5160  -26.3590   19.2610 F         1 82D        -0.1881
     27 BR        -12.1390  -24.9320   23.6770 Br        1 82D        -0.0573
     28 H1        -15.4723  -25.7477   24.7104 H         1 82D         0.0540
     29 H2        -14.5770  -26.6487   26.8202 H         1 82D         0.0510
     30 H3        -15.3208  -25.7928   28.9795 H         1 82D         0.0530
     31 H4        -17.0139  -23.9839   29.1090 H         1 82D         0.0541
     32 H5        -15.4140  -22.9614   23.4964 H         1 82D         0.0834
     33 H6        -16.1066  -22.7217   21.8564 H         1 82D         0.0834
     34 H7        -14.7095  -24.2240   20.3485 H         1 82D         0.0981
     35 H8        -13.6995  -23.6170   21.7043 H         1 82D         0.0981
     36 H9        -11.2114  -28.8584   20.9314 H         1 82D         0.0556
     37 H10       -12.9497  -28.3845   19.2519 H         1 82D         0.0609
     38 H11       -16.7883  -24.9132   20.6787 H         1 82D         0.0872
     39 H12       -16.2673  -26.4337   21.4807 H         1 82D         0.0872
     40 H13       -20.1579  -26.5973   20.7989 H         1 82D         0.0778
     41 H14       -18.9731  -27.4726   21.8267 H         1 82D         0.0778
     42 H15       -18.4110  -26.5656   20.3817 H         1 82D         0.0778
     43 H16       -10.9045  -27.3039   22.8330 H         1 82D         0.0591
     44 H17       -18.9822  -22.0552   24.9228 H         1 82D         0.0797
     45 H18       -18.1538  -23.1180   22.7982 H         1 82D         0.0494
     46 H19       -17.4971  -25.9559   23.4620 H         1 82D         0.0924
     47 H20       -19.4854  -21.4389   27.2543 H         1 82D         0.0559
     48 H21       -18.0705  -21.5999   28.3492 H         1 82D         0.0559
     49 H22       -19.3784  -22.8307   28.3848 H         1 82D         0.0559
     50 H23       -20.9914  -25.4214   22.7010 H         1 82D         0.0778
     51 H24       -19.9184  -24.3485   23.6622 H         1 82D         0.0778
     52 H25       -19.8039  -26.1317   23.8463 H         1 82D         0.0778
     53 H26       -15.0801  -25.1862   23.0609 H         1 82D         0.2052
     54 H27       -19.1049  -24.5655   21.4375 H         1 82D         0.2034
@<TRIPOS>BOND
     1    1    2 ar 
     2    6    1 1  
     3    1   18 ar 
     4    2    3 ar 
     5    3    4 ar 
     6    5    4 ar 
     7   18    5 ar 
     8    6   16 2  
     9   19    6 1  
    10   19    7 1  
    11    7   24 1  
    12    8   17 1  
    13   24    8 1  
    14    9   15 ar 
    15   17    9 ar 
    16    9   27 1  
    17   11   10 ar 
    18   15   10 ar 
    19   12   11 ar 
    20   17   12 ar 
    21   12   26 1  
    22   20   13 1  
    23   13   24 1  
    24   25   14 1  
    25   16   23 1  
    26   23   18 1  
    27   20   19 1  
    28   20   25 1  
    29   23   21 1  
    30   25   22 1  
    31    2   28 1  
    32    3   29 1  
    33    4   30 1  
    34    5   31 1  
    35    7   32 1  
    36    7   33 1  
    37    8   34 1  
    38    8   35 1  
    39   10   36 1  
    40   11   37 1  
    41   13   38 1  
    42   13   39 1  
    43   14   40 1  
    44   14   41 1  
    45   14   42 1  
    46   15   43 1  
    47   16   44 1  
    48   19   45 1  
    49   20   46 1  
    50   21   47 1  
    51   21   48 1  
    52   21   49 1  
    53   22   50 1  
    54   22   51 1  
    55   22   52 1  
    56   24   53 1  
    57   25   54 1  
@<TRIPOS>SUBSTRUCTURE
     1 82D         1

