### 
### Created by X-TOOL on Mon Sep 10 21:13:30 2018
### 

@<TRIPOS>MOLECULE
5u8f_ligand
   58    62     1     0     0
SMALL
GAST_HUCK


@<TRIPOS>ATOM
      1 C4        -15.9620  -25.3990   25.7870 C.ar      1 82G        -0.0747
      2 C5        -11.6220  -26.9880   22.0310 C.ar      1 82G        -0.0706
      3 C6        -16.9380  -24.4050   28.2470 C.ar      1 82G        -0.0442
      4 C7        -12.9280  -27.7220   20.1450 C.ar      1 82G        -0.0416
      5 C8        -18.4540  -22.8010   25.4040 C.2       1 82G         0.0196
      6 C10       -12.4250  -25.8700   22.1280 C.ar      1 82G        -0.0370
      7 C13       -17.3880  -23.9330   27.0270 C.ar      1 82G         0.0625
      8 C15       -12.3020  -24.7560   23.1120 C.3       1 82G        -0.0156
      9 C17       -16.0710  -23.3740   22.8500 C.3       1 82G        -0.0177
     10 C20       -14.1730  -24.3880   21.5690 C.3       1 82G         0.0134
     11 C21       -17.6300  -25.2300   22.7280 C.3       1 82G         0.0314
     12 C22       -19.0490  -22.1890   27.7270 C.3       1 82G         0.0373
     13 C24       -20.0630  -25.4620   23.0370 C.3       1 82G        -0.0428
     14 C1        -15.5070  -25.8890   26.9940 C.ar      1 82G        -0.0792
     15 C2        -15.9840  -25.4020   28.1920 C.ar      1 82G        -0.0768
     16 C3        -11.8870  -27.9160   21.0340 C.ar      1 82G        -0.0772
     17 C9        -16.9300  -24.4010   25.8010 C.ar      1 82G        -0.0208
     18 C11       -17.6080  -23.6860   24.7670 C.2       1 82G        -0.0325
     19 C12       -13.4610  -25.6640   21.2550 C.ar      1 82G         0.0398
     20 C14       -13.7200  -26.5930   20.2560 C.ar      1 82G         0.1320
     21 C16       -13.1420  -23.6780   22.4390 C.3       1 82G         0.0073
     22 C18       -16.4820  -25.3800   21.7480 C.3       1 82G         0.0154
     23 C19       -17.4560  -23.8180   23.2900 C.3       1 82G         0.0636
     24 C23       -19.0490  -26.6040   21.1640 C.3       1 82G        -0.0428
     25 N25       -18.3110  -22.9650   26.7490 N.pl3     1 82G        -0.2777
     26 N26       -15.4010  -24.6060   22.3950 N.4       1 82G         0.2531
     27 N27       -18.9550  -25.4080   22.0490 N.4       1 82G         0.2380
     28 F28       -14.7260  -26.4150   19.3780 F         1 82G        -0.1909
     29 H1        -15.5741  -25.7829   24.8504 H         1 82G         0.0540
     30 H2        -10.7995  -27.1385   22.7208 H         1 82G         0.0504
     31 H3        -17.3110  -24.0164   29.1877 H         1 82G         0.0541
     32 H4        -13.1225  -28.4500   19.3658 H         1 82G         0.0528
     33 H5        -19.1215  -22.0928   24.9153 H         1 82G         0.0797
     34 H6        -11.2562  -24.4368   23.2319 H         1 82G         0.0414
     35 H7        -12.7146  -25.0359   24.0925 H         1 82G         0.0414
     36 H8        -15.5236  -22.9247   23.6917 H         1 82G         0.0834
     37 H9        -16.1414  -22.6463   22.0281 H         1 82G         0.0834
     38 H10       -14.4191  -23.8242   20.6571 H         1 82G         0.0994
     39 H11       -17.5436  -25.9729   23.5346 H         1 82G         0.0924
     40 H12       -19.7187  -21.4872   27.2084 H         1 82G         0.0559
     41 H13       -18.3439  -21.6260   28.3561 H         1 82G         0.0559
     42 H14       -19.6442  -22.8652   28.3582 H         1 82G         0.0559
     43 H15       -21.0191  -25.5928   22.5089 H         1 82G         0.0778
     44 H16       -20.0872  -24.5248   23.6124 H         1 82G         0.0778
     45 H17       -19.9033  -26.3084   23.7212 H         1 82G         0.0778
     46 H18       -14.7588  -26.6733   27.0002 H         1 82G         0.0510
     47 H19       -15.5991  -25.8136   29.1180 H         1 82G         0.0530
     48 H20       -11.2704  -28.8037   20.9511 H         1 82G         0.0532
     49 H21       -12.5021  -23.0353   21.8166 H         1 82G         0.0360
     50 H22       -13.6483  -23.0652   23.1993 H         1 82G         0.0360
     51 H23       -16.7404  -24.9566   20.7662 H         1 82G         0.0872
     52 H24       -16.1974  -26.4358   21.6286 H         1 82G         0.0872
     53 H25       -18.2108  -23.1668   22.8251 H         1 82G         0.0494
     54 H26       -18.2341  -26.5787   20.4256 H         1 82G         0.0778
     55 H27       -20.0171  -26.5986   20.6418 H         1 82G         0.0778
     56 H28       -18.9651  -27.5172   21.7715 H         1 82G         0.0778
     57 H29       -15.0977  -25.1170   23.2092 H         1 82G         0.2052
     58 H30       -19.0952  -24.5956   21.4690 H         1 82G         0.2034
@<TRIPOS>BOND
     1    1   14 ar 
     2   17    1 ar 
     3    6    2 ar 
     4    2   16 ar 
     5    7    3 ar 
     6    3   15 ar 
     7   16    4 ar 
     8    4   20 ar 
     9   18    5 2  
    10    5   25 1  
    11    8    6 1  
    12   19    6 ar 
    13   17    7 ar 
    14    7   25 1  
    15   21    8 1  
    16   23    9 1  
    17    9   26 1  
    18   10   19 1  
    19   10   21 1  
    20   26   10 1  
    21   11   22 1  
    22   23   11 1  
    23   11   27 1  
    24   25   12 1  
    25   27   13 1  
    26   14   15 ar 
    27   18   17 1  
    28   18   23 1  
    29   19   20 ar 
    30   20   28 1  
    31   22   26 1  
    32   27   24 1  
    33    1   29 1  
    34    2   30 1  
    35    3   31 1  
    36    4   32 1  
    37    5   33 1  
    38    8   34 1  
    39    8   35 1  
    40    9   36 1  
    41    9   37 1  
    42   10   38 1  
    43   11   39 1  
    44   12   40 1  
    45   12   41 1  
    46   12   42 1  
    47   13   43 1  
    48   13   44 1  
    49   13   45 1  
    50   14   46 1  
    51   15   47 1  
    52   16   48 1  
    53   21   49 1  
    54   21   50 1  
    55   22   51 1  
    56   22   52 1  
    57   23   53 1  
    58   24   54 1  
    59   24   55 1  
    60   24   56 1  
    61   26   57 1  
    62   27   58 1  
@<TRIPOS>SUBSTRUCTURE
     1 82G         1

