### 
### Created by X-TOOL on Fri Nov  2 11:04:22 2018
### 

@<TRIPOS>MOLECULE
5u94_ligand
   59    62     1     0     0
SMALL
GAST_HUCK


@<TRIPOS>ATOM
      1 C3        -25.0450  -13.4420   -1.2630 C.1       1 G93        -0.0587
      2 N2        -26.2290  -15.1670    3.0000 N.pl3     1 G93        -0.2296
      3 N3        -25.9320  -13.3620    1.9170 N.2       1 G93        -0.3015
      4 C2        -25.3270  -14.6110   -0.3290 C.ar      1 G93         0.0822
      5 O2        -25.9770  -18.0330    2.0300 O.3       1 G93        -0.3123
      6 N1        -25.1860  -15.8270   -0.8540 N.ar      1 G93        -0.3137
      7 C1        -25.6780  -14.4760    0.9740 C.ar      1 G93         0.0651
      8 N6        -26.2300  -10.6480    3.1980 N.pl3     1 G93        -0.3274
      9 C17       -26.5430  -11.5110    4.3210 C.2       1 G93         0.1594
     10 N5        -26.8390  -11.1410    5.4690 N.2       1 G93        -0.0956
     11 O3        -27.0740  -12.2870    6.2580 O.3       1 G93        -0.0673
     12 N4        -26.8800  -13.4170    5.4420 N.2       1 G93        -0.0780
     13 C16       -26.5740  -13.0240    4.3020 C.2       1 G93         0.1737
     14 C15       -26.2580  -13.8800    3.0830 C.2       1 G93         0.1593
     15 C13       -26.5400  -16.0950    4.0840 C.3       1 G93         0.0537
     16 C14       -25.2810  -16.7980    4.5810 C.3       1 G93        -0.0383
     17 C4        -24.8570  -12.5880   -2.0590 C.1       1 G93        -0.0651
     18 C5        -24.7180  -11.5010   -3.1150 C.3       1 G93         0.1204
     19 C7        -25.9070  -10.5560   -2.9920 C.3       1 G93        -0.0251
     20 C6        -23.4090  -10.7390   -2.9430 C.3       1 G93        -0.0251
     21 O1        -24.7400  -12.0980   -4.3830 O.3       1 G93        -0.3773
     22 C12       -25.9090  -15.6390    1.7910 C.ar      1 G93         0.1352
     23 C9        -25.7620  -16.8900    1.2360 C.ar      1 G93         0.1413
     24 C8        -25.3850  -16.9490   -0.1270 C.ar      1 G93         0.0234
     25 C10       -25.8510  -19.3230    1.4630 C.3       1 G93         0.0786
     26 C11       -27.0370  -20.1910    1.8610 C.3       1 G93         0.0271
     27 C18       -26.7190  -20.8430    3.2010 C.3       1 G93        -0.0283
     28 N7        -26.0730  -22.1210    2.9820 N.4       1 G93         0.2272
     29 C19       -27.0350  -23.0830    2.4880 C.3       1 G93        -0.0337
     30 C20       -27.7330  -22.5870    1.2200 C.3       1 G93        -0.0121
     31 C21       -27.2170  -21.2280    0.7490 C.3       1 G93        -0.0381
     32 H1        -25.9962  -11.0583    2.2827 H         1 G93         0.1702
     33 H2        -26.2415   -9.6248    3.3159 H         1 G93         0.1702
     34 H3        -27.2523  -16.8492    3.7184 H         1 G93         0.0600
     35 H4        -26.9924  -15.5366    4.9167 H         1 G93         0.0600
     36 H5        -25.5442  -17.4892    5.3952 H         1 G93         0.0255
     37 H6        -24.5655  -16.0496    4.9523 H         1 G93         0.0255
     38 H7        -24.8254  -17.3623    3.7540 H         1 G93         0.0255
     39 H8        -25.8240   -9.7619   -3.7487 H         1 G93         0.0267
     40 H9        -25.9157  -10.1064   -1.9881 H         1 G93         0.0267
     41 H10       -26.8396  -11.1174   -3.1505 H         1 G93         0.0267
     42 H11       -22.5637  -11.4369   -3.0349 H         1 G93         0.0267
     43 H12       -23.3877  -10.2661   -1.9501 H         1 G93         0.0267
     44 H13       -23.3309   -9.9642   -3.7199 H         1 G93         0.0267
     45 H14       -24.0008  -12.6889   -4.4665 H         1 G93         0.2113
     46 H15       -25.2528  -17.9161   -0.5986 H         1 G93         0.0635
     47 H16       -24.9224  -19.7893    1.8238 H         1 G93         0.0620
     48 H17       -25.8160  -19.2363    0.3670 H         1 G93         0.0620
     49 H18       -27.9483  -19.5822    1.9547 H         1 G93         0.0379
     50 H19       -27.6519  -20.9967    3.7633 H         1 G93         0.0817
     51 H20       -26.0479  -20.1881    3.7760 H         1 G93         0.0817
     52 H21       -25.6855  -22.4526    3.8514 H         1 G93         0.2013
     53 H22       -25.3341  -22.0101    2.3054 H         1 G93         0.2013
     54 H23       -27.7927  -23.2606    3.2654 H         1 G93         0.0814
     55 H24       -26.5134  -24.0248    2.2623 H         1 G93         0.0814
     56 H25       -28.8107  -22.5018    1.4232 H         1 G93         0.0317
     57 H26       -27.5680  -23.3219    0.4183 H         1 G93         0.0317
     58 H27       -26.2424  -21.3815    0.2627 H         1 G93         0.0272
     59 H28       -27.9325  -20.8249    0.0172 H         1 G93         0.0272
@<TRIPOS>BOND
     1    4    1 1  
     2    1   17 3  
     3    2   14 1  
     4    2   15 1  
     5   22    2 1  
     6    7    3 1  
     7    3   14 2  
     8    4    6 ar 
     9    7    4 ar 
    10   23    5 1  
    11    5   25 1  
    12    6   24 ar 
    13   22    7 ar 
    14    9    8 1  
    15    9   10 2  
    16   13    9 1  
    17   11   10 1  
    18   12   11 1  
    19   13   12 2  
    20   14   13 1  
    21   15   16 1  
    22   17   18 1  
    23   18   19 1  
    24   18   20 1  
    25   18   21 1  
    26   22   23 ar 
    27   23   24 ar 
    28   25   26 1  
    29   26   27 1  
    30   26   31 1  
    31   27   28 1  
    32   28   29 1  
    33   29   30 1  
    34   30   31 1  
    35    8   32 1  
    36    8   33 1  
    37   15   34 1  
    38   15   35 1  
    39   16   36 1  
    40   16   37 1  
    41   16   38 1  
    42   19   39 1  
    43   19   40 1  
    44   19   41 1  
    45   20   42 1  
    46   20   43 1  
    47   20   44 1  
    48   21   45 1  
    49   24   46 1  
    50   25   47 1  
    51   25   48 1  
    52   26   49 1  
    53   27   50 1  
    54   27   51 1  
    55   28   52 1  
    56   28   53 1  
    57   29   54 1  
    58   29   55 1  
    59   30   56 1  
    60   30   57 1  
    61   31   58 1  
    62   31   59 1  
@<TRIPOS>SUBSTRUCTURE
     1 G93         1

