### 
### Created by X-TOOL on Mon Sep 10 21:13:30 2018
### 

@<TRIPOS>MOLECULE
5u9d_ligand
   60    65     1     0     0
SMALL
GAST_HUCK


@<TRIPOS>ATOM
      1 C1         -8.8590   10.5050  -11.2980 C.3       1 83P         0.0196
      2 C3         -9.3020    8.1270  -11.8620 C.2       1 83P         0.2026
      3 C5         -9.8970    7.0580  -12.7870 C.3       1 83P         0.1367
      4 C7        -10.4100    5.8570  -12.0200 C.3       1 83P        -0.0013
      5 C8        -11.7020    6.2270  -11.3810 C.2       1 83P        -0.0420
      6 C11       -12.8480    4.1240   -8.4990 C.ar      1 83P        -0.0830
      7 C12       -13.9950    4.8570   -8.2190 C.ar      1 83P        -0.0802
      8 C16       -12.4660    7.2880  -11.7270 C.2       1 83P         0.0608
      9 C17       -12.1530    8.2420  -12.8610 C.3       1 83P         0.0874
     10 C19       -10.9780    7.4410  -14.9530 C.2       1 83P         0.2250
     11 O20       -10.0510    6.8330  -15.4690 O.2       1 83P        -0.3967
     12 C21       -11.9580    8.0740  -15.8310 C.2       1 83P         0.1816
     13 C23       -13.2740    9.6790  -16.5060 C.2       1 83P         0.0827
     14 C24       -13.2040    8.7810  -17.5080 C.2       1 83P        -0.0486
     15 C30       -16.2820    5.0500  -19.6110 C.ar      1 83P        -0.0339
     16 C31       -16.8790    5.0120  -18.3370 C.ar      1 83P         0.0668
     17 C33       -18.6420    4.6400  -16.9520 C.ar      1 83P         0.0385
     18 C34       -17.8690    5.0040  -15.8240 C.ar      1 83P         0.0371
     19 C36       -16.0970    5.4020  -17.1910 C.ar      1 83P         0.0600
     20 C37       -14.7680    5.7940  -17.3720 C.ar      1 83P        -0.0178
     21 N2         -9.4020    9.4540  -12.1600 N.am      1 83P        -0.2880
     22 O4         -8.7220    7.7820  -10.8480 O.2       1 83P        -0.3944
     23 C9        -12.3280    5.5840  -10.2750 C.ar      1 83P        -0.0317
     24 C10       -11.9850    4.4590   -9.5100 C.ar      1 83P        -0.0798
     25 C13       -14.3610    5.9650   -8.9740 C.ar      1 83P        -0.0483
     26 C14       -13.4930    6.3350  -10.0010 C.ar      1 83P         0.0559
     27 N15       -13.5400    7.3450  -10.9130 N.pl3     1 83P        -0.2799
     28 N18       -11.0180    7.6190  -13.6140 N.am      1 83P        -0.2396
     29 O22       -12.4980    9.2900  -15.5140 O.3       1 83P        -0.2593
     30 C25       -12.3280    7.7680  -17.0940 C.2       1 83P        -0.0041
     31 C26       -11.9300    6.5250  -17.8550 C.3       1 83P         0.0497
     32 N27       -12.8980    6.2220  -18.8960 N.pl3     1 83P        -0.3097
     33 C28       -14.2130    5.8220  -18.6510 C.ar      1 83P         0.0520
     34 C29       -14.9960    5.4420  -19.7660 C.ar      1 83P        -0.0263
     35 N32       -18.1440    4.6260  -18.1730 N.ar      1 83P        -0.2753
     36 N35       -16.6150    5.3910  -15.9550 N.ar      1 83P        -0.2790
     37 H1         -9.0622   11.4886  -11.7467 H         1 83P         0.0484
     38 H2         -7.7728   10.3677  -11.1921 H         1 83P         0.0484
     39 H3         -9.3340   10.4487  -10.3075 H         1 83P         0.0484
     40 H4         -9.0999    6.7189  -13.4650 H         1 83P         0.0813
     41 H5         -9.6816    5.5705  -11.2472 H         1 83P         0.0368
     42 H6        -10.5642    5.0137  -12.7093 H         1 83P         0.0368
     43 H7        -12.6269    3.2524   -7.8937 H         1 83P         0.0500
     44 H8        -14.6223    4.5559   -7.3878 H         1 83P         0.0502
     45 H9        -11.8568    9.2245  -12.4648 H         1 83P         0.0703
     46 H10       -13.0289    8.3596  -13.5160 H         1 83P         0.0703
     47 H11       -13.8778   10.5853  -16.5144 H         1 83P         0.1037
     48 H12       -13.7293    8.8325  -18.4606 H         1 83P         0.0344
     49 H13       -16.8608    4.7610  -20.4808 H         1 83P         0.0668
     50 H14       -19.6800    4.3629  -16.8073 H         1 83P         0.0906
     51 H15       -18.3146    4.9641  -14.8366 H         1 83P         0.0933
     52 H16       -14.1667    6.0772  -16.5157 H         1 83P         0.0508
     53 H17        -9.8666    9.7207  -13.0044 H         1 83P         0.1848
     54 H18       -11.0864    3.8859   -9.7077 H         1 83P         0.0510
     55 H19       -15.2745    6.5136   -8.7748 H         1 83P         0.0531
     56 H20       -14.2878    8.0508  -10.9727 H         1 83P         0.2217
     57 H21       -11.8752    5.6771  -17.1564 H         1 83P         0.0639
     58 H22       -10.9440    6.6850  -18.3156 H         1 83P         0.0639
     59 H23       -12.5946    6.3078  -19.8766 H         1 83P         0.1807
     60 H24       -14.5600    5.4651  -20.7582 H         1 83P         0.0635
@<TRIPOS>BOND
     1   21    1 1  
     2    3    2 1  
     3    2   21 am 
     4    2   22 2  
     5    3    4 1  
     6   28    3 1  
     7    4    5 1  
     8    8    5 2  
     9    5   23 1  
    10    7    6 ar 
    11   24    6 ar 
    12   25    7 ar 
    13    9    8 1  
    14    8   27 1  
    15   28    9 1  
    16   10   11 2  
    17   12   10 1  
    18   10   28 am 
    19   12   29 1  
    20   30   12 2  
    21   14   13 2  
    22   13   29 1  
    23   30   14 1  
    24   16   15 ar 
    25   15   34 ar 
    26   19   16 ar 
    27   16   35 ar 
    28   18   17 ar 
    29   35   17 ar 
    30   36   18 ar 
    31   20   19 ar 
    32   19   36 ar 
    33   33   20 ar 
    34   23   24 ar 
    35   26   23 ar 
    36   26   25 ar 
    37   27   26 1  
    38   31   30 1  
    39   32   31 1  
    40   32   33 1  
    41   33   34 ar 
    42    1   37 1  
    43    1   38 1  
    44    1   39 1  
    45    3   40 1  
    46    4   41 1  
    47    4   42 1  
    48    6   43 1  
    49    7   44 1  
    50    9   45 1  
    51    9   46 1  
    52   13   47 1  
    53   14   48 1  
    54   15   49 1  
    55   17   50 1  
    56   18   51 1  
    57   20   52 1  
    58   21   53 1  
    59   24   54 1  
    60   25   55 1  
    61   27   56 1  
    62   31   57 1  
    63   31   58 1  
    64   32   59 1  
    65   34   60 1  
@<TRIPOS>SUBSTRUCTURE
     1 83P         1

