### 
### Created by X-TOOL on Mon Sep 10 21:13:34 2018
### 

@<TRIPOS>MOLECULE
5u9i_ligand
   41    40     1     0     0
SMALL
GAST_HUCK


@<TRIPOS>ATOM
      1 C1          1.8270    6.6040    6.2950 C.3       1 FAR        -0.0595
      2 C2          2.9910    7.3980    5.7880 C.2       1 FAR        -0.1119
      3 C3          3.5330    8.3900    6.5100 C.2       1 FAR        -0.0831
      4 C5          2.9790    8.7410    7.9080 C.3       1 FAR        -0.0254
      5 C6          3.0820   10.2720    8.0720 C.3       1 FAR        -0.0388
      6 C7          1.9860   10.7850    8.9140 C.2       1 FAR        -0.1070
      7 C8          2.1070   10.9920   10.2460 C.2       1 FAR        -0.0827
      8 C9          0.9080   11.5190   11.0410 C.3       1 FAR        -0.0254
      9 C11         1.3190   12.6500   11.9900 C.3       1 FAR        -0.0388
     10 C12         0.5810   13.8330   11.5560 C.2       1 FAR        -0.1074
     11 C13         0.1790   14.7920   12.3620 C.2       1 FAR        -0.0870
     12 C14         0.4410   14.7540   13.7850 C.3       1 FAR        -0.0406
     13 C15        -0.5580   15.9880   11.8210 C.3       1 FAR        -0.0406
     14 C4          4.7110    9.1710    5.9990 C.3       1 FAR        -0.0403
     15 C10         3.3490   10.6540   11.0450 C.3       1 FAR        -0.0402
     16 H1          1.5459    5.8474    5.5477 H         1 FAR         0.0304
     17 H2          0.9750    7.2761    6.4746 H         1 FAR         0.0304
     18 H3          2.1050    6.1052    7.2351 H         1 FAR         0.0304
     19 H4          3.4076    7.1643    4.8093 H         1 FAR         0.0239
     20 H5          3.5733    8.2385    8.6854 H         1 FAR         0.0425
     21 H6          1.9287    8.4239    7.9871 H         1 FAR         0.0425
     22 H7          3.0263   10.7451    7.0805 H         1 FAR         0.0361
     23 H8          4.0446   10.5200    8.5431 H         1 FAR         0.0361
     24 H9          1.0312   11.0086    8.4405 H         1 FAR         0.0244
     25 H10         0.4797   10.6951   11.6307 H         1 FAR         0.0425
     26 H11         0.1518   11.8988   10.3382 H         1 FAR         0.0425
     27 H12         2.4021   12.8300   11.9225 H         1 FAR         0.0361
     28 H13         1.0537   12.3938   13.0263 H         1 FAR         0.0361
     29 H14         0.3483   13.9276   10.4964 H         1 FAR         0.0244
     30 H15         0.0176   15.6514   14.2598 H         1 FAR         0.0375
     31 H16         1.5270   14.7259   13.9573 H         1 FAR         0.0375
     32 H17        -0.0226   13.8560   14.2194 H         1 FAR         0.0375
     33 H18        -0.6842   15.8799   10.7336 H         1 FAR         0.0375
     34 H19         0.0176   16.9008   12.0343 H         1 FAR         0.0375
     35 H20        -1.5460   16.0573   12.2997 H         1 FAR         0.0375
     36 H21         4.9862    8.8066    4.9983 H         1 FAR         0.0375
     37 H22         5.5621    9.0407    6.6835 H         1 FAR         0.0375
     38 H23         4.4468   10.2372    5.9411 H         1 FAR         0.0375
     39 H24         4.1336   10.2888   10.3660 H         1 FAR         0.0375
     40 H25         3.1096    9.8735   11.7822 H         1 FAR         0.0375
     41 H26         3.7056   11.5543   11.5668 H         1 FAR         0.0375
@<TRIPOS>BOND
     1    1    2 1  
     2    2    3 2  
     3    3    4 1  
     4    3   14 1  
     5    4    5 1  
     6    5    6 1  
     7    6    7 2  
     8    7    8 1  
     9    7   15 1  
    10    8    9 1  
    11    9   10 1  
    12   10   11 2  
    13   11   12 1  
    14   11   13 1  
    15    1   16 1  
    16    1   17 1  
    17    1   18 1  
    18    2   19 1  
    19    4   20 1  
    20    4   21 1  
    21    5   22 1  
    22    5   23 1  
    23    6   24 1  
    24    8   25 1  
    25    8   26 1  
    26    9   27 1  
    27    9   28 1  
    28   10   29 1  
    29   12   30 1  
    30   12   31 1  
    31   12   32 1  
    32   13   33 1  
    33   13   34 1  
    34   13   35 1  
    35   14   36 1  
    36   14   37 1  
    37   14   38 1  
    38   15   39 1  
    39   15   40 1  
    40   15   41 1  
@<TRIPOS>SUBSTRUCTURE
     1 FAR         1

