### 
### Created by X-TOOL on Mon Sep 10 21:13:34 2018
### 

@<TRIPOS>MOLECULE
5uac_ligand
  118   122     1     0     0
SMALL
GAST_HUCK


@<TRIPOS>ATOM
      1 C1        116.7180   26.8860   -8.5540 C.ar      1 RFP         0.1064
      2 C2        115.4950   26.4760   -8.0550 C.ar      1 RFP         0.0941
      3 C3        114.3330   26.6480   -8.7590 C.ar      1 RFP         0.0328
      4 C4        114.3730   27.1900  -10.0160 C.ar      1 RFP         0.0879
      5 C5        115.7040   28.1510  -11.8130 C.ar      1 RFP         0.0461
      6 C6        116.9460   28.5060  -12.2730 C.ar      1 RFP         0.1025
      7 C7        118.1040   28.3840  -11.6190 C.ar      1 RFP         0.0198
      8 C8        118.0490   27.8470  -10.3520 C.ar      1 RFP         0.0998
      9 C9        116.7710   27.4440   -9.8250 C.ar      1 RFP         0.0297
     10 C10       115.5620   27.5890  -10.5600 C.ar      1 RFP         0.0025
     11 C11       114.8970   28.4720  -12.8600 C.2       1 RFP         0.1822
     12 C12       115.4060   29.2180  -13.8230 C.3       1 RFP         0.2590
     13 C13       114.8720   28.5300  -15.0280 C.3       1 RFP        -0.0005
     14 C14       119.4070   28.7930  -12.1720 C.3       1 RFP        -0.0346
     15 C15       116.4340   25.7000   -5.8230 C.2       1 RFP         0.2176
     16 C16       116.1530   25.1880   -4.4410 C.2       1 RFP         0.0212
     17 C17       115.9770   26.1460   -3.4260 C.2       1 RFP        -0.0662
     18 C18       115.7860   27.6710   -3.6650 C.2       1 RFP        -0.0756
     19 C19       114.8720   28.3270   -2.8240 C.2       1 RFP        -0.0707
     20 C20       114.6780   29.7950   -2.7340 C.3       1 RFP         0.0137
     21 C21       114.8060   30.3690   -4.1090 C.3       1 RFP         0.0738
     22 C22       113.9740   31.5660   -4.3440 C.3       1 RFP         0.0112
     23 C23       114.3170   32.3580   -5.5550 C.3       1 RFP         0.0656
     24 C24       114.1190   31.7580   -6.8780 C.3       1 RFP         0.0137
     25 C25       114.6150   32.6460   -7.9970 C.3       1 RFP         0.0986
     26 C26       114.2720   32.0030   -9.2660 C.3       1 RFP         0.0179
     27 C27       114.5690   32.8550  -10.4470 C.3       1 RFP         0.0761
     28 C28       114.4250   32.2070  -11.8210 C.2       1 RFP        -0.0510
     29 C29       115.3380   31.3700  -12.5270 C.2       1 RFP         0.0372
     30 C30       115.8560   23.7150   -4.2690 C.3       1 RFP        -0.0276
     31 C31       113.2990   29.7780   -2.2380 C.3       1 RFP        -0.0483
     32 C32       114.4450   32.5550   -3.3480 C.3       1 RFP        -0.0575
     33 C33       112.6290   31.7180   -6.8510 C.3       1 RFP        -0.0573
     34 C34       115.1940   30.8620   -9.2850 C.3       1 RFP        -0.0561
     35 C35       113.8380   34.8250   -7.6800 C.2       1 RFP         0.2309
     36 C36       112.6860   35.7200   -7.7770 C.3       1 RFP         0.0372
     37 C37       116.0980   34.5780  -10.5090 C.3       1 RFP         0.0387
     38 C38       107.8520   25.8180   -4.6690 C.3       1 RFP        -0.0429
     39 C39       109.6750   27.2160   -5.6180 C.3       1 RFP        -0.0106
     40 C40       110.6240   26.9730   -6.7310 C.3       1 RFP         0.0792
     41 C41       111.2880   24.8770   -5.5880 C.3       1 RFP         0.0792
     42 C42       110.3040   25.2410   -4.5020 C.3       1 RFP        -0.0106
     43 C43       113.0010   26.2260   -8.1410 C.2       1 RFP         0.0158
     44 N1        115.3190   25.9290   -6.7320 N.am      1 RFP        -0.2425
     45 N2        112.6600   26.6980   -6.9510 N.2       1 RFP        -0.2308
     46 N3        111.6190   26.0960   -6.2700 N.pl3     1 RFP        -0.2498
     47 N4        109.2440   25.9520   -5.1450 N.4       1 RFP         0.2360
     48 O1        117.8700   26.7780   -7.9150 O.3       1 RFP        -0.3465
     49 O2        119.2310   27.7250   -9.6640 O.3       1 RFP        -0.3316
     50 O3        116.7910   29.0900  -13.6960 O.3       1 RFP        -0.2861
     51 O4        113.7740   28.0650  -12.9250 O.2       1 RFP        -0.3567
     52 O5        114.9850   30.5680  -13.6500 O.3       1 RFP        -0.3068
     53 O6        115.8240   33.2530  -10.1910 O.3       1 RFP        -0.3732
     54 O7        113.7010   33.5830   -8.1660 O.3       1 RFP        -0.2729
     55 O8        114.8040   35.0350   -6.9850 O.2       1 RFP        -0.3707
     56 O9        115.6400   32.6180   -5.4130 O.3       1 RFP        -0.3911
     57 O10       116.0800   30.8290   -4.1930 O.3       1 RFP        -0.3885
     58 O11       117.5740   25.9300   -6.1440 O.2       1 RFP        -0.3828
     59 O12       113.2420   27.3380  -10.7340 O.3       1 RFP        -0.3381
     60 H1        115.2203   29.0509  -15.9321 H         1 RFP         0.0260
     61 H2        113.7724   28.5407  -14.9993 H         1 RFP         0.0260
     62 H3        115.2283   27.4894  -15.0442 H         1 RFP         0.0260
     63 H4        119.2648   29.1970  -13.1852 H         1 RFP         0.0341
     64 H5        120.0768   27.9215  -12.2155 H         1 RFP         0.0341
     65 H6        119.8522   29.5659  -11.5283 H         1 RFP         0.0341
     66 H7        115.9743   25.7934   -2.3956 H         1 RFP         0.0536
     67 H8        116.3321   28.2021   -4.4433 H         1 RFP         0.0435
     68 H9        114.2516   27.7035   -2.1819 H         1 RFP         0.0714
     69 H10       115.3718   30.2926   -2.0405 H         1 RFP         0.0522
     70 H11       114.5913   29.5979   -4.8635 H         1 RFP         0.0629
     71 H12       112.9029   31.3220   -4.2869 H         1 RFP         0.0350
     72 H13       113.7369   33.2922   -5.5276 H         1 RFP         0.0600
     73 H14       114.5732   30.7596   -6.9614 H         1 RFP         0.0352
     74 H15       115.6565   32.9780   -7.8748 H         1 RFP         0.0658
     75 H16       113.2180   31.6888   -9.2824 H         1 RFP         0.0368
     76 H17       113.8952   33.7244  -10.4349 H         1 RFP         0.0691
     77 H18       113.4888   32.4140  -12.3373 H         1 RFP         0.0359
     78 H19       116.3718   31.3420  -12.1858 H         1 RFP         0.0848
     79 H20       116.0766   23.1845   -5.2070 H         1 RFP         0.0384
     80 H21       114.7943   23.5824   -4.0138 H         1 RFP         0.0384
     81 H22       116.4811   23.3068   -3.4612 H         1 RFP         0.0384
     82 H23       113.2784   29.3454   -1.2268 H         1 RFP         0.0262
     83 H24       112.6752   29.1700   -2.9097 H         1 RFP         0.0262
     84 H25       112.9084   30.8058   -2.2051 H         1 RFP         0.0262
     85 H26       114.2813   32.1608   -2.3342 H         1 RFP         0.0234
     86 H27       113.8857   33.4942   -3.4710 H         1 RFP         0.0234
     87 H28       115.5180   32.7448   -3.4987 H         1 RFP         0.0234
     88 H29       112.2945   31.0668   -6.0300 H         1 RFP         0.0234
     89 H30       112.2554   31.3234   -7.8074 H         1 RFP         0.0234
     90 H31       112.2376   32.7342   -6.6956 H         1 RFP         0.0234
     91 H32       114.9939   30.2145   -8.4186 H         1 RFP         0.0235
     92 H33       116.2305   31.2273   -9.2381 H         1 RFP         0.0235
     93 H34       115.0488   30.2886  -10.2125 H         1 RFP         0.0235
     94 H35       112.9429   36.6969   -7.3414 H         1 RFP         0.0483
     95 H36       111.8371   35.2858   -7.2285 H         1 RFP         0.0483
     96 H37       112.4112   35.8508   -8.8341 H         1 RFP         0.0483
     97 H38       117.1460   34.8048  -10.2634 H         1 RFP         0.0525
     98 H39       115.4348   35.2385   -9.9312 H         1 RFP         0.0525
     99 H40       115.9302   34.7393  -11.5841 H         1 RFP         0.0525
    100 H41       107.1906   26.4397   -5.2904 H         1 RFP         0.0778
    101 H42       107.7891   26.1489   -3.6219 H         1 RFP         0.0778
    102 H43       107.5397   24.7657   -4.7404 H         1 RFP         0.0778
    103 H44       108.8130   27.7962   -5.9788 H         1 RFP         0.0835
    104 H45       110.1767   27.7686   -4.8100 H         1 RFP         0.0835
    105 H46       111.0806   27.9228   -7.0462 H         1 RFP         0.0583
    106 H47       110.0933   26.5210   -7.5820 H         1 RFP         0.0583
    107 H48       110.8319   24.1623   -6.2889 H         1 RFP         0.0583
    108 H49       112.1920   24.4319   -5.1469 H         1 RFP         0.0583
    109 H50       110.7878   25.8786   -3.7474 H         1 RFP         0.0835
    110 H51       109.9154   24.3321   -4.0194 H         1 RFP         0.0835
    111 H52       112.3389   25.5445   -8.6730 H         1 RFP         0.0733
    112 H53       114.3952   25.6979   -6.4268 H         1 RFP         0.2212
    113 H54       109.1720   25.4369   -6.0084 H         1 RFP         0.2032
    114 H55       117.7222   26.3870   -7.0619 H         1 RFP         0.2412
    115 H56       119.3827   26.8103   -9.4571 H         1 RFP         0.2505
    116 H57       116.1304   31.8075   -5.4851 H         1 RFP         0.2098
    117 H58       116.2249   31.2013   -5.0549 H         1 RFP         0.2101
    118 H59       113.3133   26.8418  -11.5410 H         1 RFP         0.2478
@<TRIPOS>BOND
     1    2    1 ar 
     2    1    9 ar 
     3    1   48 1  
     4    3    2 ar 
     5    2   44 1  
     6    3    4 ar 
     7   43    3 1  
     8    4   10 ar 
     9    4   59 1  
    10    5    6 ar 
    11   10    5 ar 
    12    5   11 1  
    13    6    7 ar 
    14    6   50 1  
    15    8    7 ar 
    16    7   14 1  
    17    9    8 ar 
    18    8   49 1  
    19   10    9 ar 
    20   11   12 1  
    21   11   51 2  
    22   12   13 1  
    23   12   50 1  
    24   12   52 1  
    25   15   16 1  
    26   44   15 am 
    27   15   58 2  
    28   16   17 2  
    29   16   30 1  
    30   17   18 1  
    31   18   19 2  
    32   19   20 1  
    33   20   21 1  
    34   20   31 1  
    35   21   22 1  
    36   21   57 1  
    37   22   23 1  
    38   22   32 1  
    39   23   24 1  
    40   23   56 1  
    41   25   24 1  
    42   24   33 1  
    43   26   25 1  
    44   25   54 1  
    45   27   26 1  
    46   26   34 1  
    47   28   27 1  
    48   27   53 1  
    49   29   28 2  
    50   52   29 1  
    51   35   36 1  
    52   54   35 1  
    53   35   55 2  
    54   53   37 1  
    55   47   38 1  
    56   40   39 1  
    57   39   47 1  
    58   46   40 1  
    59   41   42 1  
    60   46   41 1  
    61   42   47 1  
    62   45   43 2  
    63   45   46 1  
    64   13   60 1  
    65   13   61 1  
    66   13   62 1  
    67   14   63 1  
    68   14   64 1  
    69   14   65 1  
    70   17   66 1  
    71   18   67 1  
    72   19   68 1  
    73   20   69 1  
    74   21   70 1  
    75   22   71 1  
    76   23   72 1  
    77   24   73 1  
    78   25   74 1  
    79   26   75 1  
    80   27   76 1  
    81   28   77 1  
    82   29   78 1  
    83   30   79 1  
    84   30   80 1  
    85   30   81 1  
    86   31   82 1  
    87   31   83 1  
    88   31   84 1  
    89   32   85 1  
    90   32   86 1  
    91   32   87 1  
    92   33   88 1  
    93   33   89 1  
    94   33   90 1  
    95   34   91 1  
    96   34   92 1  
    97   34   93 1  
    98   36   94 1  
    99   36   95 1  
   100   36   96 1  
   101   37   97 1  
   102   37   98 1  
   103   37   99 1  
   104   38  100 1  
   105   38  101 1  
   106   38  102 1  
   107   39  103 1  
   108   39  104 1  
   109   40  105 1  
   110   40  106 1  
   111   41  107 1  
   112   41  108 1  
   113   42  109 1  
   114   42  110 1  
   115   43  111 1  
   116   44  112 1  
   117   47  113 1  
   118   48  114 1  
   119   49  115 1  
   120   56  116 1  
   121   57  117 1  
   122   59  118 1  
@<TRIPOS>SUBSTRUCTURE
     1 RFP         1

