### 
### Created by X-TOOL on Mon Sep 10 21:13:34 2018
### 

@<TRIPOS>MOLECULE
5uah_ligand
  118   122     1     0     0
SMALL
GAST_HUCK


@<TRIPOS>ATOM
      1 C1        114.8520   26.9220   -9.3300 C.ar      1 RFP         0.1064
      2 C2        113.6120   26.4820   -8.8330 C.ar      1 RFP         0.0941
      3 C3        112.4480   26.5860   -9.5880 C.ar      1 RFP         0.0328
      4 C4        112.4790   27.1110  -10.8690 C.ar      1 RFP         0.0879
      5 C5        113.8200   28.1090  -12.7300 C.ar      1 RFP         0.0461
      6 C6        115.0940   28.5200  -13.1660 C.ar      1 RFP         0.1025
      7 C7        116.2660   28.4560  -12.4800 C.ar      1 RFP         0.0198
      8 C8        116.1920   27.9140  -11.1740 C.ar      1 RFP         0.0998
      9 C9        114.8990   27.4670  -10.6530 C.ar      1 RFP         0.0297
     10 C10       113.6740   27.5560  -11.4310 C.ar      1 RFP         0.0025
     11 C11       112.9990   28.4130  -13.8360 C.2       1 RFP         0.1822
     12 C12       113.5500   29.2040  -14.8050 C.3       1 RFP         0.2590
     13 C13       113.1550   28.6830  -16.1570 C.3       1 RFP        -0.0005
     14 C14       117.5550   28.9330  -13.0720 C.3       1 RFP        -0.0346
     15 C15       114.4380   25.8630   -6.3920 C.2       1 RFP         0.2176
     16 C16       114.0420   25.2780   -5.0270 C.2       1 RFP         0.0212
     17 C17       113.4460   26.1750   -4.1240 C.2       1 RFP        -0.0662
     18 C18       113.1730   27.6350   -4.5470 C.2       1 RFP        -0.0756
     19 C19       112.9730   28.6250   -3.5660 C.2       1 RFP        -0.0707
     20 C20       112.1060   29.8450   -3.8030 C.3       1 RFP         0.0137
     21 C21       112.4420   30.4860   -5.1280 C.3       1 RFP         0.0738
     22 C22       111.6470   31.7400   -5.3450 C.3       1 RFP         0.0112
     23 C23       112.1110   32.4410   -6.5870 C.3       1 RFP         0.0656
     24 C24       111.7190   31.7770   -7.8710 C.3       1 RFP         0.0137
     25 C25       112.2610   32.5920   -9.0340 C.3       1 RFP         0.0986
     26 C26       112.4320   31.7420  -10.2640 C.3       1 RFP         0.0179
     27 C27       112.6930   32.6240  -11.4690 C.3       1 RFP         0.0761
     28 C28       112.4170   31.9200  -12.7750 C.2       1 RFP        -0.0510
     29 C29       113.4320   31.3140  -13.5260 C.2       1 RFP         0.0372
     30 C30       113.7560   23.7890   -4.9250 C.3       1 RFP        -0.0276
     31 C31       110.6690   29.4690   -3.7110 C.3       1 RFP        -0.0483
     32 C32       111.8810   32.7360   -4.2440 C.3       1 RFP        -0.0575
     33 C33       110.2250   31.6770   -7.9910 C.3       1 RFP        -0.0573
     34 C34       113.5370   30.7330  -10.0780 C.3       1 RFP        -0.0561
     35 C35       111.6680   34.9740   -8.8460 C.2       1 RFP         0.2309
     36 C36       110.6100   36.0160   -8.9640 C.3       1 RFP         0.0372
     37 C37       114.2690   34.3950  -11.8180 C.3       1 RFP         0.0387
     38 C38       105.5720   26.1170   -5.4960 C.3       1 RFP        -0.0429
     39 C39       107.3560   27.3050   -6.8030 C.3       1 RFP        -0.0106
     40 C40       108.4120   27.0560   -7.8410 C.3       1 RFP         0.0792
     41 C41       109.0840   24.9850   -6.6150 C.3       1 RFP         0.0792
     42 C42       107.9500   25.2750   -5.6380 C.3       1 RFP        -0.0106
     43 C43       111.1410   26.0270   -9.0000 C.2       1 RFP         0.0158
     44 N1        113.4140   25.9200   -7.4790 N.am      1 RFP        -0.2425
     45 N2        110.5190   26.7290   -8.0480 N.2       1 RFP        -0.2308
     46 N3        109.4300   26.1810   -7.3520 N.pl3     1 RFP        -0.2498
     47 N4        106.8850   26.0870   -6.1930 N.4       1 RFP         0.2360
     48 O1        115.9890   26.8380   -8.6120 O.3       1 RFP        -0.3465
     49 O2        117.3400   27.8030  -10.3820 O.3       1 RFP        -0.3316
     50 O3        114.9500   29.0850  -14.6200 O.3       1 RFP        -0.2861
     51 O4        111.8490   27.9990  -13.9280 O.2       1 RFP        -0.3567
     52 O5        113.1280   30.5500  -14.6630 O.3       1 RFP        -0.3068
     53 O6        113.9940   33.0780  -11.4590 O.3       1 RFP        -0.3732
     54 O7        111.4000   33.6570   -9.2630 O.3       1 RFP        -0.2729
     55 O8        112.6420   35.2250   -8.1550 O.2       1 RFP        -0.3707
     56 O9        113.4830   32.5040   -6.4550 O.3       1 RFP        -0.3911
     57 O10       113.8010   30.7570   -5.1790 O.3       1 RFP        -0.3885
     58 O11       115.5790   26.2830   -6.5660 O.2       1 RFP        -0.3828
     59 O12       111.3260   27.1870  -11.5730 O.3       1 RFP        -0.3381
     60 H1        113.5975   29.3183  -16.9384 H         1 RFP         0.0260
     61 H2        112.0590   28.6975  -16.2497 H         1 RFP         0.0260
     62 H3        113.5192   27.6516  -16.2733 H         1 RFP         0.0260
     63 H4        117.3737   29.3110  -14.0890 H         1 RFP         0.0341
     64 H5        118.2706   28.0986  -13.1132 H         1 RFP         0.0341
     65 H6        117.9682   29.7400  -12.4491 H         1 RFP         0.0341
     66 H7        113.1761   25.8397   -3.1237 H         1 RFP         0.0536
     67 H8        113.1352   27.8985   -5.6030 H         1 RFP         0.0435
     68 H9        113.4605   28.5094   -2.5991 H         1 RFP         0.0714
     69 H10       112.3170   30.5781   -3.0105 H         1 RFP         0.0522
     70 H11       112.1942   29.7768   -5.9315 H         1 RFP         0.0629
     71 H12       110.5788   31.4872   -5.4157 H         1 RFP         0.0350
     72 H13       111.6936   33.4586   -6.5984 H         1 RFP         0.0600
     73 H14       112.1502   30.7654   -7.8997 H         1 RFP         0.0352
     74 H15       113.2474   32.9913   -8.7554 H         1 RFP         0.0658
     75 H16       111.4949   31.1922  -10.4360 H         1 RFP         0.0368
     76 H17       112.0209   33.4922  -11.4023 H         1 RFP         0.0691
     77 H18       111.3939   31.8819  -13.1461 H         1 RFP         0.0359
     78 H19       114.4709   31.4374  -13.2235 H         1 RFP         0.0848
     79 H20       114.3091   23.2547   -5.7115 H         1 RFP         0.0384
     80 H21       112.6775   23.6133   -5.0513 H         1 RFP         0.0384
     81 H22       114.0744   23.4212   -3.9385 H         1 RFP         0.0384
     82 H23       110.4727   29.0076   -2.7319 H         1 RFP         0.0262
     83 H24       110.4256   28.7526   -4.5094 H         1 RFP         0.0262
     84 H25       110.0466   30.3689   -3.8235 H         1 RFP         0.0262
     85 H26       111.5653   32.3020   -3.2838 H         1 RFP         0.0234
     86 H27       111.2980   33.6472   -4.4438 H         1 RFP         0.0234
     87 H28       112.9508   32.9877   -4.1985 H         1 RFP         0.0234
     88 H29       109.8283   31.0878   -7.1511 H         1 RFP         0.0234
     89 H30       109.9655   31.1841   -8.9395 H         1 RFP         0.0234
     90 H31       109.7871   32.6859   -7.9702 H         1 RFP         0.0234
     91 H32       113.3198   30.1094   -9.1983 H         1 RFP         0.0235
     92 H33       114.4918   31.2583   -9.9283 H         1 RFP         0.0235
     93 H34       113.6054   30.0952  -10.9716 H         1 RFP         0.0235
     94 H35       110.9977   36.9759   -8.5922 H         1 RFP         0.0483
     95 H36       109.7345   35.7187   -8.3681 H         1 RFP         0.0483
     96 H37       110.3166   36.1229  -10.0187 H         1 RFP         0.0483
     97 H38       115.3522   34.5747  -11.7510 H         1 RFP         0.0525
     98 H39       113.7411   35.0786  -11.1368 H         1 RFP         0.0525
     99 H40       113.9311   34.5720  -12.8497 H         1 RFP         0.0525
    100 H41       104.8813   26.7753   -6.0433 H         1 RFP         0.0778
    101 H42       105.7084   26.4979   -4.4731 H         1 RFP         0.0778
    102 H43       105.1548   25.1000   -5.4560 H         1 RFP         0.0778
    103 H44       106.5048   27.8128   -7.2801 H         1 RFP         0.0835
    104 H45       107.7769   27.9523   -6.0195 H         1 RFP         0.0835
    105 H46       108.8702   28.0156   -8.1223 H         1 RFP         0.0583
    106 H47       107.9434   26.6001   -8.7256 H         1 RFP         0.0583
    107 H48       108.7644   24.2039   -7.3204 H         1 RFP         0.0583
    108 H49       109.9645   24.6360   -6.0557 H         1 RFP         0.0583
    109 H50       108.3693   25.8023   -4.7684 H         1 RFP         0.0835
    110 H51       107.5200   24.3161   -5.3131 H         1 RFP         0.0835
    111 H52       110.7320   25.0809   -9.3515 H         1 RFP         0.0733
    112 H53       112.5111   25.5433   -7.2718 H         1 RFP         0.2212
    113 H54       106.6383   25.5466   -7.0073 H         1 RFP         0.2032
    114 H55       115.7983   26.4587   -7.7622 H         1 RFP         0.2412
    115 H56       117.4835   26.8904  -10.1604 H         1 RFP         0.2505
    116 H57       113.8415   31.6243   -6.4632 H         1 RFP         0.2098
    117 H58       114.0191   31.1177   -6.0304 H         1 RFP         0.2101
    118 H59       111.4083   26.6758  -12.3694 H         1 RFP         0.2478
@<TRIPOS>BOND
     1    2    1 ar 
     2    1    9 ar 
     3    1   48 1  
     4    3    2 ar 
     5    2   44 1  
     6    3    4 ar 
     7   43    3 1  
     8    4   10 ar 
     9    4   59 1  
    10    5    6 ar 
    11   10    5 ar 
    12    5   11 1  
    13    6    7 ar 
    14    6   50 1  
    15    8    7 ar 
    16    7   14 1  
    17    9    8 ar 
    18    8   49 1  
    19   10    9 ar 
    20   11   12 1  
    21   11   51 2  
    22   12   13 1  
    23   12   50 1  
    24   12   52 1  
    25   15   16 1  
    26   44   15 am 
    27   15   58 2  
    28   16   17 2  
    29   16   30 1  
    30   17   18 1  
    31   18   19 2  
    32   19   20 1  
    33   20   21 1  
    34   20   31 1  
    35   21   22 1  
    36   21   57 1  
    37   22   23 1  
    38   22   32 1  
    39   23   24 1  
    40   23   56 1  
    41   25   24 1  
    42   24   33 1  
    43   26   25 1  
    44   25   54 1  
    45   27   26 1  
    46   26   34 1  
    47   28   27 1  
    48   27   53 1  
    49   29   28 2  
    50   52   29 1  
    51   35   36 1  
    52   54   35 1  
    53   35   55 2  
    54   53   37 1  
    55   47   38 1  
    56   40   39 1  
    57   39   47 1  
    58   46   40 1  
    59   41   42 1  
    60   46   41 1  
    61   42   47 1  
    62   45   43 2  
    63   45   46 1  
    64   13   60 1  
    65   13   61 1  
    66   13   62 1  
    67   14   63 1  
    68   14   64 1  
    69   14   65 1  
    70   17   66 1  
    71   18   67 1  
    72   19   68 1  
    73   20   69 1  
    74   21   70 1  
    75   22   71 1  
    76   23   72 1  
    77   24   73 1  
    78   25   74 1  
    79   26   75 1  
    80   27   76 1  
    81   28   77 1  
    82   29   78 1  
    83   30   79 1  
    84   30   80 1  
    85   30   81 1  
    86   31   82 1  
    87   31   83 1  
    88   31   84 1  
    89   32   85 1  
    90   32   86 1  
    91   32   87 1  
    92   33   88 1  
    93   33   89 1  
    94   33   90 1  
    95   34   91 1  
    96   34   92 1  
    97   34   93 1  
    98   36   94 1  
    99   36   95 1  
   100   36   96 1  
   101   37   97 1  
   102   37   98 1  
   103   37   99 1  
   104   38  100 1  
   105   38  101 1  
   106   38  102 1  
   107   39  103 1  
   108   39  104 1  
   109   40  105 1  
   110   40  106 1  
   111   41  107 1  
   112   41  108 1  
   113   42  109 1  
   114   42  110 1  
   115   43  111 1  
   116   44  112 1  
   117   47  113 1  
   118   48  114 1  
   119   49  115 1  
   120   56  116 1  
   121   57  117 1  
   122   59  118 1  
@<TRIPOS>SUBSTRUCTURE
     1 RFP         1

