### 
### Created by X-TOOL on Mon Sep 10 21:13:34 2018
### 

@<TRIPOS>MOLECULE
5ual_ligand
  122   126     1     0     0
SMALL
GAST_HUCK


@<TRIPOS>ATOM
      1 C1       -113.9000  -26.7340   -8.4290 C.ar      1 RFP         0.1061
      2 C2       -112.7270  -26.2310   -7.8400 C.ar      1 RFP         0.0946
      3 C3       -111.4950  -26.3410   -8.4660 C.ar      1 RFP         0.0328
      4 C4       -111.3920  -26.9270   -9.7180 C.ar      1 RFP         0.0878
      5 C5       -112.5660  -28.0540  -11.6360 C.ar      1 RFP         0.0460
      6 C6       -113.7990  -28.5030  -12.1420 C.ar      1 RFP         0.1024
      7 C7       -115.0130  -28.4310  -11.5590 C.ar      1 RFP         0.0197
      8 C8       -115.0410  -27.8320  -10.2990 C.ar      1 RFP         0.0997
      9 C9       -113.8080  -27.3420   -9.7070 C.ar      1 RFP         0.0296
     10 C10      -112.5230  -27.4360  -10.3610 C.ar      1 RFP         0.0024
     11 C11      -111.6700  -28.3960  -12.6620 C.2       1 RFP         0.1822
     12 C12      -112.1550  -29.1960  -13.6450 C.3       1 RFP         0.2590
     13 C13      -111.6960  -28.6470  -14.9610 C.3       1 RFP        -0.0005
     14 C14      -116.2410  -28.9560  -12.2160 C.3       1 RFP        -0.0346
     15 C15      -113.8380  -25.4940   -5.5810 C.2       1 RFP         0.2033
     16 C16      -113.5990  -24.8640   -4.2130 C.3       1 RFP         0.0512
     17 C17      -113.2450  -25.8050   -3.2260 C.3       1 RFP        -0.0331
     18 C18      -112.9960  -27.2660   -3.6680 C.3       1 RFP        -0.0504
     19 C19      -113.1910  -28.3580   -2.8090 C.3       1 RFP        -0.0480
     20 C20      -112.1720  -29.4680   -2.8100 C.3       1 RFP        -0.0175
     21 C21      -112.3900  -30.3410   -4.0130 C.3       1 RFP         0.0627
     22 C22      -111.4190  -31.4860   -4.0250 C.3       1 RFP         0.0088
     23 C23      -111.7090  -32.4150   -5.1730 C.3       1 RFP         0.0654
     24 C24      -110.9710  -31.9290   -6.3710 C.3       1 RFP         0.0137
     25 C25      -111.5120  -32.5180   -7.6580 C.3       1 RFP         0.0986
     26 C26      -111.3940  -31.5690   -8.7980 C.3       1 RFP         0.0179
     27 C27      -111.5700  -32.3460  -10.0710 C.3       1 RFP         0.0761
     28 C28      -111.2650  -31.4900  -11.2700 C.2       1 RFP        -0.0510
     29 C29      -112.1490  -31.2630  -12.3280 C.2       1 RFP         0.0372
     30 C30      -113.0790  -23.4370   -4.1910 C.3       1 RFP        -0.0449
     31 C31      -110.8130  -28.8750   -2.8250 C.3       1 RFP        -0.0601
     32 C32      -111.4300  -32.2840   -2.7520 C.3       1 RFP        -0.0577
     33 C33      -109.5310  -32.3080   -6.1970 C.3       1 RFP        -0.0573
     34 C34      -112.4310  -30.4910   -8.7480 C.3       1 RFP        -0.0561
     35 C35      -111.0540  -34.8620   -7.6400 C.2       1 RFP         0.2309
     36 C36      -110.4180  -35.9960   -8.3560 C.3       1 RFP         0.0372
     37 C37      -113.1140  -34.0890  -10.5120 C.3       1 RFP         0.0387
     38 C38      -105.0860  -26.4290   -3.6170 C.3       1 RFP        -0.0429
     39 C39      -106.6490  -27.4650   -5.2720 C.3       1 RFP        -0.0106
     40 C40      -107.5510  -27.1960   -6.4450 C.3       1 RFP         0.0792
     41 C41      -108.1700  -25.0030   -5.4300 C.3       1 RFP         0.0792
     42 C42      -107.2600  -25.3490   -4.2560 C.3       1 RFP        -0.0106
     43 C43      -110.2410  -25.8370   -7.7380 C.2       1 RFP         0.0158
     44 N1       -112.6790  -25.6080   -6.5100 N.am      1 RFP        -0.2407
     45 N2       -109.5930  -26.6870   -6.9380 N.2       1 RFP        -0.2308
     46 N3       -108.5440  -26.2120   -6.1340 N.pl3     1 RFP        -0.2498
     47 N4       -106.1950  -26.2730   -4.5940 N.4       1 RFP         0.2360
     48 O1       -115.1130  -26.6630   -7.8590 O.3       1 RFP        -0.3466
     49 O2       -116.2410  -27.7130   -9.6200 O.3       1 RFP        -0.3317
     50 O3       -113.5610  -29.1390  -13.5470 O.3       1 RFP        -0.2861
     51 O4       -110.5120  -28.0040  -12.6740 O.2       1 RFP        -0.3566
     52 O5       -111.7130  -30.5170  -13.4350 O.3       1 RFP        -0.3068
     53 O6       -112.8660  -32.7830  -10.1120 O.3       1 RFP        -0.3732
     54 O7       -110.7080  -33.5720   -8.0020 O.3       1 RFP        -0.2729
     55 O8       -112.0400  -35.0280   -6.9460 O.2       1 RFP        -0.3707
     56 O9       -113.0750  -32.4980   -5.3890 O.3       1 RFP        -0.3911
     57 O10      -113.7030  -30.7840   -4.0570 O.3       1 RFP        -0.3912
     58 O11      -114.9550  -25.9130   -5.8640 O.2       1 RFP        -0.3860
     59 O12      -110.1740  -27.0010  -10.3070 O.3       1 RFP        -0.3381
     60 H1       -112.0775  -29.2802  -15.7756 H         1 RFP         0.0260
     61 H2       -110.5965  -28.6353  -14.9900 H         1 RFP         0.0260
     62 H3       -112.0770  -27.6224  -15.0839 H         1 RFP         0.0260
     63 H4       -115.9792  -29.3809  -13.1963 H         1 RFP         0.0341
     64 H5       -116.9626  -28.1371  -12.3523 H         1 RFP         0.0341
     65 H6       -116.6886  -29.7380  -11.5851 H         1 RFP         0.0341
     66 H7       -114.6359  -24.6648   -3.9047 H         1 RFP         0.0539
     67 H8       -114.0575  -25.8221   -2.4847 H         1 RFP         0.0292
     68 H9       -112.3210  -25.4462   -2.7491 H         1 RFP         0.0292
     69 H10      -111.9446  -27.3132   -3.9878 H         1 RFP         0.0267
     70 H11      -113.6511  -27.4386   -4.5347 H         1 RFP         0.0267
     71 H12      -114.1602  -28.8075   -3.0710 H         1 RFP         0.0269
     72 H13      -113.2362  -27.9604   -1.7844 H         1 RFP         0.0269
     73 H14      -112.2903  -30.0745   -1.9000 H         1 RFP         0.0323
     74 H15      -112.2071  -29.7347   -4.9124 H         1 RFP         0.0599
     75 H16      -110.4103  -31.0677   -4.1577 H         1 RFP         0.0348
     76 H17      -111.3406  -33.4203   -4.9206 H         1 RFP         0.0600
     77 H18      -111.0576  -30.8338   -6.4251 H         1 RFP         0.0352
     78 H19      -112.5569  -32.8331   -7.5203 H         1 RFP         0.0658
     79 H20      -110.3963  -31.1062   -8.7787 H         1 RFP         0.0368
     80 H21      -110.8902  -33.2107  -10.0691 H         1 RFP         0.0691
     81 H22      -110.2867  -31.0139  -11.3166 H         1 RFP         0.0359
     82 H23      -113.1628  -31.6594  -12.2946 H         1 RFP         0.0848
     83 H24      -113.4837  -22.8860   -5.0527 H         1 RFP         0.0257
     84 H25      -111.9804  -23.4462   -4.2449 H         1 RFP         0.0257
     85 H26      -113.3964  -22.9454   -3.2596 H         1 RFP         0.0257
     86 H27      -110.6795  -28.2418   -1.9355 H         1 RFP         0.0233
     87 H28      -110.6893  -28.2645   -3.7316 H         1 RFP         0.0233
     88 H29      -110.0621  -29.6788   -2.8189 H         1 RFP         0.0233
     89 H30      -111.2194  -31.6196   -1.9010 H         1 RFP         0.0234
     90 H31      -110.6604  -33.0682   -2.8041 H         1 RFP         0.0234
     91 H32      -112.4182  -32.7484   -2.6188 H         1 RFP         0.0234
     92 H33      -109.1487  -31.8757   -5.2606 H         1 RFP         0.0234
     93 H34      -108.9454  -31.9227   -7.0447 H         1 RFP         0.0234
     94 H35      -109.4423  -33.4037   -6.1580 H         1 RFP         0.0234
     95 H36      -112.3142  -29.9127   -7.8196 H         1 RFP         0.0235
     96 H37      -113.4328  -30.9444   -8.7739 H         1 RFP         0.0235
     97 H38      -112.3081  -29.8235   -9.6136 H         1 RFP         0.0235
     98 H39      -110.7987  -36.9452   -7.9509 H         1 RFP         0.0483
     99 H40      -109.3274  -35.9504   -8.2197 H         1 RFP         0.0483
    100 H41      -110.6566  -35.9329   -9.4280 H         1 RFP         0.0483
    101 H42      -114.1971  -34.2797  -10.4903 H         1 RFP         0.0525
    102 H43      -112.6055  -34.7847   -9.8284 H         1 RFP         0.0525
    103 H44      -112.7360  -34.2374  -11.5343 H         1 RFP         0.0525
    104 H45      -104.3565  -27.1559   -4.0035 H         1 RFP         0.0778
    105 H46      -105.4893  -26.7884   -2.6588 H         1 RFP         0.0778
    106 H47      -104.5913  -25.4582   -3.4657 H         1 RFP         0.0778
    107 H48      -105.7672  -28.0147   -5.6327 H         1 RFP         0.0835
    108 H49      -107.1979  -28.0862   -4.5490 H         1 RFP         0.0835
    109 H50      -108.0536  -28.1319   -6.7304 H         1 RFP         0.0583
    110 H51      -106.9426  -26.8348   -7.2873 H         1 RFP         0.0583
    111 H52      -107.6381  -24.3295   -6.1181 H         1 RFP         0.0583
    112 H53      -109.0757  -24.5038   -5.0552 H         1 RFP         0.0583
    113 H54      -107.8735  -25.8019   -3.4633 H         1 RFP         0.0835
    114 H55      -106.8067  -24.4189   -3.8826 H         1 RFP         0.0835
    115 H56      -109.8898  -24.8147   -7.8704 H         1 RFP         0.0733
    116 H57      -111.8034  -25.2327   -6.2059 H         1 RFP         0.2221
    117 H58      -105.7273  -25.7801   -5.3386 H         1 RFP         0.2032
    118 H59      -115.0396  -26.2375   -7.0128 H         1 RFP         0.2411
    119 H60      -116.4194  -26.7950   -9.4531 H         1 RFP         0.2505
    120 H61      -113.5008  -32.8113   -4.5997 H         1 RFP         0.2098
    121 H62      -113.8403  -31.2857   -4.8519 H         1 RFP         0.2098
    122 H63      -110.1940  -26.5324  -11.1332 H         1 RFP         0.2478
@<TRIPOS>BOND
     1    2    1 ar 
     2    1    9 ar 
     3    1   48 1  
     4    3    2 ar 
     5    2   44 1  
     6    3    4 ar 
     7   43    3 1  
     8    4   10 ar 
     9    4   59 1  
    10    5    6 ar 
    11   10    5 ar 
    12    5   11 1  
    13    6    7 ar 
    14    6   50 1  
    15    8    7 ar 
    16    7   14 1  
    17    9    8 ar 
    18    8   49 1  
    19   10    9 ar 
    20   11   12 1  
    21   11   51 2  
    22   12   13 1  
    23   12   50 1  
    24   12   52 1  
    25   15   16 1  
    26   44   15 am 
    27   15   58 2  
    28   16   17 1  
    29   16   30 1  
    30   17   18 1  
    31   18   19 1  
    32   19   20 1  
    33   20   21 1  
    34   20   31 1  
    35   21   22 1  
    36   21   57 1  
    37   22   23 1  
    38   22   32 1  
    39   23   24 1  
    40   23   56 1  
    41   25   24 1  
    42   24   33 1  
    43   26   25 1  
    44   25   54 1  
    45   27   26 1  
    46   26   34 1  
    47   28   27 1  
    48   27   53 1  
    49   29   28 2  
    50   52   29 1  
    51   35   36 1  
    52   54   35 1  
    53   35   55 2  
    54   53   37 1  
    55   47   38 1  
    56   40   39 1  
    57   39   47 1  
    58   46   40 1  
    59   41   42 1  
    60   46   41 1  
    61   42   47 1  
    62   45   43 2  
    63   45   46 1  
    64   13   60 1  
    65   13   61 1  
    66   13   62 1  
    67   14   63 1  
    68   14   64 1  
    69   14   65 1  
    70   16   66 1  
    71   17   67 1  
    72   17   68 1  
    73   18   69 1  
    74   18   70 1  
    75   19   71 1  
    76   19   72 1  
    77   20   73 1  
    78   21   74 1  
    79   22   75 1  
    80   23   76 1  
    81   24   77 1  
    82   25   78 1  
    83   26   79 1  
    84   27   80 1  
    85   28   81 1  
    86   29   82 1  
    87   30   83 1  
    88   30   84 1  
    89   30   85 1  
    90   31   86 1  
    91   31   87 1  
    92   31   88 1  
    93   32   89 1  
    94   32   90 1  
    95   32   91 1  
    96   33   92 1  
    97   33   93 1  
    98   33   94 1  
    99   34   95 1  
   100   34   96 1  
   101   34   97 1  
   102   36   98 1  
   103   36   99 1  
   104   36  100 1  
   105   37  101 1  
   106   37  102 1  
   107   37  103 1  
   108   38  104 1  
   109   38  105 1  
   110   38  106 1  
   111   39  107 1  
   112   39  108 1  
   113   40  109 1  
   114   40  110 1  
   115   41  111 1  
   116   41  112 1  
   117   42  113 1  
   118   42  114 1  
   119   43  115 1  
   120   44  116 1  
   121   47  117 1  
   122   48  118 1  
   123   49  119 1  
   124   56  120 1  
   125   57  121 1  
   126   59  122 1  
@<TRIPOS>SUBSTRUCTURE
     1 RFP         1

