### 
### Created by X-TOOL on Mon Sep 10 21:13:34 2018
### 

@<TRIPOS>MOLECULE
5ubt_ligand
   66    71     1     0     0
SMALL
GAST_HUCK


@<TRIPOS>ATOM
      1 C5         35.4340   15.1020   33.1370 C.2       1 85S         0.1665
      2 C6         34.8810   16.3690   32.7600 C.2       1 85S         0.1591
      3 N1         35.5800   17.4930   33.0200 N.2       1 85S        -0.2685
      4 C7         37.1310   13.8820   34.0830 C.2       1 85S         0.0975
      5 C8         36.1420   13.0100   33.6570 C.2       1 85S        -0.0485
      6 C9         35.0820   13.7610   33.0670 C.2       1 85S         0.0228
      7 C11        33.8560   13.1760   32.5010 C.2       1 85S         0.0714
      8 C12        38.4170   13.5750   34.7500 C.ar      1 85S        -0.0111
      9 N3         37.3950   16.3000   34.0220 N.2       1 85S        -0.1572
     10 C15        31.7730   12.6990   31.9630 C.2       1 85S        -0.0127
     11 N4         36.6760   15.1610   33.7530 N.pl3     1 85S        -0.1486
     12 C2         36.7760   17.3720   33.6280 C.2       1 85S         0.0858
     13 N10        33.6920   16.4790   32.1560 N.pl3     1 85S        -0.3064
     14 N13        33.7900   12.1220   31.6330 N.pl3     1 85S        -0.2074
     15 N14        32.5000   11.8130   31.2890 N.2       1 85S        -0.2266
     16 C16        32.5470   13.5670   32.7280 C.2       1 85S        -0.0510
     17 C17        34.9430   11.3710   31.1000 C.3       1 85S         0.0826
     18 C18        34.8800   11.3070   29.5750 C.3       1 85S         0.0024
     19 C19        35.9060   10.3480   29.0210 C.3       1 85S         0.0505
     20 O20        35.7810    9.0520   29.6140 O.3       1 85S        -0.3795
     21 C21        36.0420    9.1290   31.0190 C.3       1 85S         0.0505
     22 C22        35.0110    9.9800   31.7240 C.3       1 85S         0.0024
     23 C23        38.4810   12.5760   35.7170 C.ar      1 85S        -0.0705
     24 C24        39.6790   12.2840   36.3440 C.ar      1 85S        -0.0770
     25 C25        40.8320   12.9800   36.0180 C.ar      1 85S        -0.0482
     26 C26        40.7920   13.9870   35.0490 C.ar      1 85S         0.0358
     27 C27        39.5750   14.2800   34.4170 C.ar      1 85S        -0.0411
     28 N28        41.9510   14.6860   34.7210 N.pl3     1 85S        -0.3060
     29 C29        41.9920   16.1270   34.9990 C.3       1 85S         0.0470
     30 C30        43.4260   16.6460   34.9370 C.3       1 85S         0.0535
     31 N31        44.0390   16.2900   33.6450 N.am      1 85S        -0.2697
     32 C32        44.0390   14.8340   33.4360 C.3       1 85S         0.0535
     33 C33        42.6140   14.3060   33.4700 C.3       1 85S         0.0470
     34 C34        44.5520   17.1780   32.7370 C.2       1 85S         0.1755
     35 C35        44.4950   18.6410   33.0630 C.3       1 85S         0.0258
     36 O36        45.0440   16.7890   31.6850 O.2       1 85S        -0.3972
     37 H1         36.1694   11.9259   33.7565 H         1 85S         0.0390
     38 H2         30.6856   12.7412   31.9210 H         1 85S         0.0642
     39 H3         37.2996   18.3081   33.8164 H         1 85S         0.1065
     40 H4         33.3282   17.4081   31.9004 H         1 85S         0.1844
     41 H5         33.1406   15.6346   31.9467 H         1 85S         0.1844
     42 H6         32.1988   14.3776   33.3664 H         1 85S         0.0300
     43 H7         35.8606   11.9103   31.3776 H         1 85S         0.0666
     44 H8         35.0707   12.3104   29.1665 H         1 85S         0.0318
     45 H9         33.8770   10.9723   29.2720 H         1 85S         0.0318
     46 H10        36.9123   10.7410   29.2281 H         1 85S         0.0561
     47 H11        35.7634   10.2596   27.9339 H         1 85S         0.0561
     48 H12        37.0376    9.5701   31.1747 H         1 85S         0.0561
     49 H13        36.0199    8.1145   31.4436 H         1 85S         0.0561
     50 H14        34.0259    9.4978   31.6399 H         1 85S         0.0318
     51 H15        35.2842   10.0732   32.7854 H         1 85S         0.0318
     52 H16        37.5865   12.0233   35.9805 H         1 85S         0.0479
     53 H17        39.7161   11.5045   37.0964 H         1 85S         0.0574
     54 H18        41.7660   12.7434   36.5148 H         1 85S         0.0485
     55 H19        39.5331   15.0593   33.6647 H         1 85S         0.0475
     56 H20        41.5834   16.3131   36.0032 H         1 85S         0.0533
     57 H21        41.3833   16.6568   34.2515 H         1 85S         0.0533
     58 H22        44.0110   16.1967   35.7531 H         1 85S         0.0542
     59 H23        43.4218   17.7403   35.0482 H         1 85S         0.0542
     60 H24        44.6257   14.3514   34.2315 H         1 85S         0.0542
     61 H25        44.4891   14.6059   32.4586 H         1 85S         0.0542
     62 H26        42.0530   14.7256   32.6219 H         1 85S         0.0533
     63 H27        42.6333   13.2091   33.3901 H         1 85S         0.0533
     64 H28        44.9434   19.2176   32.2406 H         1 85S         0.0467
     65 H29        45.0532   18.8318   33.9915 H         1 85S         0.0467
     66 H30        43.4467   18.9465   33.1960 H         1 85S         0.0467
@<TRIPOS>BOND
     1    1    2 1  
     2    6    1 2  
     3    1   11 1  
     4    2    3 2  
     5    2   13 1  
     6    3   12 1  
     7    5    4 2  
     8    4    8 1  
     9    4   11 1  
    10    6    5 1  
    11    7    6 1  
    12    7   14 1  
    13   16    7 2  
    14    8   23 ar 
    15    8   27 ar 
    16   11    9 1  
    17    9   12 2  
    18   10   15 2  
    19   10   16 1  
    20   14   15 1  
    21   14   17 1  
    22   17   18 1  
    23   17   22 1  
    24   18   19 1  
    25   19   20 1  
    26   20   21 1  
    27   21   22 1  
    28   23   24 ar 
    29   24   25 ar 
    30   25   26 ar 
    31   26   27 ar 
    32   26   28 1  
    33   28   29 1  
    34   28   33 1  
    35   29   30 1  
    36   30   31 1  
    37   31   32 1  
    38   31   34 am 
    39   32   33 1  
    40   34   35 1  
    41   34   36 2  
    42    5   37 1  
    43   10   38 1  
    44   12   39 1  
    45   13   40 1  
    46   13   41 1  
    47   16   42 1  
    48   17   43 1  
    49   18   44 1  
    50   18   45 1  
    51   19   46 1  
    52   19   47 1  
    53   21   48 1  
    54   21   49 1  
    55   22   50 1  
    56   22   51 1  
    57   23   52 1  
    58   24   53 1  
    59   25   54 1  
    60   27   55 1  
    61   29   56 1  
    62   29   57 1  
    63   30   58 1  
    64   30   59 1  
    65   32   60 1  
    66   32   61 1  
    67   33   62 1  
    68   33   63 1  
    69   35   64 1  
    70   35   65 1  
    71   35   66 1  
@<TRIPOS>SUBSTRUCTURE
     1 85S         1

