### 
### Created by X-TOOL on Wed Jan  1 15:39:34 2020
### 

@<TRIPOS>MOLECULE
5uc1_ligand
   67    71     1     0     0
SMALL
GAST_HUCK


@<TRIPOS>ATOM
      1 O30       -28.2960    4.9500   20.2670 O.2       1 486        -0.4132
      2 C2        -27.5550    5.0210   21.2380 C.2       1 486         0.0822
      3 C1        -27.7760    4.1140   22.4460 C.3       1 486         0.0152
      4 C3        -26.4780    6.0200   21.3130 C.2       1 486        -0.0445
      5 C4        -25.7030    6.1970   22.4110 C.2       1 486        -0.0540
      6 C7        -24.6880    7.3000   22.4250 C.3       1 486        -0.0157
      7 C5        -25.8650    5.3910   23.6420 C.2       1 486        -0.0336
      8 C6        -26.6310    4.0890   23.4670 C.3       1 486        -0.0177
      9 C10       -25.3380    5.7770   24.8310 C.2       1 486        -0.0245
     10 C14       -25.4430    4.8950   26.0850 C.3       1 486         0.0291
     11 C18       -24.2850    3.9060   26.1980 C.ar      1 486        -0.0368
     12 C22       -24.2390    3.0430   27.2920 C.ar      1 486        -0.0683
     13 C23       -23.2140    2.1240   27.4650 C.ar      1 486        -0.0499
     14 C24       -22.1510    2.0270   26.5210 C.ar      1 486         0.0336
     15 N27       -21.1070    1.1090   26.6620 N.pl3     1 486        -0.3183
     16 C29       -19.9900    1.1250   25.7260 C.3       1 486         0.0139
     17 C28       -21.3810   -0.1890   27.2750 C.3       1 486         0.0139
     18 C25       -22.2100    2.8900   25.4110 C.ar      1 486        -0.0499
     19 C26       -23.2420    3.8130   25.2610 C.ar      1 486        -0.0683
     20 C13       -25.6700    5.7150   27.3830 C.3       1 486        -0.0192
     21 C12       -24.8280    6.9930   27.5160 C.3       1 486         0.0178
     22 C19       -23.3260    6.6860   27.6770 C.3       1 486        -0.0552
     23 C17       -25.2340    8.0040   28.6630 C.3       1 486         0.1325
     24 C31       -26.6800    8.0810   28.8330 C.1       1 486        -0.0673
     25 C30       -27.8750    8.1370   28.9420 C.1       1 486        -0.1027
     26 C32       -29.3230    8.2230   29.0600 C.3       1 486        -0.0025
     27 O3        -24.6130    7.6110   29.9020 O.3       1 486        -0.3760
     28 C16       -24.7300    9.3830   28.1280 C.3       1 486        -0.0116
     29 C15       -24.5930    9.2520   26.5740 C.3       1 486        -0.0433
     30 C11       -25.1180    7.8280   26.2600 C.3       1 486        -0.0150
     31 C9        -24.6400    7.1290   24.9820 C.3       1 486         0.0085
     32 C8        -24.8230    8.0340   23.7560 C.3       1 486        -0.0245
     33 H1        -27.9250    3.0882   22.0778 H         1 486         0.0481
     34 H2        -28.6852    4.4535   22.9637 H         1 486         0.0481
     35 H3        -26.2941    6.6488   20.4431 H         1 486         0.0233
     36 H4        -24.8769    7.9943   21.5930 H         1 486         0.0461
     37 H5        -23.6760    6.8798   22.3294 H         1 486         0.0461
     38 H6        -25.9144    3.3170   23.1501 H         1 486         0.0369
     39 H7        -27.0569    3.8153   24.4436 H         1 486         0.0369
     40 H8        -26.3492    4.2859   25.9520 H         1 486         0.0659
     41 H9        -25.0299    3.0916   28.0317 H         1 486         0.0532
     42 H10       -23.2220    1.4709   28.3301 H         1 486         0.0500
     43 H11       -19.2736    0.3354   25.9966 H         1 486         0.0475
     44 H12       -19.4900    2.1039   25.7684 H         1 486         0.0475
     45 H13       -20.3633    0.9477   24.7066 H         1 486         0.0475
     46 H14       -22.2361   -0.0974   27.9608 H         1 486         0.0475
     47 H15       -20.4958   -0.5240   27.8355 H         1 486         0.0475
     48 H16       -21.6174   -0.9226   26.4902 H         1 486         0.0475
     49 H17       -21.4345    2.8351   24.6556 H         1 486         0.0500
     50 H18       -23.2406    4.4745   24.4022 H         1 486         0.0532
     51 H19       -25.4364    5.0651   28.2392 H         1 486         0.0324
     52 H20       -26.7309    6.0033   27.4201 H         1 486         0.0324
     53 H21       -23.0093    5.9832   26.8923 H         1 486         0.0237
     54 H22       -23.1473    6.2371   28.6652 H         1 486         0.0237
     55 H23       -22.7495    7.6186   27.5883 H         1 486         0.0237
     56 H24       -29.6847    7.4251   29.7252 H         1 486         0.0362
     57 H25       -29.7795    8.1066   28.0660 H         1 486         0.0362
     58 H26       -29.5993    9.2022   29.4781 H         1 486         0.0362
     59 H27       -24.9433    6.7598   30.1645 H         1 486         0.2114
     60 H28       -23.7542    9.6267   28.5735 H         1 486         0.0303
     61 H29       -25.4545   10.1722   28.3776 H         1 486         0.0303
     62 H30       -23.5423    9.3563   26.2656 H         1 486         0.0272
     63 H31       -25.2022   10.0127   26.0639 H         1 486         0.0272
     64 H32       -26.2096    7.9130   26.1543 H         1 486         0.0341
     65 H33       -23.5624    6.9348   25.0870 H         1 486         0.0530
     66 H34       -25.8253    8.4846   23.8038 H         1 486         0.0325
     67 H35       -24.0620    8.8274   23.7936 H         1 486         0.0325
@<TRIPOS>BOND
     1    1    2 2  
     2    2    3 1  
     3    2    4 1  
     4    3    8 1  
     5    4    5 2  
     6    5    6 1  
     7    5    7 1  
     8    6   32 1  
     9    7    8 1  
    10    7    9 2  
    11    9   10 1  
    12    9   31 1  
    13   10   11 1  
    14   10   20 1  
    15   11   12 ar 
    16   11   19 ar 
    17   12   13 ar 
    18   13   14 ar 
    19   14   15 1  
    20   14   18 ar 
    21   15   16 1  
    22   15   17 1  
    23   18   19 ar 
    24   20   21 1  
    25   21   22 1  
    26   21   23 1  
    27   21   30 1  
    28   23   24 1  
    29   23   27 1  
    30   23   28 1  
    31   24   25 3  
    32   25   26 1  
    33   28   29 1  
    34   29   30 1  
    35   30   31 1  
    36   31   32 1  
    37    3   33 1  
    38    3   34 1  
    39    4   35 1  
    40    6   36 1  
    41    6   37 1  
    42    8   38 1  
    43    8   39 1  
    44   10   40 1  
    45   12   41 1  
    46   13   42 1  
    47   16   43 1  
    48   16   44 1  
    49   16   45 1  
    50   17   46 1  
    51   17   47 1  
    52   17   48 1  
    53   18   49 1  
    54   19   50 1  
    55   20   51 1  
    56   20   52 1  
    57   22   53 1  
    58   22   54 1  
    59   22   55 1  
    60   26   56 1  
    61   26   57 1  
    62   26   58 1  
    63   27   59 1  
    64   28   60 1  
    65   28   61 1  
    66   29   62 1  
    67   29   63 1  
    68   30   64 1  
    69   31   65 1  
    70   32   66 1  
    71   32   67 1  
@<TRIPOS>SUBSTRUCTURE
     1 486         1

