### 
### Created by X-TOOL on Wed Jan  1 15:39:35 2020
### 

@<TRIPOS>MOLECULE
5uc4_ligand
   40    42     1     0     0
SMALL
GAST_HUCK


@<TRIPOS>ATOM
      1 C23        35.4920   84.1510   -6.5720 C.2       1 83S         0.0368
      2 C17        36.5450   86.0770   -7.4210 C.ar      1 83S        -0.0308
      3 C20        36.9000   85.1300  -10.0190 C.ar      1 83S        -0.0620
      4 C11        33.4980   79.5180   -2.8150 C.2       1 83S         0.1227
      5 C18        37.1500   86.8720   -8.3500 C.ar      1 83S        -0.0620
      6 C19        37.3260   86.3890   -9.6710 C.ar      1 83S        -0.0620
      7 C21        36.2830   84.3100   -9.0490 C.ar      1 83S        -0.0620
      8 C01        31.1210   82.2250   -5.1370 C.3       1 83S        -0.0532
      9 C02        31.6200   81.7070   -3.8500 C.3       1 83S        -0.0132
     10 C03        30.8460   82.3680   -2.5810 C.3       1 83S        -0.0532
     11 C04        33.1170   81.9200   -3.6890 C.ar      1 83S        -0.0262
     12 C05        33.6220   83.1690   -3.9800 C.ar      1 83S        -0.0392
     13 C06        35.0200   83.4270   -3.8090 C.ar      1 83S         0.1066
     14 C07        35.8900   82.4370   -3.3130 C.ar      1 83S         0.1108
     15 O08        37.2160   82.7310   -3.1070 O.3       1 83S        -0.3307
     16 C09        35.3700   81.1820   -3.0030 C.ar      1 83S        -0.0147
     17 C10        33.9970   80.9110   -3.1730 C.ar      1 83S         0.0281
     18 O12        32.6920   78.9140   -3.5910 O.2       1 83S        -0.3643
     19 C13        35.5740   84.7820   -4.1560 C.2       1 83S         0.3028
     20 O14        35.8590   85.6200   -3.2700 O.2       1 83S        -0.3236
     21 N15        35.6850   85.0970   -5.4910 N.am      1 83S        -0.2347
     22 C16        36.2210   86.3240   -5.9900 C.2       1 83S         0.0368
     23 C22        36.1160   84.7730   -7.7700 C.ar      1 83S        -0.0308
     24 H1         34.9931   83.1845   -6.5181 H         1 83S         0.0371
     25 H2         37.0367   84.7685  -11.0318 H         1 83S         0.0617
     26 H3         33.8310   79.0394   -1.8953 H         1 83S         0.1329
     27 H4         37.4931   87.8643   -8.0804 H         1 83S         0.0615
     28 H5         37.8014   87.0192  -10.4139 H         1 83S         0.0617
     29 H6         35.9421   83.3161   -9.3156 H         1 83S         0.0615
     30 H7         30.0375   82.0490   -5.2077 H         1 83S         0.0254
     31 H8         31.6312   81.7079   -5.9630 H         1 83S         0.0254
     32 H9         31.3219   83.3046   -5.2005 H         1 83S         0.0254
     33 H10        31.4288   80.6238   -3.8362 H         1 83S         0.0450
     34 H11        31.2515   81.9519   -1.6469 H         1 83S         0.0254
     35 H12        29.7718   82.1407   -2.6477 H         1 83S         0.0254
     36 H13        30.9913   83.4583   -2.5902 H         1 83S         0.0254
     37 H14        32.9636   83.9527   -4.3368 H         1 83S         0.0594
     38 H15        37.6616   81.9614   -2.7729 H         1 83S         0.2488
     39 H16        36.0276   80.4064   -2.6274 H         1 83S         0.0589
     40 H17        36.3633   87.2507   -5.4360 H         1 83S         0.0371
@<TRIPOS>BOND
     1   21    1 1  
     2    1   23 2  
     3    2    5 ar 
     4    2   22 2  
     5   23    2 ar 
     6    3    6 ar 
     7    7    3 ar 
     8   17    4 1  
     9    4   18 2  
    10    5    6 ar 
    11   23    7 ar 
    12    9    8 1  
    13    9   10 1  
    14   11    9 1  
    15   12   11 ar 
    16   11   17 ar 
    17   13   12 ar 
    18   13   14 ar 
    19   19   13 1  
    20   14   15 1  
    21   14   16 ar 
    22   16   17 ar 
    23   19   20 2  
    24   19   21 am 
    25   21   22 1  
    26    1   24 1  
    27    3   25 1  
    28    4   26 1  
    29    5   27 1  
    30    6   28 1  
    31    7   29 1  
    32    8   30 1  
    33    8   31 1  
    34    8   32 1  
    35    9   33 1  
    36   10   34 1  
    37   10   35 1  
    38   10   36 1  
    39   12   37 1  
    40   15   38 1  
    41   16   39 1  
    42   22   40 1  
@<TRIPOS>SUBSTRUCTURE
     1 83S         1

