### 
### Created by X-TOOL on Wed Jan  1 15:39:35 2020
### 

@<TRIPOS>MOLECULE
5uch_ligand
   42    44     1     0     0
SMALL
GAST_HUCK


@<TRIPOS>ATOM
      1 C23        26.7300  100.5240   60.9250 C.ar      1 871        -0.0308
      2 C17        28.1360   99.8600   59.1330 C.2       1 871         0.0366
      3 C20        28.7280  101.0220   62.8130 C.ar      1 871        -0.0620
      4 C12        19.9000  100.4320   56.5860 C.1       1 871         0.1030
      5 C14        26.4950   99.9800   57.2370 C.2       1 871         0.2945
      6 C11        20.8990  100.5650   55.4480 C.3       1 871         0.1041
      7 C18        28.0380  100.3320   60.5880 C.ar      1 871        -0.0308
      8 C19        29.0810  100.5660   61.5010 C.ar      1 871        -0.0620
      9 C21        27.4220  101.2140   63.1650 C.ar      1 871        -0.0620
     10 N13        19.1650  100.3300   57.4430 N.1       1 871        -0.3011
     11 C01        21.9800   97.3060   58.0670 C.3       1 871        -0.0552
     12 C02        21.9010   97.9100   56.6170 C.3       1 871        -0.0192
     13 C03        22.2810   96.8450   55.5530 C.3       1 871        -0.0552
     14 C04        22.8370   99.1290   56.4970 C.ar      1 871        -0.0406
     15 C05        24.1560   98.9900   56.9160 C.ar      1 871        -0.0514
     16 C06        25.0320  100.1020   56.7930 C.ar      1 871         0.0948
     17 C07        24.5900  101.3400   56.2480 C.ar      1 871         0.0993
     18 O08        25.5720  102.3830   56.1780 O.3       1 871        -0.3331
     19 C09        23.2800  101.4930   55.8370 C.ar      1 871        -0.0290
     20 C10        22.3860  100.3920   55.9430 C.ar      1 871        -0.0181
     21 O15        27.3780   99.8380   56.4300 O.2       1 871        -0.3292
     22 N16        26.8020  100.0020   58.6250 N.am      1 871        -0.2363
     23 C22        26.3860  100.9810   62.2550 C.ar      1 871        -0.0620
     24 C24        25.8420  100.1710   59.7090 C.2       1 871         0.0366
     25 H1         29.0175   99.4991   58.6052 H         1 871         0.0371
     26 H2         29.5099  101.2177   63.5378 H         1 871         0.0617
     27 H3         20.7896  101.5610   54.9942 H         1 871         0.0715
     28 H4         20.6837   99.7931   54.6945 H         1 871         0.0715
     29 H5         30.1164  100.4070   61.2223 H         1 871         0.0615
     30 H6         27.1847  101.5528   64.1670 H         1 871         0.0617
     31 H7         21.3084   96.4379   58.1396 H         1 871         0.0250
     32 H8         21.6744   98.0682   58.7989 H         1 871         0.0250
     33 H9         23.0124   96.9894   58.2766 H         1 871         0.0250
     34 H10        20.8678   98.2385   56.4309 H         1 871         0.0422
     35 H11        22.2183   97.2908   54.5493 H         1 871         0.0250
     36 H12        21.5862   95.9949   55.6206 H         1 871         0.0250
     37 H13        23.3077   96.4948   55.7351 H         1 871         0.0250
     38 H14        24.5088   98.0516   57.3284 H         1 871         0.0563
     39 H15        25.1789  103.1618   55.8021 H         1 871         0.2488
     40 H16        22.9375  102.4411   55.4384 H         1 871         0.0478
     41 H17        25.3516  101.1386   62.5383 H         1 871         0.0615
     42 H18        24.7581  100.0722   59.6715 H         1 871         0.0371
@<TRIPOS>BOND
     1    7    1 ar 
     2    1   23 ar 
     3    1   24 2  
     4    2    7 2  
     5   22    2 1  
     6    8    3 ar 
     7    3    9 ar 
     8    6    4 1  
     9    4   10 3  
    10   16    5 1  
    11    5   21 2  
    12    5   22 am 
    13   20    6 1  
    14    7    8 ar 
    15   23    9 ar 
    16   12   11 1  
    17   12   13 1  
    18   14   12 1  
    19   15   14 ar 
    20   14   20 ar 
    21   15   16 ar 
    22   16   17 ar 
    23   17   18 1  
    24   17   19 ar 
    25   19   20 ar 
    26   22   24 1  
    27    2   25 1  
    28    3   26 1  
    29    6   27 1  
    30    6   28 1  
    31    8   29 1  
    32    9   30 1  
    33   11   31 1  
    34   11   32 1  
    35   11   33 1  
    36   12   34 1  
    37   13   35 1  
    38   13   36 1  
    39   13   37 1  
    40   15   38 1  
    41   18   39 1  
    42   19   40 1  
    43   23   41 1  
    44   24   42 1  
@<TRIPOS>SUBSTRUCTURE
     1 871         1

