### 
### Created by X-TOOL on Wed Jan  1 15:39:36 2020
### 

@<TRIPOS>MOLECULE
5uci_ligand
   43    45     1     0     0
SMALL
GAST_HUCK


@<TRIPOS>ATOM
      1 C24        28.9920   27.8710   28.7850 C.2       1 874         0.0366
      2 C23        28.4650   27.2850   27.6060 C.ar      1 874        -0.0309
      3 C22        28.3450   27.7350   26.2700 C.ar      1 874        -0.0620
      4 C17        28.2550   25.8740   29.3380 C.2       1 874         0.0366
      5 C20        27.3120   25.6290   25.6720 C.ar      1 874        -0.0620
      6 C14        29.2040   27.2010   31.1020 C.2       1 874         0.2898
      7 C10        31.0090   30.9150   32.1080 C.ar      1 874         0.0916
      8 N16        28.8240   26.9930   29.7460 N.am      1 874        -0.2371
      9 C21        27.7750   26.9050   25.3130 C.ar      1 874        -0.0620
     10 C19        27.4190   25.1720   26.9890 C.ar      1 874        -0.0620
     11 C01        34.0530   29.6090   32.6950 C.3       1 874        -0.0558
     12 C02        33.3130   30.0960   31.4480 C.3       1 874        -0.0200
     13 C03        33.8140   29.2960   30.2530 C.3       1 874        -0.0558
     14 C04        31.8000   29.8980   31.6180 C.ar      1 874        -0.0213
     15 C05        31.2320   28.6850   31.2890 C.ar      1 874        -0.0597
     16 C06        29.8650   28.5170   31.4670 C.ar      1 874         0.0846
     17 C07        29.0820   29.5410   31.9580 C.ar      1 874         0.1015
     18 O08        27.7290   29.3120   32.1060 O.3       1 874        -0.3379
     19 C09        29.6470   30.7530   32.2810 C.ar      1 874         0.0408
     20 O11        31.6180   32.1120   32.4310 O.3       1 874        -0.3395
     21 C12        28.7810   31.8760   32.8220 C.3       1 874         0.0741
     22 O13        29.6130   32.9460   33.2100 O.3       1 874        -0.3865
     23 O15        29.0130   26.3400   31.8770 O.2       1 874        -0.3314
     24 C18        28.0040   26.0210   27.9550 C.ar      1 874        -0.0309
     25 H1         29.4469   28.8563   28.8753 H         1 874         0.0371
     26 H2         28.6962   28.7228   25.9945 H         1 874         0.0615
     27 H3         28.0232   25.0037   29.9502 H         1 874         0.0371
     28 H4         26.8659   24.9901   24.9185 H         1 874         0.0617
     29 H5         27.6875   27.2432   24.2868 H         1 874         0.0617
     30 H6         27.0605   24.1865   27.2633 H         1 874         0.0615
     31 H7         35.1347   29.7563   32.5603 H         1 874         0.0250
     32 H8         33.8451   28.5401   32.8507 H         1 874         0.0250
     33 H9         33.7114   30.1804   33.5707 H         1 874         0.0250
     34 H10        33.5220   31.1643   31.2899 H         1 874         0.0413
     35 H11        33.2937   29.6308   29.3435 H         1 874         0.0250
     36 H12        33.6137   28.2270   30.4174 H         1 874         0.0250
     37 H13        34.8964   29.4524   30.1348 H         1 874         0.0250
     38 H14        31.8413   27.8778   30.8987 H         1 874         0.0499
     39 H15        27.3125   30.0934   32.4501 H         1 874         0.2461
     40 H16        31.4835   32.2957   33.3533 H         1 874         0.2450
     41 H17        28.2111   31.5170   33.6916 H         1 874         0.0672
     42 H18        28.0841   32.2143   32.0411 H         1 874         0.0672
     43 H19        30.1047   33.2525   32.4571 H         1 874         0.2118
@<TRIPOS>BOND
     1    1    2 2  
     2    8    1 1  
     3    2    3 ar 
     4   24    2 ar 
     5    3    9 ar 
     6    8    4 1  
     7    4   24 2  
     8    5    9 ar 
     9   10    5 ar 
    10    6    8 am 
    11   16    6 1  
    12    6   23 2  
    13   14    7 ar 
    14    7   19 ar 
    15    7   20 1  
    16   24   10 ar 
    17   12   11 1  
    18   12   13 1  
    19   14   12 1  
    20   15   14 ar 
    21   15   16 ar 
    22   16   17 ar 
    23   17   18 1  
    24   17   19 ar 
    25   19   21 1  
    26   21   22 1  
    27    1   25 1  
    28    3   26 1  
    29    4   27 1  
    30    5   28 1  
    31    9   29 1  
    32   10   30 1  
    33   11   31 1  
    34   11   32 1  
    35   11   33 1  
    36   12   34 1  
    37   13   35 1  
    38   13   36 1  
    39   13   37 1  
    40   15   38 1  
    41   18   39 1  
    42   20   40 1  
    43   21   41 1  
    44   21   42 1  
    45   22   43 1  
@<TRIPOS>SUBSTRUCTURE
     1 874         1

