### 
### Created by X-TOOL on Wed Jan  1 15:39:35 2020
### 

@<TRIPOS>MOLECULE
5ucj_ligand
   40    43     1     0     0
SMALL
GAST_HUCK


@<TRIPOS>ATOM
      1 C01       -20.8920  102.7410    2.4220 C.3       1 KU3        -0.0553
      2 C02       -21.0100  101.9670    1.1230 C.3       1 KU3        -0.0176
      3 C03       -20.7060  102.8790   -0.0800 C.3       1 KU3        -0.0553
      4 C04       -22.3960  101.3840    0.8790 C.ar      1 KU3        -0.0069
      5 C05       -23.5460  102.1250    1.1280 C.ar      1 KU3        -0.0546
      6 C06       -24.7990  101.5650    0.8420 C.ar      1 KU3         0.0915
      7 C07       -24.9230  100.2860    0.3190 C.ar      1 KU3         0.1113
      8 O08       -26.1890   99.7630    0.0590 O.3       1 KU3        -0.3295
      9 C09       -23.7680   99.5420    0.0540 C.ar      1 KU3         0.0584
     10 C10       -22.5200  100.0900    0.3310 C.ar      1 KU3         0.1598
     11 O11       -21.5960   99.1990   -0.0110 O.3       1 KU3        -0.1701
     12 N12       -22.1840   98.0960   -0.4860 N.2       1 KU3        -0.1420
     13 C13       -23.5180   98.1980   -0.4940 C.2       1 KU3         0.0352
     14 C14       -26.0300  102.3880    1.1380 C.2       1 KU3         0.2910
     15 O15       -26.6940  102.9410    0.3280 O.2       1 KU3        -0.3315
     16 N16       -26.3350  102.5420    2.5150 N.am      1 KU3        -0.2375
     17 C17       -25.6530  101.9030    3.6210 C.2       1 KU3         0.0343
     18 C18       -26.5840  102.1390    4.8100 C.ar      1 KU3        -0.0350
     19 C19       -27.6160  102.9600    4.4290 C.ar      1 KU3        -0.0328
     20 C20       -27.4810  103.3260    2.9460 C.2       1 KU3         0.0356
     21 C21       -28.6130  103.3370    5.3460 C.ar      1 KU3        -0.0284
     22 C22       -28.5170  102.8700    6.6440 C.ar      1 KU3         0.1322
     23 F23       -29.4740  103.2310    7.5420 F         1 KU3        -0.1834
     24 C24       -27.4770  102.0390    7.0380 C.ar      1 KU3        -0.0284
     25 C25       -26.4910  101.6670    6.1340 C.ar      1 KU3        -0.0639
     26 H1        -19.8678  103.1286    2.5261 H         1 KU3         0.0250
     27 H2        -21.1197  102.0753    3.2675 H         1 KU3         0.0250
     28 H3        -21.6027  103.5805    2.4145 H         1 KU3         0.0250
     29 H4        -20.2804  101.1443    1.1516 H         1 KU3         0.0420
     30 H5        -20.7967  102.3002   -1.0110 H         1 KU3         0.0250
     31 H6        -19.6830  103.2736    0.0082 H         1 KU3         0.0250
     32 H7        -21.4212  103.7146   -0.0966 H         1 KU3         0.0250
     33 H8        -23.4744  103.1255    1.5391 H         1 KU3         0.0522
     34 H9        -26.1015   98.8851   -0.2934 H         1 KU3         0.2515
     35 H10       -24.2471   97.4609   -0.8272 H         1 KU3         0.0725
     36 H11       -24.6995  101.3771    3.6086 H         1 KU3         0.0364
     37 H12       -28.0944  104.0075    2.3585 H         1 KU3         0.0370
     38 H13       -29.4345  103.9763    5.0437 H         1 KU3         0.0601
     39 H14       -27.4344  101.6778    8.0592 H         1 KU3         0.0604
     40 H15       -25.6697  101.0289    6.4396 H         1 KU3         0.0605
@<TRIPOS>BOND
     1    1    2 1  
     2    2    3 1  
     3    2    4 1  
     4    4    5 ar 
     5    4   10 ar 
     6    5    6 ar 
     7    6    7 ar 
     8    6   14 1  
     9    7    8 1  
    10    7    9 ar 
    11    9   10 ar 
    12    9   13 1  
    13   10   11 1  
    14   11   12 1  
    15   12   13 2  
    16   14   15 2  
    17   14   16 am 
    18   16   17 1  
    19   16   20 1  
    20   17   18 2  
    21   18   19 ar 
    22   18   25 ar 
    23   19   20 2  
    24   19   21 ar 
    25   21   22 ar 
    26   22   23 1  
    27   22   24 ar 
    28   24   25 ar 
    29    1   26 1  
    30    1   27 1  
    31    1   28 1  
    32    2   29 1  
    33    3   30 1  
    34    3   31 1  
    35    3   32 1  
    36    5   33 1  
    37    8   34 1  
    38   13   35 1  
    39   17   36 1  
    40   20   37 1  
    41   21   38 1  
    42   24   39 1  
    43   25   40 1  
@<TRIPOS>SUBSTRUCTURE
     1 KU3         1

