### 
### Created by X-TOOL on Mon Sep 10 21:13:33 2018
### 

@<TRIPOS>MOLECULE
5ue4_ligand
   40    42     1     0     0
SMALL
GAST_HUCK


@<TRIPOS>ATOM
      1 C10        46.4730   63.4260   45.3510 C.2       1 5XQ        -0.0097
      2 C11        47.8630   65.1950   44.1250 C.2       1 5XQ         0.0271
      3 C12        48.9990   67.1340   43.1940 C.2       1 5XQ         0.2057
      4 C13        48.4010   66.0270   45.0810 C.2       1 5XQ        -0.0197
      5 C14        48.3680   65.8890   46.5770 C.3       1 5XQ        -0.0342
      6 C15        49.4360   68.3020   41.0870 C.2       1 5XQ         0.2131
      7 C01        44.3290   58.0270   40.2300 C.3       1 5XQ         0.0570
      8 O01        44.9840   59.0790   40.9320 O.3       1 5XQ        -0.3251
      9 C02        45.8110   59.9700   40.2710 C.ar      1 5XQ         0.1154
     10 C03        46.2110   59.8570   38.9080 C.ar      1 5XQ        -0.0420
     11 C04        47.0560   60.8280   38.3260 C.ar      1 5XQ        -0.0822
     12 C05        47.5140   61.9220   39.0870 C.ar      1 5XQ        -0.0825
     13 C06        47.1290   62.0430   40.4440 C.ar      1 5XQ        -0.0458
     14 C07        46.2780   61.0710   41.0300 C.ar      1 5XQ         0.0980
     15 N01        45.8860   61.1780   42.3290 N.pl3     1 5XQ        -0.2398
     16 C08        46.1940   62.1010   43.3020 C.2       1 5XQ         0.1937
     17 N02        46.9190   63.1890   43.0930 N.2       1 5XQ        -0.3166
     18 C09        47.0990   63.9630   44.2490 C.2       1 5XQ        -0.0102
     19 S01        45.6470   61.9470   44.9610 S.3       1 5XQ         0.0045
     20 S          48.1370   65.7690   42.4900 S.3       1 5XQ         0.0064
     21 N03        49.0520   67.1320   44.5290 N.2       1 5XQ        -0.3108
     22 N          49.5780   68.1540   42.4060 N.am      1 5XQ        -0.1934
     23 C          50.1600   69.4940   40.4660 C.3       1 5XQ         0.0340
     24 O          48.7660   67.5310   40.3930 O.2       1 5XQ        -0.3797
     25 H1         46.4927   63.8724   46.3441 H         1 5XQ         0.0492
     26 H2         48.8986   66.7367   47.0352 H         1 5XQ         0.0374
     27 H3         48.8579   64.9485   46.8694 H         1 5XQ         0.0374
     28 H4         47.3234   65.8809   46.9216 H         1 5XQ         0.0374
     29 H5         43.7238   57.4374   40.9344 H         1 5XQ         0.0573
     30 H6         45.0808   57.3767   39.7590 H         1 5XQ         0.0573
     31 H7         43.6764   58.4544   39.4545 H         1 5XQ         0.0573
     32 H8         45.8643   59.0197   38.3133 H         1 5XQ         0.0507
     33 H9         47.3538   60.7310   37.2882 H         1 5XQ         0.0492
     34 H10        48.1583   62.6676   38.6354 H         1 5XQ         0.0494
     35 H11        47.4847   62.8788   41.0356 H         1 5XQ         0.0504
     36 H12        45.2437   60.4350   42.6393 H         1 5XQ         0.2186
     37 H13        50.1463   68.8267   42.8799 H         1 5XQ         0.2427
     38 H14        49.9715   69.5136   39.3825 H         1 5XQ         0.0474
     39 H15        51.2409   69.4022   40.6485 H         1 5XQ         0.0474
     40 H16        49.7893   70.4251   40.9195 H         1 5XQ         0.0474
@<TRIPOS>BOND
     1    1   18 2  
     2   19    1 1  
     3    2    4 2  
     4   18    2 1  
     5    2   20 1  
     6   20    3 1  
     7    3   21 2  
     8    3   22 1  
     9    4    5 1  
    10    4   21 1  
    11   22    6 am 
    12    6   23 1  
    13    6   24 2  
    14    8    7 1  
    15    9    8 1  
    16    9   10 ar 
    17   14    9 ar 
    18   10   11 ar 
    19   12   11 ar 
    20   13   12 ar 
    21   14   13 ar 
    22   15   14 1  
    23   16   15 1  
    24   16   17 2  
    25   16   19 1  
    26   17   18 1  
    27    1   25 1  
    28    5   26 1  
    29    5   27 1  
    30    5   28 1  
    31    7   29 1  
    32    7   30 1  
    33    7   31 1  
    34   10   32 1  
    35   11   33 1  
    36   12   34 1  
    37   13   35 1  
    38   15   36 1  
    39   22   37 1  
    40   23   38 1  
    41   23   39 1  
    42   23   40 1  
@<TRIPOS>SUBSTRUCTURE
     1 5XQ         1

