### 
### Created by X-TOOL on Mon Sep 10 21:13:32 2018
### 

@<TRIPOS>MOLECULE
5ueu_ligand
   47    50     1     0     0
SMALL
GAST_HUCK


@<TRIPOS>ATOM
      1 CL1        30.0930   10.0650  -14.3610 Cl        1 0S6        -0.0647
      2 C15        28.5170   10.5530  -13.8270 C.ar      1 0S6         0.0470
      3 C16        27.6260   11.1330  -14.7000 C.ar      1 0S6        -0.0406
      4 C17        26.3700   11.5230  -14.2800 C.ar      1 0S6        -0.0437
      5 C13        28.1450   10.3690  -12.5170 C.ar      1 0S6        -0.0406
      6 C14        26.8880   10.7600  -12.1050 C.ar      1 0S6        -0.0437
      7 C12        25.9780   11.3430  -12.9670 C.ar      1 0S6         0.0078
      8 C8         24.6310   11.7380  -12.4830 C.2       1 0S6         0.0263
      9 C5         24.4360   12.1080  -11.0910 C.2       1 0S6         0.0320
     10 C4         25.2280   13.0220  -10.3370 C.2       1 0S6        -0.0580
     11 C7         26.3820   13.7630  -10.8730 C.3       1 0S6        -0.0507
     12 C2         24.7940   13.1620   -9.0320 C.2       1 0S6         0.0043
     13 C6         25.3530   14.0020   -7.9580 C.3       1 0S6        -0.0308
     14 S1         23.4090   12.2010   -8.7100 S.3       1 0S6         0.0060
     15 C3         23.4130   11.5880  -10.3180 C.2       1 0S6         0.1844
     16 N9         22.4280   10.7220  -10.7910 N.pl3     1 0S6        -0.1470
     17 C11        21.7700    9.6440  -10.2550 C.2       1 0S6         0.1468
     18 C28        22.0640    9.0370   -8.9450 C.3       1 0S6         0.0171
     19 N27        20.8330    9.2190  -11.0700 N.2       1 0S6        -0.2795
     20 N21        20.8560   10.0120  -12.1760 N.2       1 0S6        -0.2784
     21 C19        21.8040   10.9060  -12.0000 C.2       1 0S6         0.1631
     22 N10        23.6310   11.6680  -13.3130 N.2       1 0S6        -0.3432
     23 C20        22.2430   11.9740  -12.9230 C.3       1 0S6         0.1007
     24 C22        21.3690   12.0610  -14.1570 C.3       1 0S6         0.0747
     25 C23        21.7210   13.2660  -14.9860 C.2       1 0S6         0.2369
     26 O24        22.4600   14.1770  -14.6390 O.2       1 0S6        -0.3702
     27 O25        21.0790   13.1840  -16.1820 O.3       1 0S6        -0.2800
     28 C26        21.4360   14.2280  -17.0910 C.3       1 0S6         0.0658
     29 H1         27.9145   11.2862  -15.7336 H         1 0S6         0.0639
     30 H2         25.6842   11.9751  -14.9874 H         1 0S6         0.0681
     31 H3         28.8349    9.9195  -11.8120 H         1 0S6         0.0639
     32 H4         26.6042   10.6049  -11.0704 H         1 0S6         0.0681
     33 H5         26.5361   13.4891  -11.9272 H         1 0S6         0.0315
     34 H6         27.2818   13.5098  -10.2931 H         1 0S6         0.0315
     35 H7         26.1903   14.8436  -10.7992 H         1 0S6         0.0315
     36 H8         24.7579   13.8704   -7.0423 H         1 0S6         0.0365
     37 H9         25.3240   15.0577   -8.2655 H         1 0S6         0.0365
     38 H10        26.3943   13.7049   -7.7644 H         1 0S6         0.0365
     39 H11        21.3835    8.1902   -8.7723 H         1 0S6         0.0469
     40 H12        21.9236    9.7876   -8.1533 H         1 0S6         0.0469
     41 H13        23.1043    8.6799   -8.9315 H         1 0S6         0.0469
     42 H14        22.2099   12.9408  -12.3994 H         1 0S6         0.0655
     43 H15        20.3160   12.1333  -13.8471 H         1 0S6         0.0556
     44 H16        21.5115   11.1541  -14.7629 H         1 0S6         0.0556
     45 H17        20.8819   14.0997  -18.0326 H         1 0S6         0.0577
     46 H18        22.5165   14.1850  -17.2927 H         1 0S6         0.0577
     47 H19        21.1842   15.2025  -16.6473 H         1 0S6         0.0577
@<TRIPOS>BOND
     1    1    2 1  
     2    2    3 ar 
     3    2    5 ar 
     4    3    4 ar 
     5    4    7 ar 
     6    5    6 ar 
     7    6    7 ar 
     8    7    8 1  
     9    8    9 1  
    10    8   22 2  
    11    9   10 1  
    12    9   15 2  
    13   10   11 1  
    14   10   12 2  
    15   12   13 1  
    16   12   14 1  
    17   14   15 1  
    18   15   16 1  
    19   16   17 1  
    20   16   21 1  
    21   17   18 1  
    22   17   19 2  
    23   19   20 1  
    24   20   21 2  
    25   21   23 1  
    26   22   23 1  
    27   23   24 1  
    28   24   25 1  
    29   25   26 2  
    30   25   27 1  
    31   27   28 1  
    32    3   29 1  
    33    4   30 1  
    34    5   31 1  
    35    6   32 1  
    36   11   33 1  
    37   11   34 1  
    38   11   35 1  
    39   13   36 1  
    40   13   37 1  
    41   13   38 1  
    42   18   39 1  
    43   18   40 1  
    44   18   41 1  
    45   23   42 1  
    46   24   43 1  
    47   24   44 1  
    48   28   45 1  
    49   28   46 1  
    50   28   47 1  
@<TRIPOS>SUBSTRUCTURE
     1 0S6         1

