### 
### Created by X-TOOL on Mon Sep 10 21:13:34 2018
### 

@<TRIPOS>MOLECULE
5uex_ligand
   58    61     1     0     0
SMALL
GAST_HUCK


@<TRIPOS>ATOM
      1 C4         13.4910   13.6830   24.2620 C.ar      1 89D        -0.0386
      2 C5         13.0870   11.3290   24.2570 C.ar      1 89D        -0.0097
      3 C6         12.0450   12.1130   18.7650 C.ar      1 89D        -0.0135
      4 C7         13.4920   13.7250   22.8780 C.ar      1 89D        -0.0129
      5 C8          9.6640   11.8460   18.7590 C.ar      1 89D         0.0441
      6 C10        13.2890   12.5380   22.1840 C.ar      1 89D         0.1424
      7 C13        15.1480   13.3900   17.0330 C.2       1 89D         0.0059
      8 C15        13.2680   12.1870   17.9760 C.2       1 89D         0.0378
      9 C17        15.6020   12.1270   16.4070 C.2       1 89D         0.1852
     10 C20        13.7530   16.1740   20.0570 C.3       1 89D        -0.0228
     11 C21        14.4820   15.1440   19.2210 C.3       1 89D         0.0737
     12 C22         8.1390    8.9960   16.7620 C.3       1 89D        -0.0435
     13 C24         8.6850   10.1270   15.9230 C.3       1 89D         0.0867
     14 C1          9.6600   12.0130   20.1250 C.ar      1 89D        -0.0595
     15 C2         10.8360   12.2180   20.8130 C.ar      1 89D        -0.0500
     16 C3         10.8650   11.8950   18.0800 C.ar      1 89D        -0.0560
     17 C9         12.0480   12.2630   20.1420 C.ar      1 89D         0.0952
     18 C11        13.2710   12.5070   24.9400 C.ar      1 89D         0.1126
     19 C12        13.1100   11.3550   22.8810 C.ar      1 89D         0.1556
     20 C14        13.6720   11.0640   17.3850 C.2       1 89D         0.0792
     21 C16        14.0380   13.3810   17.7830 C.2       1 89D         0.0872
     22 C18        13.7820   15.0690   22.2680 C.3       1 89D        -0.0222
     23 C19        12.8960   15.5460   21.1390 C.3       1 89D        -0.0424
     24 C23        15.1910    9.7730   16.0050 C.3       1 89D         0.0597
     25 N25        14.8030   11.0190   16.6170 N.am      1 89D        -0.2118
     26 N26         8.3730   11.6210   18.1590 N.am      1 89D        -0.1994
     27 O27        16.6280   12.1360   15.7470 O.2       1 89D        -0.4293
     28 O28         6.6460   11.6820   16.2620 O.2       1 89D        -0.1503
     29 O29         8.8830   12.7380   15.8410 O.2       1 89D        -0.1503
     30 O30        13.2800   12.4880   20.7900 O.3       1 89D        -0.2767
     31 O31        13.5160   14.5060   18.3970 O.3       1 89D        -0.3151
     32 F32        13.2620   12.5140   26.2810 F         1 89D        -0.1953
     33 F33        12.9100   10.2060   22.2260 F         1 89D        -0.1925
     34 S34         8.0810   11.7050   16.4670 S.o2      1 89D         0.0578
     35 H1         13.6670   14.5945   24.8217 H         1 89D         0.0482
     36 H2         12.9271   10.3990   24.7905 H         1 89D         0.0507
     37 H3         15.7081   14.3123   16.8859 H         1 89D         0.0225
     38 H4         13.1059   16.7698   19.3966 H         1 89D         0.0293
     39 H5         14.4957   16.8312   20.5329 H         1 89D         0.0293
     40 H6         14.9667   14.4038   19.8745 H         1 89D         0.0621
     41 H7         15.2426   15.6360   18.5970 H         1 89D         0.0621
     42 H8          8.5372    8.0397   16.3920 H         1 89D         0.0246
     43 H9          7.0411    8.9865   16.6949 H         1 89D         0.0246
     44 H10         8.4411    9.1380   17.8101 H         1 89D         0.0246
     45 H11         8.3828    9.9719   14.8768 H         1 89D         0.0520
     46 H12         9.7828   10.1233   15.9920 H         1 89D         0.0520
     47 H13         8.7210   11.9829   20.6658 H         1 89D         0.0405
     48 H14        10.8132   12.3453   21.8893 H         1 89D         0.0489
     49 H15        10.8824   11.7618   17.0043 H         1 89D         0.0381
     50 H16        13.0854   10.1560   17.5169 H         1 89D         0.1268
     51 H17        14.8121   15.0376   21.8835 H         1 89D         0.0403
     52 H18        13.7139   15.8148   23.0737 H         1 89D         0.0403
     53 H19        12.3436   14.6919   20.7201 H         1 89D         0.0286
     54 H20        12.1834   16.2915   21.5217 H         1 89D         0.0286
     55 H21        16.1164    9.9201   15.4287 H         1 89D         0.0610
     56 H22        14.3909    9.4299   15.3326 H         1 89D         0.0610
     57 H23        15.3619    9.0181   16.7866 H         1 89D         0.0610
     58 H24         7.6042   11.4039   18.7605 H         1 89D         0.2116
@<TRIPOS>BOND
     1    4    1 ar 
     2    1   18 ar 
     3    2   18 ar 
     4   19    2 ar 
     5    3    8 1  
     6   16    3 ar 
     7    3   17 ar 
     8    6    4 ar 
     9    4   22 1  
    10    5   14 ar 
    11    5   16 ar 
    12   26    5 1  
    13    6   19 ar 
    14   30    6 1  
    15    7    9 1  
    16   21    7 2  
    17    8   20 2  
    18    8   21 1  
    19   25    9 am 
    20    9   27 2  
    21   11   10 1  
    22   10   23 1  
    23   31   11 1  
    24   13   12 1  
    25   34   13 1  
    26   14   15 ar 
    27   15   17 ar 
    28   17   30 1  
    29   18   32 1  
    30   19   33 1  
    31   20   25 1  
    32   21   31 1  
    33   22   23 1  
    34   25   24 1  
    35   26   34 am 
    36   34   28 2  
    37   34   29 2  
    38    1   35 1  
    39    2   36 1  
    40    7   37 1  
    41   10   38 1  
    42   10   39 1  
    43   11   40 1  
    44   11   41 1  
    45   12   42 1  
    46   12   43 1  
    47   12   44 1  
    48   13   45 1  
    49   13   46 1  
    50   14   47 1  
    51   15   48 1  
    52   16   49 1  
    53   20   50 1  
    54   22   51 1  
    55   22   52 1  
    56   23   53 1  
    57   23   54 1  
    58   24   55 1  
    59   24   56 1  
    60   24   57 1  
    61   26   58 1  
@<TRIPOS>SUBSTRUCTURE
     1 89D         1

