### 
### Created by X-TOOL on Mon Sep 10 21:13:34 2018
### 

@<TRIPOS>MOLECULE
5uey_ligand
   54    56     1     0     0
SMALL
GAST_HUCK


@<TRIPOS>ATOM
      1 C1          9.9870   11.2120   20.3230 C.ar      1 88M        -0.0593
      2 C2         11.1690   11.1520   21.0280 C.ar      1 88M        -0.0496
      3 C3         13.3040   12.7930   22.8720 C.ar      1 88M        -0.0325
      4 C4         13.3830   13.0410   24.2270 C.ar      1 88M        -0.0404
      5 C5         11.1970   11.6850   18.3230 C.ar      1 88M        -0.0558
      6 C6         14.1530   10.8000   24.6030 C.ar      1 88M        -0.0027
      7 C7         12.3850   11.6130   19.0230 C.ar      1 88M        -0.0131
      8 C8          9.9930   11.4750   18.9690 C.ar      1 88M         0.0442
      9 C9         12.3730   11.3480   20.3790 C.ar      1 88M         0.0970
     10 C10        13.6470   11.5470   22.3880 C.ar      1 88M         0.1409
     11 C11        13.8060   12.0450   25.0820 C.ar      1 88M         0.1189
     12 C12        14.0740   10.5590   23.2480 C.ar      1 88M         0.1619
     13 C13        15.5900   12.9400   17.4690 C.2       1 88M         0.0059
     14 C14        13.9920   10.6770   17.5850 C.2       1 88M         0.0793
     15 C15        13.6300   11.7570   18.2780 C.2       1 88M         0.0379
     16 C16        14.4720   12.9210   18.2120 C.2       1 88M         0.0872
     17 C17        15.9830   11.7290   16.7110 C.2       1 88M         0.1853
     18 C18        14.8670   15.6160   20.5010 C.3       1 88M        -0.0365
     19 C19         8.4360    8.4010   17.6750 C.3       1 88M        -0.0435
     20 C20        15.4320    9.4270   16.1090 C.3       1 88M         0.0597
     21 C21        14.9450   14.1840   20.0330 C.3       1 88M         0.0708
     22 C22         9.2030    9.3180   16.7520 C.3       1 88M         0.0867
     23 N23        15.1320   10.6420   16.8250 N.am      1 88M        -0.2118
     24 N24         8.7160   11.5450   18.2950 N.am      1 88M        -0.1994
     25 O25        17.0110   11.7650   16.0480 O.2       1 88M        -0.4292
     26 O26         7.0530   10.7840   16.4870 O.2       1 88M        -0.1503
     27 O27         9.2450   11.7450   15.7630 O.2       1 88M        -0.1503
     28 O28        13.5990   11.2580   21.0320 O.3       1 88M        -0.2729
     29 O29        14.0470   14.0190   18.9380 O.3       1 88M        -0.3154
     30 F30        13.8810   12.2890   26.3990 F         1 88M        -0.1936
     31 F31        14.4100    9.3510   22.7680 F         1 88M        -0.1903
     32 S32         8.4800   10.9440   16.6980 S.o2      1 88M         0.0579
     33 H1          9.0456   11.0514   20.8359 H         1 88M         0.0405
     34 H2         11.1545   10.9508   22.0931 H         1 88M         0.0491
     35 H3         12.9750   13.5711   22.1927 H         1 88M         0.0528
     36 H4         13.1135   14.0154   24.6182 H         1 88M         0.0543
     37 H5         11.2085   11.9072   17.2621 H         1 88M         0.0382
     38 H6         14.4831   10.0219   25.2817 H         1 88M         0.0562
     39 H7         16.2034   13.8387   17.4237 H         1 88M         0.0225
     40 H8         13.3595    9.7914   17.6242 H         1 88M         0.1268
     41 H9         15.5543   15.7631   21.3472 H         1 88M         0.0256
     42 H10        13.8389   15.8420   20.8202 H         1 88M         0.0256
     43 H11        15.1510   16.2871   19.6770 H         1 88M         0.0256
     44 H12         8.9102    7.4085   17.6830 H         1 88M         0.0246
     45 H13         7.3985    8.3088   17.3213 H         1 88M         0.0246
     46 H14         8.4407    8.8177   18.6930 H         1 88M         0.0246
     47 H15        14.6540    8.6775   16.3165 H         1 88M         0.0610
     48 H16        16.4091    9.0410   16.4349 H         1 88M         0.0610
     49 H17        15.4616    9.6354   15.0293 H         1 88M         0.0610
     50 H18        14.6588   13.5090   20.8530 H         1 88M         0.0619
     51 H19        15.9710   13.9541   19.7099 H         1 88M         0.0619
     52 H20         9.1977    8.8908   15.7384 H         1 88M         0.0520
     53 H21        10.2399    9.3997   17.1101 H         1 88M         0.0520
     54 H22         7.9409   11.9576   18.7736 H         1 88M         0.2116
@<TRIPOS>BOND
     1    1    2 ar 
     2    8    1 ar 
     3    2    9 ar 
     4    3    4 ar 
     5   10    3 ar 
     6    4   11 ar 
     7    5    7 ar 
     8    8    5 ar 
     9    6   11 ar 
    10   12    6 ar 
    11    7    9 ar 
    12    7   15 1  
    13   24    8 1  
    14    9   28 1  
    15   10   12 ar 
    16   28   10 1  
    17   11   30 1  
    18   12   31 1  
    19   16   13 2  
    20   13   17 1  
    21   15   14 2  
    22   14   23 1  
    23   15   16 1  
    24   16   29 1  
    25   23   17 am 
    26   17   25 2  
    27   21   18 1  
    28   22   19 1  
    29   23   20 1  
    30   29   21 1  
    31   32   22 1  
    32   24   32 am 
    33   32   26 2  
    34   32   27 2  
    35    1   33 1  
    36    2   34 1  
    37    3   35 1  
    38    4   36 1  
    39    5   37 1  
    40    6   38 1  
    41   13   39 1  
    42   14   40 1  
    43   18   41 1  
    44   18   42 1  
    45   18   43 1  
    46   19   44 1  
    47   19   45 1  
    48   19   46 1  
    49   20   47 1  
    50   20   48 1  
    51   20   49 1  
    52   21   50 1  
    53   21   51 1  
    54   22   52 1  
    55   22   53 1  
    56   24   54 1  
@<TRIPOS>SUBSTRUCTURE
     1 88M         1

