### 
### Created by X-TOOL on Mon Sep 10 21:13:32 2018
### 

@<TRIPOS>MOLECULE
5uez_ligand
   39    41     1     0     0
SMALL
GAST_HUCK


@<TRIPOS>ATOM
      1 C4         13.3430   12.4340   -7.2470 C.ar      1 89G        -0.0696
      2 C5         17.3580   12.3150   -3.3740 C.ar      1 89G        -0.0716
      3 C6         16.0130   12.5990   -1.4030 C.ar      1 89G        -0.0627
      4 C7         13.2940    9.9820   -5.9760 C.ar      1 89G        -0.0283
      5 C8         13.6970   12.3510   -5.9160 C.ar      1 89G        -0.0283
      6 C10        14.9640   12.0020   -2.0720 C.ar      1 89G         0.0333
      7 C13        11.4850   12.6860   -0.8930 C.2       1 89G         0.0271
      8 C15        12.6270   12.8060   -1.6080 C.2       1 89G         0.1226
      9 C17        12.2900    9.4930    0.9620 C.3       1 89G         0.0725
     10 C1         12.9510   11.3000   -7.9310 C.ar      1 89G        -0.0722
     11 C2         17.2140   12.7670   -2.0750 C.ar      1 89G        -0.0739
     12 C3         12.9130   10.0740   -7.2970 C.ar      1 89G        -0.0696
     13 C9         16.3140   11.7000   -4.0370 C.ar      1 89G        -0.0292
     14 C11        13.6890   11.1160   -5.2940 C.ar      1 89G         0.1167
     15 C12        15.1030   11.5590   -3.3740 C.ar      1 89G         0.1248
     16 C14        13.6810   11.8090   -1.3530 C.2       1 89G         0.1226
     17 C16        11.3320   11.5290    0.0410 C.2       1 89G         0.2072
     18 C18        11.7330   14.5120   -2.8750 C.3       1 89G         0.0635
     19 N19        13.5680   10.7990   -0.5550 N.2       1 89G        -0.1477
     20 N20        12.3860   10.6510    0.0950 N.am      1 89G        -0.1486
     21 O21        10.2940   11.3900    0.6930 O.2       1 89G        -0.4235
     22 O22        14.0020   10.9420   -3.9550 O.3       1 89G        -0.2567
     23 O23        12.9280   13.8120   -2.5250 O.3       1 89G        -0.3111
     24 H1         13.3726   13.3904   -7.7564 H         1 89G         0.0590
     25 H2         18.3072   12.4457   -3.8810 H         1 89G         0.0573
     26 H3         15.9007   12.9288   -0.3765 H         1 89G         0.0573
     27 H4         13.2837    9.0217   -5.4733 H         1 89G         0.0553
     28 H5         13.9775   13.2417   -5.3655 H         1 89G         0.0553
     29 H6         10.6887   13.4216   -0.9963 H         1 89G         0.0382
     30 H7         13.2133    8.9000    0.8853 H         1 89G         0.0619
     31 H8         11.4318    8.8764    0.6566 H         1 89G         0.0619
     32 H9         12.1522    9.8239    2.0019 H         1 89G         0.0619
     33 H10        12.6705   11.3732   -8.9755 H         1 89G         0.0528
     34 H11        18.0450   13.2555   -1.5793 H         1 89G         0.0525
     35 H12        12.5861    9.1910   -7.8341 H         1 89G         0.0590
     36 H13        16.4376   11.3363   -5.0507 H         1 89G         0.0545
     37 H14        11.9715   15.3055   -3.5985 H         1 89G         0.0586
     38 H15        11.2924   14.9596   -1.9720 H         1 89G         0.0586
     39 H16        11.0150   13.8100   -3.3241 H         1 89G         0.0586
@<TRIPOS>BOND
     1    5    1 ar 
     2    1   10 ar 
     3   11    2 ar 
     4   13    2 ar 
     5    6    3 ar 
     6    3   11 ar 
     7    4   12 ar 
     8   14    4 ar 
     9   14    5 ar 
    10    6   15 ar 
    11   16    6 1  
    12    7    8 2  
    13   17    7 1  
    14    8   16 1  
    15    8   23 1  
    16   20    9 1  
    17   12   10 ar 
    18   15   13 ar 
    19   22   14 1  
    20   15   22 1  
    21   16   19 2  
    22   17   20 am 
    23   17   21 2  
    24   23   18 1  
    25   19   20 1  
    26    1   24 1  
    27    2   25 1  
    28    3   26 1  
    29    4   27 1  
    30    5   28 1  
    31    7   29 1  
    32    9   30 1  
    33    9   31 1  
    34    9   32 1  
    35   10   33 1  
    36   11   34 1  
    37   12   35 1  
    38   13   36 1  
    39   18   37 1  
    40   18   38 1  
    41   18   39 1  
@<TRIPOS>SUBSTRUCTURE
     1 89G         1

