### 
### Created by X-TOOL on Mon Sep 10 21:13:31 2018
### 

@<TRIPOS>MOLECULE
5uf0_ligand
   29    30     1     0     0
SMALL
GAST_HUCK


@<TRIPOS>ATOM
      1 C4        -15.6340   11.3610    2.6740 C.ar      1 89J        -0.0564
      2 C5        -15.7860   13.2590    1.1940 C.ar      1 89J        -0.0564
      3 C6        -15.0710   12.1980    1.7310 C.ar      1 89J        -0.0032
      4 C7        -11.4610   12.7050    0.8410 C.2       1 89J         0.0130
      5 C8        -13.7090   11.9320    1.2410 C.2       1 89J         0.1166
      6 C10       -11.2990   11.5000    0.0010 C.2       1 89J         0.2037
      7 C1        -17.6410   12.6710    2.5780 C.ar      1 89J        -0.0644
      8 C2        -16.9280   11.6090    3.1060 C.ar      1 89J        -0.0642
      9 C3        -17.0800   13.4980    1.6250 C.ar      1 89J        -0.0642
     10 C9        -12.6230   12.9040    1.4910 C.2       1 89J         0.0694
     11 C11       -12.2470    9.4050   -0.7680 C.3       1 89J         0.0735
     12 C12       -11.8290   14.8630    2.7090 C.3       1 89J         0.0161
     13 N13       -13.5770   10.8770    0.5180 N.2       1 89J        -0.1417
     14 N14       -12.3580   10.6370   -0.0210 N.am      1 89J        -0.1462
     15 N15       -12.8920   13.9650    2.3320 N.pl3     1 89J        -0.3173
     16 O16       -10.2180   11.2950   -0.5560 O.2       1 89J        -0.4252
     17 H1        -15.0728   10.5227    3.0706 H         1 89J         0.0599
     18 H2        -15.3347   13.8964    0.4423 H         1 89J         0.0599
     19 H3        -10.6488   13.4246    0.9333 H         1 89J         0.0324
     20 H4        -18.6538   12.8562    2.9172 H         1 89J         0.0595
     21 H5        -17.3808   10.9715    3.8568 H         1 89J         0.0610
     22 H6        -17.6476   14.3270    1.2179 H         1 89J         0.0610
     23 H7        -13.1838    8.8357   -0.6775 H         1 89J         0.0621
     24 H8        -11.4147    8.8073   -0.3680 H         1 89J         0.0621
     25 H9        -12.0581    9.6341   -1.8272 H         1 89J         0.0621
     26 H10       -12.2261   15.6410    3.3776 H         1 89J         0.0484
     27 H11       -11.4094   15.3334    1.8076 H         1 89J         0.0484
     28 H12       -11.0405   14.2998    3.2296 H         1 89J         0.0484
     29 H13       -13.8468   14.1143    2.6882 H         1 89J         0.1816
@<TRIPOS>BOND
     1    3    1 ar 
     2    1    8 ar 
     3    3    2 ar 
     4    2    9 ar 
     5    5    3 1  
     6    4    6 1  
     7   10    4 2  
     8    5   10 1  
     9    5   13 2  
    10    6   14 am 
    11    6   16 2  
    12    8    7 ar 
    13    7    9 ar 
    14   10   15 1  
    15   14   11 1  
    16   15   12 1  
    17   13   14 1  
    18    1   17 1  
    19    2   18 1  
    20    4   19 1  
    21    7   20 1  
    22    8   21 1  
    23    9   22 1  
    24   11   23 1  
    25   11   24 1  
    26   11   25 1  
    27   12   26 1  
    28   12   27 1  
    29   12   28 1  
    30   15   29 1  
@<TRIPOS>SUBSTRUCTURE
     1 89J         1

