### 
### Created by X-TOOL on Mon Sep 10 21:13:33 2018
### 

@<TRIPOS>MOLECULE
5ufc_ligand
   71    73     1     0     0
SMALL
GAST_HUCK


@<TRIPOS>ATOM
      1 OAZ        32.5740   13.4550  -24.2500 O.3       1 DR2        -0.3867
      2 CBV        32.8650   12.0590  -24.6130 C.3       1 DR2         0.1114
      3 CBS        33.3280   11.3090  -23.4010 C.3       1 DR2         0.1208
      4 NAX        32.2670   11.2550  -22.3700 N.am      1 DR2        -0.2766
      5 CBF        32.5630   11.6430  -21.0010 C.2       1 DR2         0.1733
      6 CAB        31.4230   11.5730  -19.9460 C.3       1 DR2         0.0257
      7 OAD        33.6840   12.0320  -20.6910 O.2       1 DR2        -0.3974
      8 CBI        33.7310    9.8930  -23.7370 C.3       1 DR2         0.1823
      9 OAH        34.2630    9.2430  -22.6300 O.3       1 DR2        -0.3651
     10 OBA        34.7970    9.9460  -24.7400 O.3       1 DR2        -0.3409
     11 CBK        34.3160   10.5870  -25.9670 C.3       1 DR2         0.1133
     12 CAV        35.4690   10.5370  -26.9210 C.3       1 DR2         0.0730
     13 OAG        35.6880    9.1560  -27.1980 O.3       1 DR2        -0.3924
     14 CBU        33.8650   12.0180  -25.7090 C.3       1 DR2         0.1181
     15 O1'        33.2230   12.5030  -26.9300 O.3       1 DR2        -0.3401
     16 C1'        34.0370   13.4580  -27.5860 C.3       1 DR2         0.1888
     17 O5'        33.9360   14.7160  -26.8510 O.3       1 DR2        -0.3405
     18 C5'        34.7080   15.8080  -27.4680 C.3       1 DR2         0.1130
     19 C6'        34.4910   17.0330  -26.6470 C.3       1 DR2         0.0730
     20 O6'        35.0520   16.8780  -25.3850 O.3       1 DR2        -0.3924
     21 C4'        34.2540   16.0280  -28.8940 C.3       1 DR2         0.1119
     22 O4'        32.8840   16.5200  -28.8690 O.3       1 DR2        -0.3865
     23 C3'        34.3120   14.7540  -29.6570 C.3       1 DR2         0.1144
     24 O3'        33.9140   14.9180  -31.0330 O.3       1 DR2        -0.3864
     25 C2'        33.5650   13.6360  -29.0130 C.3       1 DR2         0.1406
     26 O2'        33.8270   12.4130  -29.7410 O.3       1 DR2        -0.3378
     27 CBQ        32.6920   11.9790  -30.4530 C.3       1 DR2         0.1884
     28 OBB        32.0770   10.9050  -29.6880 O.3       1 DR2        -0.3431
     29 CBH        32.9580    9.7310  -29.5120 C.3       1 DR2         0.0873
     30 CAC        32.1590    8.6780  -28.8000 C.3       1 DR2        -0.0361
     31 CBL        33.4090    9.2040  -30.8500 C.3       1 DR2         0.1095
     32 OAI        32.2420    8.7210  -31.5420 O.3       1 DR2        -0.3866
     33 CBN        34.0580   10.2900  -31.6120 C.3       1 DR2         0.1140
     34 OAK        34.5110    9.8190  -32.8850 O.3       1 DR2        -0.3864
     35 CBO        33.1320   11.4690  -31.7910 C.3       1 DR2         0.1341
     36 OAL        33.8230   12.5430  -32.4670 O.3       1 DR2        -0.3841
     37 H1         33.3609   13.8627  -23.9079 H         1 DR2         0.2100
     38 H2         31.9388   11.5893  -24.9757 H         1 DR2         0.0645
     39 H3         34.2004   11.8348  -22.9858 H         1 DR2         0.0633
     40 H4         31.3464   10.9515  -22.6156 H         1 DR2         0.1857
     41 H5         31.8082   11.8971  -18.9679 H         1 DR2         0.0467
     42 H6         31.0557   10.5388  -19.8710 H         1 DR2         0.0467
     43 H7         30.5986   12.2336  -20.2525 H         1 DR2         0.0467
     44 H8         32.8615    9.3388  -24.1203 H         1 DR2         0.0932
     45 H9         35.0106    9.7317  -22.3062 H         1 DR2         0.2126
     46 H10        33.4675   10.0195  -26.3769 H         1 DR2         0.0647
     47 H11        36.3645   10.9818  -26.4625 H         1 DR2         0.0584
     48 H12        35.2235   11.0785  -27.8465 H         1 DR2         0.0584
     49 H13        36.4147    9.0670  -27.8033 H         1 DR2         0.2095
     50 H14        34.7303   12.6464  -25.4515 H         1 DR2         0.0650
     51 H15        35.0825   13.1160  -27.5899 H         1 DR2         0.0938
     52 H16        35.7774   15.5506  -27.4684 H         1 DR2         0.0647
     53 H17        33.4108   17.2129  -26.5434 H         1 DR2         0.0584
     54 H18        34.9595   17.8927  -27.1484 H         1 DR2         0.0584
     55 H19        34.6475   16.1374  -24.9486 H         1 DR2         0.2095
     56 H20        34.9057   16.7709  -29.3770 H         1 DR2         0.0647
     57 H21        32.5839   16.6633  -29.7589 H         1 DR2         0.2100
     58 H22        35.3701   14.4535  -29.6692 H         1 DR2         0.0648
     59 H23        33.9669   14.0807  -31.4787 H         1 DR2         0.2100
     60 H24        32.4872   13.8556  -29.0240 H         1 DR2         0.0675
     61 H25        31.9802   12.8075  -30.5829 H         1 DR2         0.0938
     62 H26        33.8373   10.0087  -28.9123 H         1 DR2         0.0621
     63 H27        32.7822    7.7842  -28.6494 H         1 DR2         0.0255
     64 H28        31.2791    8.4138  -29.4049 H         1 DR2         0.0255
     65 H29        31.8304    9.0645  -27.8240 H         1 DR2         0.0255
     66 H30        34.1241    8.3803  -30.7084 H         1 DR2         0.0646
     67 H31        31.6253    9.4345  -31.6568 H         1 DR2         0.2100
     68 H32        34.9343   10.6285  -31.0397 H         1 DR2         0.0648
     69 H33        34.9242   10.5326  -33.3567 H         1 DR2         0.2100
     70 H34        32.2559   11.1598  -32.3799 H         1 DR2         0.0671
     71 H35        34.1156   12.2427  -33.3195 H         1 DR2         0.2101
@<TRIPOS>BOND
     1    1    2 1  
     2    2    3 1  
     3    2   14 1  
     4    3    4 1  
     5    3    8 1  
     6    4    5 am 
     7    5    6 1  
     8    5    7 2  
     9    8    9 1  
    10    8   10 1  
    11   10   11 1  
    12   11   12 1  
    13   11   14 1  
    14   12   13 1  
    15   14   15 1  
    16   15   16 1  
    17   16   17 1  
    18   16   25 1  
    19   17   18 1  
    20   18   19 1  
    21   18   21 1  
    22   19   20 1  
    23   21   22 1  
    24   21   23 1  
    25   23   24 1  
    26   23   25 1  
    27   25   26 1  
    28   26   27 1  
    29   27   28 1  
    30   27   35 1  
    31   28   29 1  
    32   29   30 1  
    33   29   31 1  
    34   31   32 1  
    35   31   33 1  
    36   33   34 1  
    37   33   35 1  
    38   35   36 1  
    39    1   37 1  
    40    2   38 1  
    41    3   39 1  
    42    4   40 1  
    43    6   41 1  
    44    6   42 1  
    45    6   43 1  
    46    8   44 1  
    47    9   45 1  
    48   11   46 1  
    49   12   47 1  
    50   12   48 1  
    51   13   49 1  
    52   14   50 1  
    53   16   51 1  
    54   18   52 1  
    55   19   53 1  
    56   19   54 1  
    57   20   55 1  
    58   21   56 1  
    59   22   57 1  
    60   23   58 1  
    61   24   59 1  
    62   25   60 1  
    63   27   61 1  
    64   29   62 1  
    65   30   63 1  
    66   30   64 1  
    67   30   65 1  
    68   31   66 1  
    69   32   67 1  
    70   33   68 1  
    71   34   69 1  
    72   35   70 1  
    73   36   71 1  
@<TRIPOS>SUBSTRUCTURE
     1 DR2         1

