### 
### Created by X-TOOL on Mon Sep 10 21:13:34 2018
### 

@<TRIPOS>MOLECULE
5uff_ligand
   65    67     1     0     0
SMALL
GAST_HUCK


@<TRIPOS>ATOM
      1 CA1         9.4580    6.6640   25.3960 C.3       1 8B7         0.1884
      2 OA1         8.1400    6.9700   25.7010 O.3       1 8B7        -0.3378
      3 CA2        10.1810    6.4930   26.7020 C.3       1 8B7         0.1341
      4 OA2        10.1240    7.7260   27.4540 O.3       1 8B7        -0.3841
      5 CA3         9.5790    5.3910   27.5210 C.3       1 8B7         0.1140
      6 OA3        10.3780    5.1730   28.7260 O.3       1 8B7        -0.3864
      7 CA4         9.4490    4.1140   26.7650 C.3       1 8B7         0.1095
      8 OA4        10.7780    3.5520   26.6490 O.3       1 8B7        -0.3866
      9 CA5         8.8260    4.2580   25.3870 C.3       1 8B7         0.0873
     10 OA5         9.3450    5.4030   24.6090 O.3       1 8B7        -0.3431
     11 CA6         9.0080    3.0300   24.5790 C.3       1 8B7        -0.0361
     12 CB1         6.1540    7.4930   24.4680 C.3       1 8B7         0.1888
     13 OB1         6.2210    6.2780   23.7720 O.3       1 8B7        -0.3401
     14 CB2         7.5490    7.9060   24.7160 C.3       1 8B7         0.1406
     15 CB3         7.6260    9.2240   25.3120 C.3       1 8B7         0.1144
     16 OB3         9.0330    9.6050   25.5160 O.3       1 8B7        -0.3864
     17 CB4         6.9200   10.2480   24.5120 C.3       1 8B7         0.1119
     18 OB4         7.6600   10.6070   23.3400 O.3       1 8B7        -0.3865
     19 CB5         5.4680    9.8750   24.1880 C.3       1 8B7         0.1130
     20 OB5         5.4500    8.4570   23.6130 O.3       1 8B7        -0.3405
     21 CB6         4.9170   10.7480   23.2450 C.3       1 8B7         0.0730
     22 OB6         3.6680   10.2030   22.9510 O.3       1 8B7        -0.3924
     23 CC1         4.2180    2.9220   22.9250 C.3       1 8B7         0.1854
     24 OC1         3.3280    1.8490   22.6510 O.3       1 8B7        -0.3649
     25 CC2         3.8650    4.0710   22.1380 C.3       1 8B7         0.1339
     26 OC2         3.7070    3.6520   20.7150 O.3       1 8B7        -0.3841
     27 CC3         4.8840    5.0920   22.2910 C.3       1 8B7         0.1144
     28 OC3         4.6030    6.2330   21.3840 O.3       1 8B7        -0.3864
     29 CC4         4.9600    5.5820   23.7030 C.3       1 8B7         0.1184
     30 CC5         5.0530    4.4350   24.7010 C.3       1 8B7         0.1134
     31 OC5         4.0910    3.3110   24.3390 O.3       1 8B7        -0.3407
     32 CC6         4.7230    4.8590   26.0110 C.3       1 8B7         0.0730
     33 OC6         5.6420    4.2480   26.8980 O.3       1 8B7        -0.3924
     34 H1          9.9389    7.4533   24.7996 H         1 8B7         0.0938
     35 H2         11.2323    6.2457   26.4932 H         1 8B7         0.0671
     36 H3         10.5361    8.4203   26.9534 H         1 8B7         0.2101
     37 H4          8.5704    5.7083   27.8242 H         1 8B7         0.0648
     38 H5          9.9905    4.4738   29.2393 H         1 8B7         0.2100
     39 H6          8.8160    3.4298   27.3491 H         1 8B7         0.0646
     40 H7         11.1307    3.3940   27.5169 H         1 8B7         0.2100
     41 H8          7.7475    4.4155   25.5351 H         1 8B7         0.0621
     42 H9          8.5460    3.1697   23.5906 H         1 8B7         0.0255
     43 H10         8.5309    2.1807   25.0900 H         1 8B7         0.0255
     44 H11        10.0822    2.8277   24.4563 H         1 8B7         0.0255
     45 H12         5.6173    7.3735   25.4207 H         1 8B7         0.0938
     46 H13         8.1134    7.8866   23.7720 H         1 8B7         0.0675
     47 H14         7.1384    9.1758   26.2968 H         1 8B7         0.0648
     48 H15         9.4497    8.9762   26.0934 H         1 8B7         0.2100
     49 H16         6.8717   11.1500   25.1397 H         1 8B7         0.0647
     50 H17         7.7853    9.8371   22.7978 H         1 8B7         0.2100
     51 H18         4.8688    9.9117   25.1097 H         1 8B7         0.0647
     52 H19         5.5442   10.7913   22.3424 H         1 8B7         0.0584
     53 H20         4.8106   11.7585   23.6664 H         1 8B7         0.0584
     54 H21         3.7805    9.3274   22.6001 H         1 8B7         0.2095
     55 H22         5.2506    2.6137   22.7044 H         1 8B7         0.0935
     56 H23         3.4090    1.5970   21.7386 H         1 8B7         0.2126
     57 H24         2.9065    4.4748   22.4960 H         1 8B7         0.0671
     58 H25         3.4734    4.4070   20.1878 H         1 8B7         0.2101
     59 H26         5.8566    4.6554   22.0201 H         1 8B7         0.0648
     60 H27         5.2756    6.8952   21.4921 H         1 8B7         0.2100
     61 H28         4.1086    6.2366   23.9409 H         1 8B7         0.0651
     62 H29         6.0831    4.0492   24.6932 H         1 8B7         0.0647
     63 H30         3.6975    4.5484   26.2596 H         1 8B7         0.0584
     64 H31         4.8022    5.9538   26.0830 H         1 8B7         0.0584
     65 H32         5.4456    4.5142   27.7885 H         1 8B7         0.2095
@<TRIPOS>BOND
     1    2    1 1  
     2    1    3 1  
     3    1   10 1  
     4   14    2 1  
     5    3    4 1  
     6    3    5 1  
     7    5    6 1  
     8    5    7 1  
     9    7    8 1  
    10    9    7 1  
    11   10    9 1  
    12    9   11 1  
    13   13   12 1  
    14   12   14 1  
    15   12   20 1  
    16   29   13 1  
    17   14   15 1  
    18   15   16 1  
    19   15   17 1  
    20   17   18 1  
    21   19   17 1  
    22   20   19 1  
    23   19   21 1  
    24   21   22 1  
    25   23   24 1  
    26   25   23 1  
    27   23   31 1  
    28   25   26 1  
    29   27   25 1  
    30   27   28 1  
    31   27   29 1  
    32   29   30 1  
    33   30   31 1  
    34   30   32 1  
    35   32   33 1  
    36    1   34 1  
    37    3   35 1  
    38    4   36 1  
    39    5   37 1  
    40    6   38 1  
    41    7   39 1  
    42    8   40 1  
    43    9   41 1  
    44   11   42 1  
    45   11   43 1  
    46   11   44 1  
    47   12   45 1  
    48   14   46 1  
    49   15   47 1  
    50   16   48 1  
    51   17   49 1  
    52   18   50 1  
    53   19   51 1  
    54   21   52 1  
    55   21   53 1  
    56   22   54 1  
    57   23   55 1  
    58   24   56 1  
    59   25   57 1  
    60   26   58 1  
    61   27   59 1  
    62   28   60 1  
    63   29   61 1  
    64   30   62 1  
    65   32   63 1  
    66   32   64 1  
    67   33   65 1  
@<TRIPOS>SUBSTRUCTURE
     1 8B7         1

