### 
### Created by X-TOOL on Mon Sep 10 21:13:33 2018
### 

@<TRIPOS>MOLECULE
5ufi_ligand
   89    92     1     0     0
SMALL
GAST_HUCK


@<TRIPOS>ATOM
      1 O1          6.7190   -2.9200   45.2120 O.2       1 8B1        -0.3969
      2 N3         10.8970   -0.7850   44.7180 N.4       1 8B1         0.2401
      3 C13         7.2460   -1.8290   45.4330 C.2       1 8B1         0.1812
      4 C14         8.7250   -1.7110   45.7450 C.3       1 8B1         0.0773
      5 C15         9.4250   -0.7640   44.7760 C.3       1 8B1        -0.0147
      6 C16        11.4950   -0.5980   46.0550 C.3       1 8B1        -0.0077
      7 C17        12.9990   -0.4980   45.9540 C.3       1 8B1         0.0878
      8 C18        12.8500    0.3590   43.7800 C.3       1 8B1         0.0878
      9 C19        11.3450    0.2940   43.8200 C.3       1 8B1        -0.0077
     10 O          13.3980    0.5620   45.0790 O.3       1 8B1        -0.3693
     11 N1          4.9410    1.0590   46.9630 N.am      1 8B1        -0.2796
     12 N2          6.5580   -0.6880   45.4210 N.am      1 8B1        -0.2846
     13 C11         4.4320   -0.2310   46.5160 C.3       1 8B1         0.0649
     14 C12         5.1210   -0.6050   45.1890 C.3       1 8B1         0.0541
     15 C20         2.9160   -0.0680   46.5160 C.3       1 8B1        -0.0161
     16 C25         2.1840   -0.7180   47.6920 C.3       1 8B1        -0.0481
     17 C24         0.8400   -0.0520   47.9790 C.3       1 8B1        -0.0527
     18 C23        -0.0380    0.0110   46.7290 C.3       1 8B1        -0.0530
     19 C22         0.6970    0.6770   45.5680 C.3       1 8B1        -0.0527
     20 C21         2.0280   -0.0150   45.2770 C.3       1 8B1        -0.0481
     21 C1          6.8870    9.6910   53.2170 C.3       1 8B1        -0.0168
     22 C2          6.4150   10.9410   52.4930 C.3       1 8B1        -0.0536
     23 C3          7.0750    8.4960   52.2950 C.ar      1 8B1        -0.0502
     24 C4          6.1610    7.4410   52.3000 C.ar      1 8B1        -0.0487
     25 N4          4.1400    3.0650   49.2500 N.am      1 8B1        -0.2629
     26 C5          6.4330    6.3150   51.5300 C.ar      1 8B1         0.0462
     27 C6          7.5710    6.2330   50.7220 C.ar      1 8B1         0.0161
     28 C7          6.7390    4.2280   50.3110 C.2       1 8B1         0.0993
     29 C8          6.5360    2.8700   49.7590 C.3       1 8B1         0.0615
     30 C9          5.4350    2.6990   48.6980 C.3       1 8B1         0.1482
     31 C10         5.3970    1.2500   48.2040 C.2       1 8B1         0.2051
     32 S           5.5460    4.8270   51.4330 S.3       1 8B1         0.0047
     33 N           7.7130    5.0300   50.0310 N.2       1 8B1        -0.3125
     34 C29         8.4680    7.2970   50.7080 C.ar      1 8B1        -0.0640
     35 C30         8.2160    8.4090   51.4960 C.ar      1 8B1        -0.0699
     36 C           6.0130    9.3980   54.4370 C.3       1 8B1        -0.0536
     37 O2          5.7370    0.3240   48.9420 O.2       1 8B1        -0.3943
     38 C26         3.3150    3.9830   48.7270 C.2       1 8B1         0.1781
     39 C27         2.0570    4.2430   49.5140 C.3       1 8B1         0.0345
     40 C28         0.8320    3.6520   48.8770 C.3       1 8B1        -0.0482
     41 O3          3.5600    4.5770   47.6780 O.2       1 8B1        -0.3969
     42 H1         11.1982   -1.6735   44.3494 H         1 8B1         0.2037
     43 H2          9.1872   -2.7063   45.6691 H         1 8B1         0.0556
     44 H3          8.8452   -1.3280   46.7691 H         1 8B1         0.0556
     45 H4          9.0561   -0.9998   43.7669 H         1 8B1         0.0840
     46 H5          9.1245    0.2590   45.0465 H         1 8B1         0.0840
     47 H6         11.2315   -1.4550   46.6923 H         1 8B1         0.0837
     48 H7         11.1002    0.3264   46.5018 H         1 8B1         0.0837
     49 H8         13.3950   -1.4485   45.5672 H         1 8B1         0.0613
     50 H9         13.4125   -0.3090   46.9556 H         1 8B1         0.0613
     51 H10        13.1547    1.1919   43.1293 H         1 8B1         0.0613
     52 H11        13.2380   -0.5860   43.3720 H         1 8B1         0.0613
     53 H12        10.9511    1.2544   44.1840 H         1 8B1         0.0837
     54 H13        10.9643    0.1021   42.8060 H         1 8B1         0.0837
     55 H14         4.9492    1.8254   46.3207 H         1 8B1         0.1855
     56 H15         7.0577    0.1633   45.5809 H         1 8B1         0.1851
     57 H16         4.6904   -1.0102   47.2482 H         1 8B1         0.0579
     58 H17         4.7452   -1.5770   44.8370 H         1 8B1         0.0543
     59 H18         4.9112    0.1652   44.4321 H         1 8B1         0.0543
     60 H19         2.8730    0.9930   46.8031 H         1 8B1         0.0324
     61 H20         2.8161   -0.6395   48.5888 H         1 8B1         0.0269
     62 H21         2.0101   -1.7786   47.4576 H         1 8B1         0.0269
     63 H22         1.0192    0.9712   48.3407 H         1 8B1         0.0265
     64 H23         0.3149   -0.6285   48.7548 H         1 8B1         0.0265
     65 H24        -0.9456    0.5891   46.9573 H         1 8B1         0.0265
     66 H25        -0.3185   -1.0115   46.4361 H         1 8B1         0.0265
     67 H26         0.8897    1.7294   45.8236 H         1 8B1         0.0265
     68 H27         0.0646    0.6278   44.6693 H         1 8B1         0.0265
     69 H28         1.8294   -1.0417   44.9360 H         1 8B1         0.0269
     70 H29         2.5529    0.5394   44.4851 H         1 8B1         0.0269
     71 H30         7.8882    9.9236   53.6087 H         1 8B1         0.0445
     72 H31         6.3004   11.7622   53.2159 H         1 8B1         0.0253
     73 H32         5.4477   10.7411   52.0088 H         1 8B1         0.0253
     74 H33         7.1552   11.2246   51.7303 H         1 8B1         0.0253
     75 H34         5.2556    7.4982   52.8933 H         1 8B1         0.0499
     76 H35         3.8428    2.5967   50.0821 H         1 8B1         0.1885
     77 H36         6.2913    2.2043   50.5998 H         1 8B1         0.0587
     78 H37         7.4858    2.5524   49.3042 H         1 8B1         0.0587
     79 H38         5.6581    3.3593   47.8470 H         1 8B1         0.0835
     80 H39         9.3553    7.2564   50.0867 H         1 8B1         0.0546
     81 H40         8.9224    9.2312   51.4916 H         1 8B1         0.0502
     82 H41         6.3776    8.4900   54.9397 H         1 8B1         0.0253
     83 H42         4.9724    9.2458   54.1146 H         1 8B1         0.0253
     84 H43         6.0603   10.2473   55.1345 H         1 8B1         0.0253
     85 H44         1.9166    5.3305   49.6008 H         1 8B1         0.0500
     86 H45         2.1750    3.8073   50.5171 H         1 8B1         0.0500
     87 H46        -0.0482    3.8759   49.4975 H         1 8B1         0.0254
     88 H47         0.9527    2.5620   48.7917 H         1 8B1         0.0254
     89 H48         0.6943    4.0852   47.8753 H         1 8B1         0.0254
@<TRIPOS>BOND
     1    3    1 2  
     2    5    2 1  
     3    2    6 1  
     4    2    9 1  
     5    3    4 1  
     6   12    3 am 
     7    4    5 1  
     8    6    7 1  
     9    7   10 1  
    10    9    8 1  
    11    8   10 1  
    12   11   13 1  
    13   31   11 am 
    14   14   12 1  
    15   13   14 1  
    16   13   15 1  
    17   15   16 1  
    18   15   20 1  
    19   16   17 1  
    20   17   18 1  
    21   19   18 1  
    22   20   19 1  
    23   21   22 1  
    24   23   21 1  
    25   21   36 1  
    26   24   23 ar 
    27   23   35 ar 
    28   26   24 ar 
    29   30   25 1  
    30   25   38 am 
    31   27   26 ar 
    32   32   26 1  
    33   33   27 1  
    34   27   34 ar 
    35   29   28 1  
    36   28   32 1  
    37   28   33 2  
    38   30   29 1  
    39   30   31 1  
    40   31   37 2  
    41   34   35 ar 
    42   38   39 1  
    43   38   41 2  
    44   39   40 1  
    45    2   42 1  
    46    4   43 1  
    47    4   44 1  
    48    5   45 1  
    49    5   46 1  
    50    6   47 1  
    51    6   48 1  
    52    7   49 1  
    53    7   50 1  
    54    8   51 1  
    55    8   52 1  
    56    9   53 1  
    57    9   54 1  
    58   11   55 1  
    59   12   56 1  
    60   13   57 1  
    61   14   58 1  
    62   14   59 1  
    63   15   60 1  
    64   16   61 1  
    65   16   62 1  
    66   17   63 1  
    67   17   64 1  
    68   18   65 1  
    69   18   66 1  
    70   19   67 1  
    71   19   68 1  
    72   20   69 1  
    73   20   70 1  
    74   21   71 1  
    75   22   72 1  
    76   22   73 1  
    77   22   74 1  
    78   24   75 1  
    79   25   76 1  
    80   29   77 1  
    81   29   78 1  
    82   30   79 1  
    83   34   80 1  
    84   35   81 1  
    85   36   82 1  
    86   36   83 1  
    87   36   84 1  
    88   39   85 1  
    89   39   86 1  
    90   40   87 1  
    91   40   88 1  
    92   40   89 1  
@<TRIPOS>SUBSTRUCTURE
     1 8B1         1

