### 
### Created by X-TOOL on Mon Sep 10 21:13:32 2018
### 

@<TRIPOS>MOLECULE
5ufo_ligand
   63    67     1     0     0
SMALL
GAST_HUCK


@<TRIPOS>ATOM
      1 C07         8.7420  -30.2060  -10.9780 C.ar      1 87J        -0.0527
      2 C15        11.0290  -30.7300  -10.5720 C.ar      1 87J        -0.0527
      3 C21        11.6080  -24.0370   -8.4380 C.ar      1 87J        -0.0614
      4 C39        14.0440  -21.8840   -8.2710 C.ar      1 87J        -0.0183
      5 C20        10.8090  -25.0180   -7.9090 C.ar      1 87J        -0.0375
      6 C08         8.5610  -31.4440  -11.5530 C.ar      1 87J        -0.0370
      7 C14        10.8600  -31.9670  -11.1430 C.ar      1 87J        -0.0370
      8 C38        15.0770  -21.6260   -7.4030 C.ar      1 87J         0.0038
      9 C41        12.0340  -25.4140  -10.3240 C.ar      1 87J        -0.0393
     10 C31        15.3990  -23.5140   -9.2920 C.ar      1 87J         0.0365
     11 C29        10.9910  -21.6160  -10.4320 C.2       1 87J         0.0206
     12 C27        11.9160  -19.8780  -11.2260 C.2       1 87J         0.1315
     13 C18        11.2280  -26.3940   -9.7870 C.ar      1 87J         0.0337
     14 C06         9.9770  -29.8490  -10.4870 C.ar      1 87J        -0.0102
     15 C05        10.2090  -28.5670   -9.8680 C.ar      1 87J         0.0676
     16 C22        12.2240  -24.2290   -9.6490 C.ar      1 87J        -0.0595
     17 C30        14.1980  -22.8460   -9.2400 C.ar      1 87J        -0.0205
     18 C19        10.6130  -26.2020   -8.5710 C.ar      1 87J         0.0461
     19 C09         9.6230  -32.3090  -11.6270 C.ar      1 87J         0.0873
     20 C16        11.0120  -27.5970  -10.4240 C.ar      1 87J         0.0842
     21 C33        16.2430  -22.3450   -7.5310 C.ar      1 87J         0.1322
     22 C24        12.3290  -21.9310  -10.5280 C.2       1 87J         0.0547
     23 C03         9.6400  -28.2720   -8.6510 C.ar      1 87J         0.1828
     24 C26        14.3010  -20.6020  -11.3380 C.3       1 87J         0.0512
     25 C01         8.8560  -29.0270   -6.6610 C.3       1 87J         0.0675
     26 C11         9.3570  -33.5380  -14.0930 C.3       1 87J         0.0595
     27 C23        13.0910  -23.1470  -10.1950 C.3       1 87J         0.0919
     28 C34        17.3650  -22.0680   -6.5900 C.3       1 87J         0.4022
     29 N28        10.7410  -20.3410  -10.8670 N.2       1 87J        -0.2698
     30 N32        16.4200  -23.2850   -8.4620 N.ar      1 87J        -0.2544
     31 N04         9.8270  -27.1190   -8.0100 N.ar      1 87J        -0.2658
     32 N25        12.9000  -20.8010  -11.0400 N.pl3     1 87J        -0.2407
     33 O12        10.6060  -34.6600  -12.0860 O.2       1 87J        -0.1697
     34 O13         8.0880  -34.3810  -11.9650 O.2       1 87J        -0.1697
     35 O40        13.6660  -23.6020  -11.4080 O.3       1 87J        -0.4592
     36 O02         8.8200  -29.2230   -8.0700 O.3       1 87J        -0.2910
     37 F35        17.6190  -20.7380   -6.4500 F         1 87J        -0.2100
     38 F36        17.1180  -22.5330   -5.3360 F         1 87J        -0.2100
     39 F37        18.5400  -22.6320   -6.9790 F         1 87J        -0.2100
     40 S10         9.3990  -33.9080  -12.3620 S.o2      1 87J        -0.0061
     41 CL17       11.7660  -27.8890  -11.9440 Cl        1 87J        -0.0470
     42 H1          7.9115  -29.5125  -10.9121 H         1 87J         0.0618
     43 H2         12.0006  -30.4454  -10.1847 H         1 87J         0.0618
     44 H3         11.7532  -23.1081   -7.8984 H         1 87J         0.0696
     45 H4         13.1140  -21.3326   -8.1921 H         1 87J         0.0898
     46 H5         10.3251  -24.8546   -6.9528 H         1 87J         0.0638
     47 H6          7.5911  -31.7315  -11.9424 H         1 87J         0.0635
     48 H7         11.6897  -32.6614  -11.2102 H         1 87J         0.0635
     49 H8         14.9754  -20.8706   -6.6322 H         1 87J         0.0973
     50 H9         12.5194  -25.5762  -11.2796 H         1 87J         0.0858
     51 H10        15.5249  -24.2741  -10.0545 H         1 87J         0.1007
     52 H11        10.2273  -22.2958  -10.0571 H         1 87J         0.0916
     53 H12        12.0833  -18.8782  -11.6238 H         1 87J         0.1504
     54 H13        14.4502  -19.5887  -11.7391 H         1 87J         0.0590
     55 H14        14.6262  -21.3429  -12.0832 H         1 87J         0.0590
     56 H15        14.8923  -20.7230  -10.4184 H         1 87J         0.0590
     57 H16         8.2112  -29.7712   -6.1707 H         1 87J         0.0593
     58 H17         8.4956  -28.0155   -6.4221 H         1 87J         0.0593
     59 H18         9.8889  -29.1428   -6.3009 H         1 87J         0.0593
     60 H19         9.2196  -34.4684  -14.6636 H         1 87J         0.0468
     61 H20        10.3036  -33.0625  -14.3894 H         1 87J         0.0468
     62 H21         8.5217  -32.8533  -14.3015 H         1 87J         0.0468
     63 H22        12.9756  -23.7992  -12.0301 H         1 87J         0.1812
@<TRIPOS>BOND
     1    1    6 ar 
     2   14    1 ar 
     3    2    7 ar 
     4   14    2 ar 
     5    3    5 ar 
     6   16    3 ar 
     7    4    8 ar 
     8   17    4 ar 
     9    5   18 ar 
    10    6   19 ar 
    11    7   19 ar 
    12    8   21 ar 
    13    9   13 ar 
    14   16    9 ar 
    15   17   10 ar 
    16   10   30 ar 
    17   22   11 2  
    18   11   29 1  
    19   29   12 2  
    20   12   32 1  
    21   13   18 ar 
    22   13   20 ar 
    23   15   14 1  
    24   20   15 ar 
    25   15   23 ar 
    26   27   16 1  
    27   27   17 1  
    28   18   31 ar 
    29   19   40 1  
    30   20   41 1  
    31   21   28 1  
    32   30   21 ar 
    33   22   27 1  
    34   22   32 1  
    35   23   31 ar 
    36   23   36 1  
    37   32   24 1  
    38   36   25 1  
    39   40   26 1  
    40   27   35 1  
    41   28   37 1  
    42   28   38 1  
    43   28   39 1  
    44   40   33 2  
    45   40   34 2  
    46    1   42 1  
    47    2   43 1  
    48    3   44 1  
    49    4   45 1  
    50    5   46 1  
    51    6   47 1  
    52    7   48 1  
    53    8   49 1  
    54    9   50 1  
    55   10   51 1  
    56   11   52 1  
    57   12   53 1  
    58   24   54 1  
    59   24   55 1  
    60   24   56 1  
    61   25   57 1  
    62   25   58 1  
    63   25   59 1  
    64   26   60 1  
    65   26   61 1  
    66   26   62 1  
    67   35   63 1  
@<TRIPOS>SUBSTRUCTURE
     1 87J         1

