### 
### Created by X-TOOL on Mon Sep 10 21:13:34 2018
### 

@<TRIPOS>MOLECULE
5ufp_ligand
   38    40     1     0     0
SMALL
GAST_HUCK


@<TRIPOS>ATOM
      1 N1         18.3100    1.9410   -8.7160 N.1       1 86D        -0.3283
      2 C17        18.9120    1.1270   -9.3150 C.1       1 86D         0.0969
      3 C6         19.5830    0.2130   -9.9630 C.ar      1 86D         0.0862
      4 C7         20.8850    0.5090  -10.4280 C.ar      1 86D         0.0018
      5 C8         21.5910   -0.4770  -11.0890 C.ar      1 86D         0.1229
      6 C9         21.0290   -1.7370  -11.2840 C.ar      1 86D         0.0131
      7 C10        19.7450   -2.0330  -10.8310 C.ar      1 86D         0.1356
      8 F1         19.1980   -3.2700  -11.0210 F         1 86D        -0.1840
      9 C5         19.0130   -1.0520  -10.1410 C.ar      1 86D        -0.0041
     10 O1         22.8260   -0.1180  -11.5840 O.3       1 86D        -0.2623
     11 C1         23.9210   -0.2670  -10.8080 C.ar      1 86D         0.1119
     12 C14        25.0950    0.1020  -11.4120 C.ar      1 86D         0.0028
     13 C15        25.2600    0.6100  -12.8590 C.3       1 86D         0.0451
     14 C11        26.7870    0.3910  -13.0280 C.3       1 86D         0.2889
     15 F5         27.2240    1.3380  -13.8450 F         1 86D        -0.1987
     16 F2         27.1030   -0.7900  -13.5500 F         1 86D        -0.1987
     17 C13        26.2590   -0.1050  -10.7280 C.ar      1 86D         0.0106
     18 C12        27.3980    0.3410  -11.6270 C.3       1 86D         0.1506
     19 O4         27.7610    1.6840  -11.2240 O.3       1 86D        -0.3746
     20 C4         26.2540   -0.6390   -9.4050 C.ar      1 86D         0.0816
     21 C3         25.0390   -0.9400   -8.7660 C.ar      1 86D        -0.0578
     22 C2         23.8310   -0.7230   -9.4990 C.ar      1 86D        -0.0399
     23 S1         27.6450   -0.8970   -8.5240 S.o2      1 86D         0.0496
     24 O2         28.5410   -1.4070   -9.4620 O.2       1 86D        -0.1664
     25 O3         27.4240   -1.9180   -7.5080 O.2       1 86D        -0.1664
     26 C16        28.1070    0.5370   -7.8650 C.3       1 86D         0.3545
     27 F3         27.3650    0.5720   -6.7430 F         1 86D        -0.1836
     28 F4         27.5910    1.5300   -8.5960 F         1 86D        -0.1836
     29 H1         21.3199    1.4891  -10.2691 H         1 86D         0.0616
     30 H2         21.6013   -2.5011  -11.7976 H         1 86D         0.0608
     31 H3         18.0246   -1.2714   -9.7537 H         1 86D         0.0615
     32 H4         24.9832    1.6701  -12.9569 H         1 86D         0.0450
     33 H5         24.6770    0.0112  -13.5742 H         1 86D         0.0450
     34 H6         28.2602   -0.3403  -11.5782 H         1 86D         0.0802
     35 H7         28.4744    1.9950  -11.7689 H         1 86D         0.2130
     36 H8         25.0186   -1.3235   -7.7523 H         1 86D         0.0536
     37 H9         22.8655   -0.9103   -9.0431 H         1 86D         0.0478
     38 H10        29.1922    0.6246   -7.7083 H         1 86D         0.1278
@<TRIPOS>BOND
     1    1    2 3  
     2    2    3 1  
     3    3    4 ar 
     4    3    9 ar 
     5    4    5 ar 
     6    5    6 ar 
     7    5   10 1  
     8    6    7 ar 
     9    7    8 1  
    10    7    9 ar 
    11   10   11 1  
    12   11   12 ar 
    13   11   22 ar 
    14   12   13 1  
    15   12   17 ar 
    16   13   14 1  
    17   14   15 1  
    18   14   16 1  
    19   14   18 1  
    20   17   18 1  
    21   17   20 ar 
    22   18   19 1  
    23   20   21 ar 
    24   20   23 1  
    25   21   22 ar 
    26   23   24 2  
    27   23   25 2  
    28   23   26 1  
    29   26   27 1  
    30   26   28 1  
    31    4   29 1  
    32    6   30 1  
    33    9   31 1  
    34   13   32 1  
    35   13   33 1  
    36   18   34 1  
    37   19   35 1  
    38   21   36 1  
    39   22   37 1  
    40   26   38 1  
@<TRIPOS>SUBSTRUCTURE
     1 86D         1

