### 
### Created by X-TOOL on Mon Sep 10 21:13:34 2018
### 

@<TRIPOS>MOLECULE
5ufr_ligand
   58    62     1     0     0
SMALL
GAST_HUCK


@<TRIPOS>ATOM
      1 C18        18.0710   14.1530  -22.0340 C.ar      1 88J        -0.0625
      2 C17        17.1240   15.1350  -22.2130 C.ar      1 88J        -0.0620
      3 C19        18.6890   14.0110  -20.8150 C.ar      1 88J        -0.0620
      4 C16        16.7930   15.9830  -21.1810 C.ar      1 88J        -0.0548
      5 C20        18.3590   14.8590  -19.7850 C.ar      1 88J        -0.0548
      6 C8         16.8850   20.6730  -15.8950 C.ar      1 88J        -0.0629
      7 C7         16.6010   19.3330  -15.7600 C.ar      1 88J        -0.0391
      8 C30        20.0790   22.6000  -16.5500 C.ar      1 88J        -0.0340
      9 C34        18.5060   23.5680  -15.0730 C.ar      1 88J        -0.0340
     10 C10        17.5220   20.2950  -18.1410 C.ar      1 88J        -0.0417
     11 C31        21.0610   22.9050  -15.6360 C.ar      1 88J         0.0250
     12 C33        19.5560   23.8340  -14.2200 C.ar      1 88J         0.0250
     13 C24        15.2150   23.3800  -16.8120 C.2       1 88J         0.0164
     14 C26        15.4380   25.4530  -17.1920 C.2       1 88J         0.1289
     15 C11        17.2340   18.9550  -17.9940 C.ar      1 88J         0.0309
     16 C15        17.4100   15.8390  -19.9610 C.ar      1 88J        -0.0119
     17 C14        17.1230   16.7220  -18.8650 C.ar      1 88J         0.0565
     18 C9         17.3450   21.1680  -17.0910 C.ar      1 88J        -0.0637
     19 C29        18.7750   22.9400  -16.2610 C.ar      1 88J        -0.0519
     20 C6         16.7700   18.4510  -16.8020 C.ar      1 88J         0.0413
     21 C12        17.3990   18.0580  -19.0180 C.ar      1 88J         0.0815
     22 C23        16.5440   23.5470  -17.1260 C.2       1 88J         0.0489
     23 C4         16.6490   16.2870  -17.6490 C.ar      1 88J         0.1310
     24 C28        17.8680   25.5920  -17.7540 C.3       1 88J         0.0506
     25 C1         15.4130   14.3270  -18.3320 C.3       1 88J         0.0221
     26 C3         16.2490   14.6280  -16.0370 C.3       1 88J         0.0221
     27 C21        17.6770   22.6180  -17.2270 C.3       1 88J         0.0808
     28 N32        20.8270   23.5180  -14.4750 N.ar      1 88J        -0.2808
     29 N25        14.5300   24.5670  -16.8530 N.2       1 88J        -0.2736
     30 N5         16.4730   17.1550  -16.6460 N.ar      1 88J        -0.2788
     31 N27        16.6650   24.8840  -17.3630 N.pl3     1 88J        -0.2435
     32 N2         16.3860   14.9190  -17.4500 N.pl3     1 88J        -0.2912
     33 O22        18.2380   22.8220  -18.5090 O.3       1 88J        -0.4610
     34 CL13       17.9680   18.6130  -20.5450 Cl        1 88J        -0.0481
     35 H1         18.3292   13.4922  -22.8536 H         1 88J         0.0611
     36 H2         16.6348   15.2415  -23.1745 H         1 88J         0.0616
     37 H3         19.4317   13.2355  -20.6667 H         1 88J         0.0616
     38 H4         16.0509   16.7592  -21.3290 H         1 88J         0.0616
     39 H5         18.8512   14.7545  -18.8249 H         1 88J         0.0616
     40 H6         16.7449   21.3413  -15.0531 H         1 88J         0.0694
     41 H7         16.2350   18.9635  -14.8089 H         1 88J         0.0629
     42 H8         20.3263   22.1015  -17.4803 H         1 88J         0.0815
     43 H9         17.4925   23.8487  -14.8104 H         1 88J         0.0815
     44 H10        17.8908   20.6645  -19.0910 H         1 88J         0.0845
     45 H11        22.0828   22.6316  -15.8730 H         1 88J         0.0862
     46 H12        19.3349   24.3315  -13.2826 H         1 88J         0.0862
     47 H13        14.7623   22.4218  -16.5614 H         1 88J         0.0887
     48 H14        15.2351   26.5151  -17.3211 H         1 88J         0.1484
     49 H15        17.6425   26.6625  -17.8686 H         1 88J         0.0590
     50 H16        18.2356   25.1904  -18.7098 H         1 88J         0.0590
     51 H17        18.6387   25.4605  -16.9803 H         1 88J         0.0590
     52 H18        15.2920   13.2624  -18.0828 H         1 88J         0.0494
     53 H19        15.7551   14.4233  -19.3730 H         1 88J         0.0494
     54 H20        14.4488   14.8431  -18.2137 H         1 88J         0.0494
     55 H21        17.0485   15.1369  -15.4787 H         1 88J         0.0494
     56 H22        16.3241   13.5423  -15.8772 H         1 88J         0.0494
     57 H23        15.2704   14.9840  -15.6825 H         1 88J         0.0494
     58 H24        17.5853   22.6326  -19.1729 H         1 88J         0.1810
@<TRIPOS>BOND
     1    2    1 ar 
     2    3    1 ar 
     3    4    2 ar 
     4    5    3 ar 
     5   16    4 ar 
     6   16    5 ar 
     7    6    7 ar 
     8   18    6 ar 
     9    7   20 ar 
    10    8   11 ar 
    11   19    8 ar 
    12    9   12 ar 
    13   19    9 ar 
    14   10   15 ar 
    15   18   10 ar 
    16   11   28 ar 
    17   12   28 ar 
    18   22   13 2  
    19   13   29 1  
    20   29   14 2  
    21   14   31 1  
    22   15   20 ar 
    23   15   21 ar 
    24   17   16 1  
    25   21   17 ar 
    26   17   23 ar 
    27   27   18 1  
    28   27   19 1  
    29   20   30 ar 
    30   21   34 1  
    31   22   27 1  
    32   22   31 1  
    33   23   30 ar 
    34   23   32 1  
    35   31   24 1  
    36   32   25 1  
    37   32   26 1  
    38   27   33 1  
    39    1   35 1  
    40    2   36 1  
    41    3   37 1  
    42    4   38 1  
    43    5   39 1  
    44    6   40 1  
    45    7   41 1  
    46    8   42 1  
    47    9   43 1  
    48   10   44 1  
    49   11   45 1  
    50   12   46 1  
    51   13   47 1  
    52   14   48 1  
    53   24   49 1  
    54   24   50 1  
    55   24   51 1  
    56   25   52 1  
    57   25   53 1  
    58   25   54 1  
    59   26   55 1  
    60   26   56 1  
    61   26   57 1  
    62   33   58 1  
@<TRIPOS>SUBSTRUCTURE
     1 88J         1

