### 
### Created by X-TOOL on Mon Sep 10 21:13:34 2018
### 

@<TRIPOS>MOLECULE
5ufs_ligand
   62    66     1     0     0
SMALL
GAST_HUCK


@<TRIPOS>ATOM
      1 C02        21.7320   36.5530   19.8270 C.2       1 1TA         0.2468
      2 C03        21.7420   37.7210   20.7540 C.2       1 1TA         0.0360
      3 C04        22.3010   38.8600   20.3940 C.2       1 1TA        -0.0937
      4 C05        22.9190   39.1960   19.0180 C.3       1 1TA        -0.0156
      5 C06        24.3730   39.6410   19.2960 C.3       1 1TA        -0.1015
      6 C07        23.0650   37.9380   18.1490 C.2       1 1TA        -0.0755
      7 C08        23.5490   38.3680   16.7260 C.3       1 1TA        -0.0268
      8 C09        22.9550   39.6350   15.9780 C.3       1 1TA        -0.0384
      9 C10        22.8180   40.9070   16.8390 C.3       1 1TA        -0.0130
     10 C11        22.1600   40.4430   18.2170 C.3       1 1TA         0.1042
     11 C13        21.9480   41.7560   19.1240 C.3       1 1TA         0.0761
     12 C15        21.2200   42.9520   18.3670 C.3       1 1TA        -0.0179
     13 C16        21.8020   43.3570   16.9930 C.3       1 1TA         0.0105
     14 C17        23.1760   44.0040   17.2550 C.3       1 1TA        -0.0576
     15 C18        21.9840   42.0850   16.1180 C.3       1 1TA        -0.0270
     16 C19        22.3810   42.7680   14.7740 C.3       1 1TA        -0.0213
     17 C20        21.4070   43.9760   14.5790 C.3       1 1TA         0.0972
     18 C21        20.9720   44.4010   16.0330 C.3       1 1TA         0.1682
     19 C23        19.0660   43.9860   14.6380 C.3       1 1TA         0.1643
     20 C24        18.2910   45.2050   14.0710 C.3       1 1TA        -0.0110
     21 C25        18.1220   42.7550   14.5740 C.3       1 1TA        -0.0110
     22 C27        21.2970   45.9060   16.3510 C.2       1 1TA         0.1868
     23 C28        20.5750   46.6870   17.4610 C.3       1 1TA         0.1214
     24 C31        22.4980   36.7630   18.5430 C.2       1 1TA         0.0346
     25 F12        20.9230   39.9790   17.9780 F         1 1TA        -0.2564
     26 O01        21.1450   35.5130   20.0970 O.2       1 1TA        -0.2667
     27 O14        23.1920   42.1920   19.5720 O.3       1 1TA        -0.3901
     28 O22        19.5690   44.2500   15.9580 O.3       1 1TA        -0.3368
     29 O26        20.2110   43.6730   13.8820 O.3       1 1TA        -0.3445
     30 O29        21.3440   47.7840   17.8650 O.3       1 1TA        -0.3762
     31 O30        22.1580   46.4750   15.7020 O.2       1 1TA        -0.3271
     32 H1         21.2833   37.6326   21.7377 H         1 1TA         0.1206
     33 H2         22.3302   39.6471   21.1460 H         1 1TA         0.0522
     34 H3         24.9069   38.8387   19.8263 H         1 1TA         0.0057
     35 H4         24.3662   40.5492   19.9165 H         1 1TA         0.0057
     36 H5         24.8806   39.8516   18.3431 H         1 1TA         0.0057
     37 H6         23.3645   37.5076   16.0660 H         1 1TA         0.0436
     38 H7         24.6321   38.5407   16.8093 H         1 1TA         0.0436
     39 H8         21.9556   39.3700   15.6027 H         1 1TA         0.0293
     40 H9         23.6151   39.8688   15.1298 H         1 1TA         0.0293
     41 H10        23.8249   41.2993   17.0443 H         1 1TA         0.0322
     42 H11        21.3314   41.4766   19.9910 H         1 1TA         0.0610
     43 H12        21.2618   43.8356   19.0208 H         1 1TA         0.0295
     44 H13        20.1709   42.6597   18.2121 H         1 1TA         0.0295
     45 H14        23.7763   43.3426   17.8970 H         1 1TA         0.0234
     46 H15        23.0354   44.9729   17.7565 H         1 1TA         0.0234
     47 H16        23.6970   44.1583   16.2986 H         1 1TA         0.0234
     48 H17        20.9954   41.6327   15.9505 H         1 1TA         0.0309
     49 H18        22.2745   42.0570   13.9415 H         1 1TA         0.0292
     50 H19        23.4209   43.1234   14.8220 H         1 1TA         0.0292
     51 H20        21.9329   44.7931   14.0635 H         1 1TA         0.0610
     52 H21        17.4096   45.4033   14.6986 H         1 1TA         0.0281
     53 H22        17.9673   44.9876   13.0425 H         1 1TA         0.0281
     54 H23        18.9467   46.0882   14.0701 H         1 1TA         0.0281
     55 H24        18.6441   41.8716   14.9703 H         1 1TA         0.0281
     56 H25        17.8302   42.5705   13.5296 H         1 1TA         0.0281
     57 H26        17.2229   42.9506   15.1768 H         1 1TA         0.0281
     58 H27        20.4098   46.0233   18.3225 H         1 1TA         0.0785
     59 H28        19.6060   47.0437   17.0817 H         1 1TA         0.0785
     60 H29        22.6061   35.9070   17.8785 H         1 1TA         0.1051
     61 H30        23.0746   42.9235   20.1667 H         1 1TA         0.2098
     62 H31        21.4863   48.3600   17.1231 H         1 1TA         0.2129
@<TRIPOS>BOND
     1    2    1 1  
     2   24    1 1  
     3    1   26 2  
     4    3    2 2  
     5    4    3 1  
     6    4    5 1  
     7    4    6 1  
     8   10    4 1  
     9    7    6 1  
    10    6   24 2  
    11    8    7 1  
    12    9    8 1  
    13    9   10 1  
    14   15    9 1  
    15   11   10 1  
    16   10   25 1  
    17   12   11 1  
    18   11   27 1  
    19   13   12 1  
    20   13   14 1  
    21   13   15 1  
    22   18   13 1  
    23   16   15 1  
    24   17   16 1  
    25   18   17 1  
    26   17   29 1  
    27   18   22 1  
    28   28   18 1  
    29   19   20 1  
    30   19   21 1  
    31   19   28 1  
    32   19   29 1  
    33   22   23 1  
    34   22   31 2  
    35   23   30 1  
    36    2   32 1  
    37    3   33 1  
    38    5   34 1  
    39    5   35 1  
    40    5   36 1  
    41    7   37 1  
    42    7   38 1  
    43    8   39 1  
    44    8   40 1  
    45    9   41 1  
    46   11   42 1  
    47   12   43 1  
    48   12   44 1  
    49   14   45 1  
    50   14   46 1  
    51   14   47 1  
    52   15   48 1  
    53   16   49 1  
    54   16   50 1  
    55   17   51 1  
    56   20   52 1  
    57   20   53 1  
    58   20   54 1  
    59   21   55 1  
    60   21   56 1  
    61   21   57 1  
    62   23   58 1  
    63   23   59 1  
    64   24   60 1  
    65   27   61 1  
    66   30   62 1  
@<TRIPOS>SUBSTRUCTURE
     1 1TA         1

