### 
### Created by X-TOOL on Mon Sep 10 21:13:32 2018
### 

@<TRIPOS>MOLECULE
5ug8_ligand
   56    59     1     0     0
SMALL
GAST_HUCK


@<TRIPOS>ATOM
      1 C5        -15.0170   16.8630  -25.8240 C.3       1 8BP         0.0583
      2 C6        -13.2780   16.0040  -27.3730 C.ar      1 8BP         0.1563
      3 C8        -13.3460   13.6350  -27.8120 C.ar      1 8BP         0.1317
      4 C10       -11.6860   15.1020  -28.7310 C.ar      1 8BP         0.1420
      5 N12       -10.5940   15.0140  -29.5490 N.pl3     1 8BP        -0.2250
      6 C13       -10.4750   13.6790  -29.8950 C.2       1 8BP         0.1046
      7 C15        -9.7540   16.1600  -29.9430 C.3       1 8BP         0.0647
      8 C17        -8.3040   15.7750  -30.2900 C.3       1 8BP        -0.0349
      9 C20       -15.9450   12.9230  -26.1370 C.2       1 8BP         0.0660
     10 C24       -18.0080   12.5190  -24.7810 C.3       1 8BP         0.0558
     11 C28       -14.0410   18.1580  -21.6300 C.3       1 8BP         0.0344
     12 C1        -15.2510   18.2580  -25.2380 C.3       1 8BP         0.0952
     13 C2        -14.6040   19.1860  -26.2470 C.3       1 8BP         0.1458
     14 C3        -13.3840   18.4120  -26.7340 C.3       1 8BP         0.0658
     15 N4        -13.8590   17.0450  -26.6900 N.pl3     1 8BP        -0.2787
     16 N7        -13.8400   14.7730  -27.2160 N.ar      1 8BP        -0.2552
     17 C9        -12.1870   13.8010  -28.6220 C.ar      1 8BP         0.0934
     18 N11       -12.1790   16.2270  -28.1450 N.ar      1 8BP        -0.2650
     19 N14       -11.4160   12.9290  -29.3560 N.2       1 8BP        -0.3045
     20 C16       -10.3700   16.9000  -31.1340 C.3       1 8BP        -0.0349
     21 N18       -13.9800   12.3900  -27.6100 N.pl3     1 8BP        -0.2744
     22 C19       -15.1060   12.0990  -26.8760 C.2       1 8BP         0.0747
     23 N21       -16.9070   12.1160  -25.6210 N.pl3     1 8BP        -0.2209
     24 N22       -16.7670   10.8240  -25.9590 N.2       1 8BP        -0.2229
     25 C23       -15.6680   10.8200  -26.7250 C.2       1 8BP         0.0219
     26 F25       -15.4690   19.3650  -27.2880 F         1 8BP        -0.2409
     27 N26       -14.5500   18.3780  -23.9550 N.am      1 8BP        -0.2791
     28 C27       -15.0180   17.8510  -22.7590 C.2       1 8BP         0.1761
     29 C29       -14.3920   17.5020  -20.3030 C.3       1 8BP        -0.0482
     30 O30       -16.0730   17.2210  -22.6190 O.2       1 8BP        -0.3971
     31 H1        -15.8909   16.5281  -26.4020 H         1 8BP         0.0548
     32 H2        -14.8020   16.1340  -25.0289 H         1 8BP         0.0548
     33 H3         -9.6898   13.2905  -30.5419 H         1 8BP         0.1308
     34 H4         -9.7205   16.8509  -29.0877 H         1 8BP         0.0642
     35 H5         -7.7426   16.6777  -30.5726 H         1 8BP         0.0259
     36 H6         -8.3041   15.0653  -31.1304 H         1 8BP         0.0259
     37 H7         -7.8294   15.3071  -29.4149 H         1 8BP         0.0259
     38 H8        -15.8503   13.9991  -25.9993 H         1 8BP         0.0828
     39 H9        -18.6153   11.6383  -24.5250 H         1 8BP         0.0596
     40 H10       -18.6303   13.2501  -25.3178 H         1 8BP         0.0596
     41 H11       -17.6181   12.9759  -23.8595 H         1 8BP         0.0596
     42 H12       -14.0186   19.2475  -21.4804 H         1 8BP         0.0500
     43 H13       -13.0430   17.8090  -21.9335 H         1 8BP         0.0500
     44 H14       -16.3228   18.4724  -25.1149 H         1 8BP         0.0606
     45 H15       -14.3239   20.1506  -25.7986 H         1 8BP         0.0696
     46 H16       -12.5240   18.5582  -26.0639 H         1 8BP         0.0554
     47 H17       -13.1060   18.7060  -27.7569 H         1 8BP         0.0554
     48 H18        -9.7277   17.7493  -31.4100 H         1 8BP         0.0259
     49 H19       -11.3688   17.2699  -30.8591 H         1 8BP         0.0259
     50 H20       -10.4559   16.2124  -31.9883 H         1 8BP         0.0259
     51 H21       -13.5370   11.5866  -28.0782 H         1 8BP         0.2071
     52 H22       -15.2545    9.9220  -27.1816 H         1 8BP         0.0635
     53 H23       -13.6799   18.8706  -23.9410 H         1 8BP         0.1856
     54 H24       -13.6393   17.7749  -19.5487 H         1 8BP         0.0254
     55 H25       -14.4074   16.4091  -20.4269 H         1 8BP         0.0254
     56 H26       -15.3830   17.8477  -19.9738 H         1 8BP         0.0254
@<TRIPOS>BOND
     1   12    1 1  
     2    1   15 1  
     3   15    2 1  
     4    2   16 ar 
     5    2   18 ar 
     6   16    3 ar 
     7    3   17 ar 
     8    3   21 1  
     9    4    5 1  
    10    4   17 ar 
    11   18    4 ar 
    12    5    6 1  
    13    5    7 1  
    14   19    6 2  
    15    7    8 1  
    16    7   20 1  
    17   22    9 2  
    18    9   23 1  
    19   23   10 1  
    20   28   11 1  
    21   11   29 1  
    22   12   13 1  
    23   27   12 1  
    24   13   14 1  
    25   13   26 1  
    26   14   15 1  
    27   17   19 1  
    28   21   22 1  
    29   22   25 1  
    30   24   23 1  
    31   25   24 2  
    32   27   28 am 
    33   28   30 2  
    34    1   31 1  
    35    1   32 1  
    36    6   33 1  
    37    7   34 1  
    38    8   35 1  
    39    8   36 1  
    40    8   37 1  
    41    9   38 1  
    42   10   39 1  
    43   10   40 1  
    44   10   41 1  
    45   11   42 1  
    46   11   43 1  
    47   12   44 1  
    48   13   45 1  
    49   14   46 1  
    50   14   47 1  
    51   20   48 1  
    52   20   49 1  
    53   20   50 1  
    54   21   51 1  
    55   25   52 1  
    56   27   53 1  
    57   29   54 1  
    58   29   55 1  
    59   29   56 1  
@<TRIPOS>SUBSTRUCTURE
     1 8BP         1

