### 
### Created by X-TOOL on Mon Sep 10 21:13:32 2018
### 

@<TRIPOS>MOLECULE
5ug9_ligand
   60    63     1     0     0
SMALL
GAST_HUCK


@<TRIPOS>ATOM
      1 C5        -15.0440   16.7680  -25.7180 C.3       1 8AM         0.0583
      2 C6        -13.2890   15.8880  -27.2500 C.ar      1 8AM         0.1560
      3 C8        -13.3590   13.5360  -27.7500 C.ar      1 8AM         0.1308
      4 C10       -11.6770   15.0110  -28.5970 C.ar      1 8AM         0.1418
      5 N12       -10.5720   14.9370  -29.4010 N.pl3     1 8AM        -0.2251
      6 C13       -10.4560   13.6120  -29.7740 C.2       1 8AM         0.1045
      7 C15        -9.7210   16.0850  -29.7610 C.3       1 8AM         0.0647
      8 C17        -8.2790   15.6920  -30.1110 C.3       1 8AM        -0.0349
      9 C20       -15.8450   12.6960  -25.9520 C.2       1 8AM         0.0611
     10 C26       -17.9760   12.2420  -24.7060 C.3       1 8AM         0.0504
     11 C1        -15.2550   18.1770  -25.1370 C.3       1 8AM         0.0952
     12 C2        -14.5940   19.0800  -26.1560 C.3       1 8AM         0.1458
     13 C3        -13.3650   18.2850  -26.5900 C.3       1 8AM         0.0658
     14 N4        -13.8670   16.9260  -26.5650 N.pl3     1 8AM        -0.2787
     15 N7        -13.8630   14.6600  -27.1340 N.ar      1 8AM        -0.2556
     16 C9        -12.1850   13.7140  -28.5270 C.ar      1 8AM         0.0931
     17 N11       -12.1750   16.1180  -27.9940 N.ar      1 8AM        -0.2653
     18 N14       -11.4110   12.8560  -29.2660 N.2       1 8AM        -0.3046
     19 C16       -10.3250   16.8580  -30.9410 C.3       1 8AM        -0.0349
     20 N18       -13.9980   12.2920  -27.6130 N.pl3     1 8AM        -0.2744
     21 C19       -15.1540   12.0070  -26.9390 C.2       1 8AM         0.1075
     22 N21       -16.9450   11.9390  -25.6690 N.pl3     1 8AM        -0.2336
     23 N22       -17.0260   10.8090  -26.3960 N.2       1 8AM        -0.2099
     24 C23       -15.9280   10.8610  -27.1680 C.2       1 8AM         0.1655
     25 O24       -15.6010    9.9010  -28.0860 O.3       1 8AM        -0.3209
     26 C25       -16.5000    8.7950  -28.2060 C.3       1 8AM         0.0564
     27 F27       -15.4450   19.2290  -27.2150 F         1 8AM        -0.2409
     28 N28       -14.5520   18.3230  -23.8540 N.am      1 8AM        -0.2791
     29 C29       -15.0070   17.8060  -22.6520 C.2       1 8AM         0.1761
     30 C30       -14.0370   18.1460  -21.5240 C.3       1 8AM         0.0344
     31 C31       -14.3590   17.4680  -20.2000 C.3       1 8AM        -0.0482
     32 O32       -16.0440   17.1650  -22.5060 O.2       1 8AM        -0.3971
     33 H1        -15.9155   16.4514  -26.3098 H         1 8AM         0.0548
     34 H2        -14.8583   16.0359  -24.9183 H         1 8AM         0.0548
     35 H3         -9.6631   13.2327  -30.4170 H         1 8AM         0.1307
     36 H4         -9.6849   16.7552  -28.8895 H         1 8AM         0.0642
     37 H5         -7.7051   16.5945  -30.3680 H         1 8AM         0.0259
     38 H6         -8.2845   15.0042  -30.9694 H         1 8AM         0.0259
     39 H7         -7.8140   15.1958  -29.2464 H         1 8AM         0.0259
     40 H8        -15.5668   13.6454  -25.4969 H         1 8AM         0.0810
     41 H9        -18.7280   11.4392  -24.7091 H         1 8AM         0.0584
     42 H10       -18.4564   13.1954  -24.9709 H         1 8AM         0.0584
     43 H11       -17.5296   12.3223  -23.7039 H         1 8AM         0.0584
     44 H12       -16.3240   18.4069  -25.0172 H         1 8AM         0.0606
     45 H13       -14.3215   20.0571  -25.7306 H         1 8AM         0.0696
     46 H14       -12.5323   18.4174  -25.8835 H         1 8AM         0.0554
     47 H15       -13.0381   18.5726  -27.6001 H         1 8AM         0.0554
     48 H16        -9.6752   17.7091  -31.1929 H         1 8AM         0.0259
     49 H17       -11.3232   17.2281  -30.6644 H         1 8AM         0.0259
     50 H18       -10.4094   16.1910  -31.8116 H         1 8AM         0.0259
     51 H19       -13.5390   11.4957  -28.0778 H         1 8AM         0.2061
     52 H20       -16.1257    8.0997  -28.9719 H         1 8AM         0.0570
     53 H21       -17.4951    9.1614  -28.4983 H         1 8AM         0.0570
     54 H22       -16.5705    8.2733  -27.2402 H         1 8AM         0.0570
     55 H23       -13.6892   18.8285  -23.8487 H         1 8AM         0.1856
     56 H24       -14.0569   19.2347  -21.3680 H         1 8AM         0.0500
     57 H25       -13.0271   17.8382  -21.8327 H         1 8AM         0.0500
     58 H26       -13.6157   17.7652  -19.4456 H         1 8AM         0.0254
     59 H27       -14.3321   16.3762  -20.3310 H         1 8AM         0.0254
     60 H28       -15.3619   17.7727  -19.8664 H         1 8AM         0.0254
@<TRIPOS>BOND
     1    1   11 1  
     2   14    1 1  
     3    2   14 1  
     4   15    2 ar 
     5    2   17 ar 
     6    3   15 ar 
     7    3   16 ar 
     8   20    3 1  
     9    4    5 1  
    10   16    4 ar 
    11    4   17 ar 
    12    6    5 1  
    13    5    7 1  
    14   18    6 2  
    15    7    8 1  
    16    7   19 1  
    17   21    9 2  
    18    9   22 1  
    19   22   10 1  
    20   12   11 1  
    21   11   28 1  
    22   13   12 1  
    23   12   27 1  
    24   14   13 1  
    25   16   18 1  
    26   20   21 1  
    27   21   24 1  
    28   22   23 1  
    29   23   24 2  
    30   24   25 1  
    31   25   26 1  
    32   28   29 am 
    33   29   30 1  
    34   29   32 2  
    35   30   31 1  
    36    1   33 1  
    37    1   34 1  
    38    6   35 1  
    39    7   36 1  
    40    8   37 1  
    41    8   38 1  
    42    8   39 1  
    43    9   40 1  
    44   10   41 1  
    45   10   42 1  
    46   10   43 1  
    47   11   44 1  
    48   12   45 1  
    49   13   46 1  
    50   13   47 1  
    51   19   48 1  
    52   19   49 1  
    53   19   50 1  
    54   20   51 1  
    55   26   52 1  
    56   26   53 1  
    57   26   54 1  
    58   28   55 1  
    59   30   56 1  
    60   30   57 1  
    61   31   58 1  
    62   31   59 1  
    63   31   60 1  
@<TRIPOS>SUBSTRUCTURE
     1 8AM         1

