### 
### Created by X-TOOL on Mon Sep 10 21:13:34 2018
### 

@<TRIPOS>MOLECULE
5uga_ligand
   71    75     1     0     0
SMALL
GAST_HUCK


@<TRIPOS>ATOM
      1 C5         13.9160   -6.8930  -29.8980 C.3       1 8BM         0.0361
      2 C6         14.3600   -5.7970  -30.8600 C.3       1 8BM        -0.0074
      3 C7         14.0430   -6.3550  -32.2590 C.3       1 8BM         0.0627
      4 C8         14.2820   -7.8550  -32.0810 C.3       1 8BM         0.0570
      5 C10        12.0700   -4.9410  -32.8810 C.ar      1 8BM         0.1549
      6 C15        15.3630   -2.1440  -32.7280 C.ar      1 8BM        -0.0486
      7 C17        17.2270   -0.4790  -32.6100 C.ar      1 8BM         0.0299
      8 C21        19.0830    1.2010  -32.4160 C.3       1 8BM         0.0649
      9 C22        20.3330    1.2970  -31.5350 C.3       1 8BM        -0.0123
     10 C24        22.6390    0.3890  -31.2490 C.3       1 8BM        -0.0430
     11 C26        19.5790   -1.0790  -33.0450 C.3       1 8BM         0.0649
     12 C1         13.5250  -10.5560  -31.0190 C.3       1 8BM         0.0258
     13 C2         13.5210   -9.3450  -30.1140 C.2       1 8BM         0.1754
     14 O3         13.2030   -9.4680  -28.9230 O.2       1 8BM        -0.3972
     15 N4         13.8870   -8.1220  -30.6870 N.am      1 8BM        -0.2711
     16 N9         12.6430   -6.1870  -32.6430 N.pl3     1 8BM        -0.2924
     17 N11        12.8360   -3.8020  -32.9420 N.ar      1 8BM        -0.2535
     18 C12        12.2760   -2.5560  -33.1770 C.ar      1 8BM         0.1372
     19 N13        13.0300   -1.3790  -33.2350 N.pl3     1 8BM        -0.2630
     20 C14        14.4100   -1.1390  -33.0530 C.ar      1 8BM         0.0524
     21 C16        16.7270   -1.8210  -32.5120 C.ar      1 8BM        -0.0526
     22 C18        16.2520    0.5220  -32.9540 C.ar      1 8BM        -0.0526
     23 C19        14.8810    0.2000  -33.1700 C.ar      1 8BM        -0.0486
     24 N20        18.5960   -0.1960  -32.3470 N.pl3     1 8BM        -0.3044
     25 N23        21.3910    0.3470  -32.0810 N.4       1 8BM         0.2358
     26 C25        20.8600   -1.0890  -32.1890 C.3       1 8BM        -0.0123
     27 C27        10.8690   -2.5100  -33.3470 C.ar      1 8BM         0.0949
     28 N28         9.9950   -1.4820  -33.5800 N.2       1 8BM        -0.3040
     29 C29         8.8070   -2.0600  -33.6310 C.2       1 8BM         0.1049
     30 N30         8.8710   -3.4250  -33.4420 N.pl3     1 8BM        -0.2247
     31 C31         7.7920   -4.4320  -33.4210 C.3       1 8BM         0.0648
     32 C32         7.7400   -5.2280  -34.7330 C.3       1 8BM        -0.0349
     33 C33         6.3960   -3.8390  -33.1550 C.3       1 8BM        -0.0349
     34 C34        10.1900   -3.7240  -33.2600 C.ar      1 8BM         0.1429
     35 N35        10.7200   -4.9480  -33.0370 N.ar      1 8BM        -0.2641
     36 H1         12.9159   -6.6703  -29.4978 H         1 8BM         0.0523
     37 H2         14.6308   -6.9872  -29.0673 H         1 8BM         0.0523
     38 H3         15.4374   -5.6015  -30.7551 H         1 8BM         0.0308
     39 H4         13.7993   -4.8687  -30.6762 H         1 8BM         0.0308
     40 H5         14.7021   -5.9127  -33.0206 H         1 8BM         0.0579
     41 H6         15.3419   -8.1026  -32.2402 H         1 8BM         0.0545
     42 H7         13.6611   -8.4345  -32.7800 H         1 8BM         0.0545
     43 H8         15.0407   -3.1756  -32.6439 H         1 8BM         0.0508
     44 H9         19.3350    1.4600  -33.4550 H         1 8BM         0.0563
     45 H10        18.3080    1.8876  -32.0445 H         1 8BM         0.0563
     46 H11        20.0803    1.0150  -30.5023 H         1 8BM         0.0834
     47 H12        20.7179    2.3273  -31.5500 H         1 8BM         0.0834
     48 H13        23.3821   -0.3058  -31.6674 H         1 8BM         0.0778
     49 H14        22.4014    0.0935  -30.2164 H         1 8BM         0.0778
     50 H15        23.0484    1.4100  -31.2533 H         1 8BM         0.0778
     51 H16        19.7975   -0.6830  -34.0477 H         1 8BM         0.0563
     52 H17        19.1754   -2.0984  -33.1333 H         1 8BM         0.0563
     53 H18        13.8311  -10.2557  -32.0320 H         1 8BM         0.0467
     54 H19        12.5150  -10.9903  -31.0549 H         1 8BM         0.0467
     55 H20        14.2318  -11.3031  -30.6288 H         1 8BM         0.0467
     56 H21        12.0549   -7.0268  -32.7418 H         1 8BM         0.1848
     57 H22        12.4795   -0.5352  -33.4490 H         1 8BM         0.2141
     58 H23        17.4184   -2.6180  -32.2634 H         1 8BM         0.0490
     59 H24        16.5707    1.5535  -33.0519 H         1 8BM         0.0490
     60 H25        14.1836    0.9887  -33.4281 H         1 8BM         0.0508
     61 H26        21.6292    0.6568  -33.0101 H         1 8BM         0.2032
     62 H27        21.6179   -1.7290  -32.6644 H         1 8BM         0.0834
     63 H28        20.6312   -1.4755  -31.1849 H         1 8BM         0.0834
     64 H29         7.8787   -1.5174  -33.8035 H         1 8BM         0.1310
     65 H30         8.0189   -5.1326  -32.6039 H         1 8BM         0.0642
     66 H31         6.9267   -5.9668  -34.6816 H         1 8BM         0.0259
     67 H32         8.6978   -5.7471  -34.8852 H         1 8BM         0.0259
     68 H33         7.5582   -4.5404  -35.5721 H         1 8BM         0.0259
     69 H34         5.6488   -4.6463  -33.1543 H         1 8BM         0.0259
     70 H35         6.1500   -3.1124  -33.9433 H         1 8BM         0.0259
     71 H36         6.3920   -3.3348  -32.1774 H         1 8BM         0.0259
@<TRIPOS>BOND
     1    2    1 1  
     2   15    1 1  
     3    3    2 1  
     4    3    4 1  
     5   16    3 1  
     6    4   15 1  
     7    5   16 1  
     8   17    5 ar 
     9    5   35 ar 
    10   20    6 ar 
    11    6   21 ar 
    12   21    7 ar 
    13    7   22 ar 
    14    7   24 1  
    15    8    9 1  
    16   24    8 1  
    17    9   25 1  
    18   25   10 1  
    19   24   11 1  
    20   11   26 1  
    21   13   12 1  
    22   13   14 2  
    23   15   13 am 
    24   18   17 ar 
    25   19   18 1  
    26   18   27 ar 
    27   19   20 1  
    28   20   23 ar 
    29   22   23 ar 
    30   25   26 1  
    31   27   28 1  
    32   27   34 ar 
    33   28   29 2  
    34   29   30 1  
    35   30   31 1  
    36   30   34 1  
    37   31   32 1  
    38   31   33 1  
    39   34   35 ar 
    40    1   36 1  
    41    1   37 1  
    42    2   38 1  
    43    2   39 1  
    44    3   40 1  
    45    4   41 1  
    46    4   42 1  
    47    6   43 1  
    48    8   44 1  
    49    8   45 1  
    50    9   46 1  
    51    9   47 1  
    52   10   48 1  
    53   10   49 1  
    54   10   50 1  
    55   11   51 1  
    56   11   52 1  
    57   12   53 1  
    58   12   54 1  
    59   12   55 1  
    60   16   56 1  
    61   19   57 1  
    62   21   58 1  
    63   22   59 1  
    64   23   60 1  
    65   25   61 1  
    66   26   62 1  
    67   26   63 1  
    68   29   64 1  
    69   31   65 1  
    70   32   66 1  
    71   32   67 1  
    72   32   68 1  
    73   33   69 1  
    74   33   70 1  
    75   33   71 1  
@<TRIPOS>SUBSTRUCTURE
     1 8BM         1

