### 
### Created by X-TOOL on Mon Sep 10 21:13:34 2018
### 

@<TRIPOS>MOLECULE
5ugb_ligand
   71    75     1     0     0
SMALL
GAST_HUCK


@<TRIPOS>ATOM
      1 C5          4.4040  -50.8020  -20.3420 C.3       1 8BM         0.0361
      2 C6          2.9740  -50.8360  -19.8530 C.3       1 8BM        -0.0074
      3 C7          2.1920  -50.0450  -20.9230 C.3       1 8BM         0.0627
      4 C8          3.1810  -48.9740  -21.3360 C.3       1 8BM         0.0570
      5 C10         0.8920  -51.8940  -22.0200 C.ar      1 8BM         0.1549
      6 C15        -1.5350  -53.3390  -16.9540 C.ar      1 8BM        -0.0486
      7 C17        -0.3280  -51.7770  -15.4540 C.ar      1 8BM         0.0299
      8 C21        -0.5860  -49.9570  -13.8780 C.3       1 8BM         0.0649
      9 C22        -0.5040  -49.7120  -12.3630 C.3       1 8BM        -0.0123
     10 C24         1.0780  -49.6710  -10.4220 C.3       1 8BM        -0.0430
     11 C26         1.3520  -51.4820  -13.7460 C.3       1 8BM         0.0649
     12 C1          6.9730  -49.3430  -20.7720 C.3       1 8BM         0.0258
     13 C2          5.6470  -48.7280  -21.1930 C.2       1 8BM         0.1754
     14 O3          5.6220  -47.6030  -21.7150 O.2       1 8BM        -0.3972
     15 N4          4.4960  -49.4830  -20.9610 N.am      1 8BM        -0.2711
     16 N9          1.8350  -50.8560  -22.1060 N.pl3     1 8BM        -0.2924
     17 N11         0.3130  -52.1380  -20.8140 N.ar      1 8BM        -0.2535
     18 C12        -0.6070  -53.1200  -20.6040 C.ar      1 8BM         0.1372
     19 N13        -1.1910  -53.3460  -19.3530 N.pl3     1 8BM        -0.2630
     20 C14        -0.8820  -52.7940  -18.0910 C.ar      1 8BM         0.0524
     21 C16        -1.2620  -52.8390  -15.6620 C.ar      1 8BM        -0.0526
     22 C18         0.3240  -51.2270  -16.6030 C.ar      1 8BM        -0.0526
     23 C19         0.0480  -51.7270  -17.8800 C.ar      1 8BM        -0.0486
     24 N20        -0.0860  -51.3290  -14.1340 N.pl3     1 8BM        -0.3044
     25 N23         0.9480  -49.8950  -11.8990 N.4       1 8BM         0.2358
     26 C25         1.4880  -51.2760  -12.2460 C.3       1 8BM        -0.0123
     27 C27        -0.9600  -53.9110  -21.7100 C.ar      1 8BM         0.0949
     28 N28        -1.8270  -54.9470  -21.8220 N.2       1 8BM        -0.3040
     29 C29        -1.7570  -55.2930  -23.0900 C.2       1 8BM         0.1049
     30 N30        -0.8820  -54.5290  -23.8190 N.pl3     1 8BM        -0.2247
     31 C31        -0.6680  -54.7400  -25.2630 C.3       1 8BM         0.0648
     32 C32         0.3420  -55.8270  -25.5630 C.3       1 8BM        -0.0349
     33 C33        -0.2720  -53.4720  -26.0440 C.3       1 8BM        -0.0349
     34 C34        -0.3350  -53.6110  -22.9290 C.ar      1 8BM         0.1429
     35 N35         0.5910  -52.6230  -23.1440 N.ar      1 8BM        -0.2641
     36 H1          4.5920  -51.5994  -21.0761 H         1 8BM         0.0523
     37 H2          5.1123  -50.8988  -19.5060 H         1 8BM         0.0523
     38 H3          2.8862  -50.3531  -18.8686 H         1 8BM         0.0308
     39 H4          2.6081  -51.8713  -19.7876 H         1 8BM         0.0308
     40 H5          1.2798  -49.6071  -20.4916 H         1 8BM         0.0579
     41 H6          2.9695  -48.0327  -20.8076 H         1 8BM         0.0545
     42 H7          3.1311  -48.8043  -22.4217 H         1 8BM         0.0545
     43 H8         -2.2487  -54.1453  -17.0788 H         1 8BM         0.0508
     44 H9          0.0373  -49.2243  -14.4115 H         1 8BM         0.0563
     45 H10        -1.6285  -49.8676  -14.2173 H         1 8BM         0.0563
     46 H11        -1.1509  -50.4307  -11.8387 H         1 8BM         0.0834
     47 H12        -0.8357  -48.6877  -12.1376 H         1 8BM         0.0834
     48 H13         2.1270  -49.8090  -10.1212 H         1 8BM         0.0778
     49 H14         0.4446  -50.3921   -9.8846 H         1 8BM         0.0778
     50 H15         0.7578  -48.6476  -10.1767 H         1 8BM         0.0778
     51 H16         1.9583  -50.7333  -14.2769 H         1 8BM         0.0563
     52 H17         1.6998  -52.4911  -14.0120 H         1 8BM         0.0563
     53 H18         6.7938  -50.3353  -20.3324 H         1 8BM         0.0467
     54 H19         7.4581  -48.6944  -20.0277 H         1 8BM         0.0467
     55 H20         7.6260  -49.4441  -21.6514 H         1 8BM         0.0467
     56 H21         2.2859  -50.6565  -23.0103 H         1 8BM         0.1848
     57 H22        -1.9687  -54.0213  -19.3527 H         1 8BM         0.2141
     58 H23        -1.7723  -53.2703  -14.8084 H         1 8BM         0.0490
     59 H24         1.0358  -50.4183  -16.4831 H         1 8BM         0.0490
     60 H25         0.5536  -51.2933  -18.7352 H         1 8BM         0.0508
     61 H26         1.5121  -49.2083  -12.3747 H         1 8BM         0.2032
     62 H27         2.5469  -51.3443  -11.9562 H         1 8BM         0.0834
     63 H28         0.9113  -52.0453  -11.7116 H         1 8BM         0.0834
     64 H29        -2.3382  -56.1079  -23.5191 H         1 8BM         0.1310
     65 H30        -1.6348  -55.0749  -25.6669 H         1 8BM         0.0642
     66 H31         0.4541  -55.9329  -26.6521 H         1 8BM         0.0259
     67 H32        -0.0062  -56.7791  -25.1360 H         1 8BM         0.0259
     68 H33         1.3120  -55.5589  -25.1189 H         1 8BM         0.0259
     69 H34        -0.1342  -53.7236  -27.1059 H         1 8BM         0.0259
     70 H35         0.6676  -53.0695  -25.6376 H         1 8BM         0.0259
     71 H36        -1.0667  -52.7178  -25.9460 H         1 8BM         0.0259
@<TRIPOS>BOND
     1    2    1 1  
     2   15    1 1  
     3    3    2 1  
     4    3    4 1  
     5   16    3 1  
     6    4   15 1  
     7    5   16 1  
     8   17    5 ar 
     9    5   35 ar 
    10   20    6 ar 
    11    6   21 ar 
    12   21    7 ar 
    13    7   22 ar 
    14    7   24 1  
    15    8    9 1  
    16   24    8 1  
    17    9   25 1  
    18   25   10 1  
    19   24   11 1  
    20   11   26 1  
    21   13   12 1  
    22   13   14 2  
    23   15   13 am 
    24   18   17 ar 
    25   19   18 1  
    26   18   27 ar 
    27   19   20 1  
    28   20   23 ar 
    29   22   23 ar 
    30   25   26 1  
    31   27   28 1  
    32   27   34 ar 
    33   28   29 2  
    34   29   30 1  
    35   30   31 1  
    36   30   34 1  
    37   31   32 1  
    38   31   33 1  
    39   34   35 ar 
    40    1   36 1  
    41    1   37 1  
    42    2   38 1  
    43    2   39 1  
    44    3   40 1  
    45    4   41 1  
    46    4   42 1  
    47    6   43 1  
    48    8   44 1  
    49    8   45 1  
    50    9   46 1  
    51    9   47 1  
    52   10   48 1  
    53   10   49 1  
    54   10   50 1  
    55   11   51 1  
    56   11   52 1  
    57   12   53 1  
    58   12   54 1  
    59   12   55 1  
    60   16   56 1  
    61   19   57 1  
    62   21   58 1  
    63   22   59 1  
    64   23   60 1  
    65   25   61 1  
    66   26   62 1  
    67   26   63 1  
    68   29   64 1  
    69   31   65 1  
    70   32   66 1  
    71   32   67 1  
    72   32   68 1  
    73   33   69 1  
    74   33   70 1  
    75   33   71 1  
@<TRIPOS>SUBSTRUCTURE
     1 8BM         1

