### 
### Created by X-TOOL on Mon Sep 10 21:13:33 2018
### 

@<TRIPOS>MOLECULE
5ugc_ligand
   54    57     1     0     0
SMALL
GAST_HUCK


@<TRIPOS>ATOM
      1 C5        -15.0620   16.6030  -25.6110 C.3       1 8BS         0.0583
      2 C6        -13.2960   15.7470  -27.1490 C.ar      1 8BS         0.1560
      3 C8        -13.3240   13.3790  -27.5890 C.ar      1 8BS         0.1308
      4 C10       -11.6800   14.8600  -28.4990 C.ar      1 8BS         0.1413
      5 N12       -10.5940   14.7630  -29.3130 N.pl3     1 8BS        -0.2308
      6 C13       -10.4560   13.4440  -29.6560 C.2       1 8BS         0.1040
      7 C15        -9.7480   15.8520  -29.7370 C.3       1 8BS         0.0485
      8 C17       -15.1190   11.8410  -26.7970 C.2       1 8BS         0.1075
      9 C21       -15.8820   10.6910  -27.0500 C.2       1 8BS         0.1655
     10 C24       -18.0140   12.0750  -24.6620 C.3       1 8BS         0.0504
     11 C28       -14.0800   18.0860  -21.4410 C.3       1 8BS         0.0344
     12 C1        -15.3170   18.0080  -25.0490 C.3       1 8BS         0.0952
     13 C2        -14.6970   18.9160  -26.0950 C.3       1 8BS         0.1458
     14 C3        -13.4440   18.1590  -26.5260 C.3       1 8BS         0.0658
     15 N4        -13.8990   16.7860  -26.4740 N.pl3     1 8BS        -0.2787
     16 N7        -13.8470   14.5090  -26.9970 N.ar      1 8BS        -0.2556
     17 C9        -12.1660   13.5560  -28.3890 C.ar      1 8BS         0.0931
     18 N11       -12.1910   15.9810  -27.9150 N.ar      1 8BS        -0.2653
     19 N14       -11.3900   12.6860  -29.1170 N.2       1 8BS        -0.3046
     20 N16       -13.9450   12.1250  -27.4310 N.pl3     1 8BS        -0.2744
     21 C18       -15.8440   12.5310  -25.8370 C.2       1 8BS         0.0611
     22 N19       -16.9490   11.7730  -25.5900 N.pl3     1 8BS        -0.2336
     23 N20       -17.0040   10.6400  -26.3160 N.2       1 8BS        -0.2099
     24 O22       -15.5240    9.7320  -27.9550 O.3       1 8BS        -0.3209
     25 C23       -16.4200    8.6310  -28.1090 C.3       1 8BS         0.0564
     26 F25       -15.5660   19.0150  -27.1490 F         1 8BS        -0.2409
     27 N26       -14.6050   18.1890  -23.7740 N.am      1 8BS        -0.2791
     28 C27       -15.0610   17.7210  -22.5510 C.2       1 8BS         0.1761
     29 C29       -14.3550   17.3890  -20.1160 C.3       1 8BS        -0.0482
     30 O30       -16.1100   17.0990  -22.3720 O.2       1 8BS        -0.3971
     31 H1        -15.9280   16.2476  -26.1887 H         1 8BS         0.0548
     32 H2        -14.8431   15.8901  -24.8025 H         1 8BS         0.0548
     33 H3         -9.6646   13.0647  -30.3007 H         1 8BS         0.1307
     34 H4        -10.1121   16.7920  -29.2968 H         1 8BS         0.0575
     35 H5         -9.7705   15.9281  -30.8341 H         1 8BS         0.0575
     36 H6         -8.7164   15.6663  -29.4033 H         1 8BS         0.0575
     37 H7        -17.8034   13.0313  -24.1609 H         1 8BS         0.0584
     38 H8        -18.0834   11.2748  -23.9105 H         1 8BS         0.0584
     39 H9        -18.9661   12.1490  -25.2079 H         1 8BS         0.0584
     40 H10       -14.1319   19.1725  -21.2773 H         1 8BS         0.0500
     41 H11       -13.0670   17.8129  -21.7714 H         1 8BS         0.0500
     42 H12       -16.3917   18.2040  -24.9202 H         1 8BS         0.0606
     43 H13       -14.4558   19.9103  -25.6910 H         1 8BS         0.0696
     44 H14       -12.6110   18.3321  -25.8287 H         1 8BS         0.0554
     45 H15       -13.1352   18.4409  -27.5434 H         1 8BS         0.0554
     46 H16       -13.4511   11.3220  -27.8459 H         1 8BS         0.2061
     47 H17       -15.5838   13.4825  -25.3757 H         1 8BS         0.0810
     48 H18       -16.0198    7.9350  -28.8609 H         1 8BS         0.0570
     49 H19       -17.4023    9.0009  -28.4379 H         1 8BS         0.0570
     50 H20       -16.5281    8.1089  -27.1469 H         1 8BS         0.0570
     51 H21       -13.7351   18.6819  -23.7906 H         1 8BS         0.1856
     52 H22       -13.6073   17.7048  -19.3735 H         1 8BS         0.0254
     53 H23       -14.2957   16.2995  -20.2555 H         1 8BS         0.0254
     54 H24       -15.3606   17.6591  -19.7614 H         1 8BS         0.0254
@<TRIPOS>BOND
     1   12    1 1  
     2    1   15 1  
     3   15    2 1  
     4    2   16 ar 
     5    2   18 ar 
     6   16    3 ar 
     7    3   17 ar 
     8    3   20 1  
     9    4    5 1  
    10    4   17 ar 
    11   18    4 ar 
    12    5    6 1  
    13    5    7 1  
    14   19    6 2  
    15    8    9 1  
    16   20    8 1  
    17    8   21 2  
    18    9   23 2  
    19    9   24 1  
    20   22   10 1  
    21   28   11 1  
    22   11   29 1  
    23   12   13 1  
    24   27   12 1  
    25   13   14 1  
    26   13   26 1  
    27   14   15 1  
    28   17   19 1  
    29   21   22 1  
    30   22   23 1  
    31   24   25 1  
    32   27   28 am 
    33   28   30 2  
    34    1   31 1  
    35    1   32 1  
    36    6   33 1  
    37    7   34 1  
    38    7   35 1  
    39    7   36 1  
    40   10   37 1  
    41   10   38 1  
    42   10   39 1  
    43   11   40 1  
    44   11   41 1  
    45   12   42 1  
    46   13   43 1  
    47   14   44 1  
    48   14   45 1  
    49   20   46 1  
    50   21   47 1  
    51   25   48 1  
    52   25   49 1  
    53   25   50 1  
    54   27   51 1  
    55   29   52 1  
    56   29   53 1  
    57   29   54 1  
@<TRIPOS>SUBSTRUCTURE
     1 8BS         1

