### 
### Created by X-TOOL on Mon Sep 10 21:13:31 2018
### 

@<TRIPOS>MOLECULE
5ugd_ligand
   85    87     1     0     0
SMALL
GAST_HUCK


@<TRIPOS>ATOM
      1 CAA        14.2660  -12.7070  140.0880 C.3       1 89S        -0.0653
      2 CAM        13.5700  -11.8460  139.0310 C.3       1 89S        -0.0559
      3 CAO        13.5810  -10.3760  139.4650 C.3       1 89S        -0.0533
      4 CAP        14.4960   -9.5700  138.5350 C.3       1 89S        -0.0531
      5 CAQ        14.1630   -8.0780  138.6660 C.3       1 89S        -0.0530
      6 CAR        15.4580   -7.2630  138.6400 C.3       1 89S        -0.0512
      7 CAS        15.5850   -6.5250  137.3040 C.3       1 89S        -0.0327
      8 CAT        17.0700   -6.2590  136.9870 C.3       1 89S         0.0310
      9 NBB        17.1900   -5.9700  135.5390 N.am      1 89S        -0.2849
     10 C          18.2090   -6.3880  134.7650 C.2       1 89S         0.2035
     11 O          19.1800   -7.0670  135.1370 O.2       1 89S        -0.3944
     12 CA         18.0480   -6.0460  133.2890 C.3       1 89S         0.1388
     13 N          19.2610   -5.4020  132.7320 N.am      1 89S        -0.2638
     14 CBF        19.5530   -4.1220  133.0530 C.2       1 89S         0.1814
     15 OAD        18.8840   -3.4330  133.8420 O.2       1 89S        -0.3966
     16 CBK        20.8070   -3.5800  132.3750 C.3       1 89S         0.0488
     17 CAW        22.0280   -3.9330  133.2740 C.3       1 89S        -0.0328
     18 CAU        23.3240   -3.4350  132.6180 C.3       1 89S        -0.0431
     19 CBJ        23.2660   -1.9160  132.3850 C.3       1 89S        -0.0006
     20 CAN        24.5570   -1.4870  131.7050 C.3       1 89S        -0.0325
     21 NAB        24.6720   -0.0230  131.5920 N.4       1 89S         0.2187
     22 CAV        22.0570   -1.5770  131.4870 C.3       1 89S        -0.0431
     23 CAX        20.7560   -2.0280  132.1730 C.3       1 89S        -0.0328
     24 CB         17.6660   -7.2650  132.4630 C.3       1 89S         0.0163
     25 CG         16.4500   -7.8580  132.9120 C.ar      1 89S        -0.0493
     26 CD2        15.2110   -7.2440  132.7070 C.ar      1 89S        -0.0685
     27 CE2        14.0240   -7.8720  133.1180 C.ar      1 89S        -0.0393
     28 CD1        16.4930   -9.1230  133.5260 C.ar      1 89S        -0.0685
     29 CE1        15.3120   -9.7520  133.9410 C.ar      1 89S        -0.0393
     30 CZ         14.0730   -9.1250  133.7510 C.ar      1 89S         0.0872
     31 OH         12.8930   -9.7690  134.0520 O.3       1 89S        -0.3077
     32 CAY        12.4850   -9.9180  135.4210 C.3       1 89S         0.1099
     33 CBG        11.1070  -10.1950  135.5200 C.ar      1 89S         0.0069
     34 CAG        10.6530  -11.0280  136.5490 C.ar      1 89S        -0.0299
     35 CAE         9.2830  -11.2660  136.7010 C.ar      1 89S         0.0031
     36 NBA         8.3580  -10.6550  135.8280 N.ar      1 89S        -0.3066
     37 CAF         8.8130   -9.8170  134.7900 C.ar      1 89S         0.0031
     38 CAH        10.1860   -9.5990  134.6540 C.ar      1 89S        -0.0299
     39 H1         14.2539  -13.7598  139.7693 H         1 89S         0.0230
     40 H2         13.7373  -12.6083  141.0475 H         1 89S         0.0230
     41 H3         15.3069  -12.3718  140.2067 H         1 89S         0.0230
     42 H4         12.5298  -12.1835  138.9129 H         1 89S         0.0263
     43 H5         14.0994  -11.9470  138.0721 H         1 89S         0.0263
     44 H6         13.9527  -10.3023  140.4977 H         1 89S         0.0265
     45 H7         12.5593   -9.9717  139.4133 H         1 89S         0.0265
     46 H8         14.3386   -9.8918  137.4950 H         1 89S         0.0265
     47 H9         15.5461   -9.7383  138.8160 H         1 89S         0.0265
     48 H10        13.6375   -7.9014  139.6161 H         1 89S         0.0265
     49 H11        13.5195   -7.7708  137.8285 H         1 89S         0.0265
     50 H12        16.3166   -7.9390  138.7659 H         1 89S         0.0266
     51 H13        15.4443   -6.5308  139.4608 H         1 89S         0.0266
     52 H14        15.0484   -5.5667  137.3648 H         1 89S         0.0285
     53 H15        15.1467   -7.1407  136.5047 H         1 89S         0.0285
     54 H16        17.6695   -7.1458  137.2405 H         1 89S         0.0520
     55 H17        17.4264   -5.3966  137.5695 H         1 89S         0.0520
     56 H18        16.4672   -5.4294  135.1086 H         1 89S         0.1851
     57 H19        17.2238   -5.3217  133.2108 H         1 89S         0.0821
     58 H20        19.8629   -5.9141  132.1192 H         1 89S         0.1884
     59 H21        20.9187   -4.0613  131.3923 H         1 89S         0.0538
     60 H22        22.0814   -5.0240  133.4041 H         1 89S         0.0292
     61 H23        21.9086   -3.4520  134.2560 H         1 89S         0.0292
     62 H24        23.4584   -3.9436  131.6520 H         1 89S         0.0271
     63 H25        24.1743   -3.6672  133.2761 H         1 89S         0.0271
     64 H26        23.1638   -1.3951  133.3484 H         1 89S         0.0352
     65 H27        24.5862   -1.9226  130.6954 H         1 89S         0.0816
     66 H28        25.4076   -1.8639  132.2918 H         1 89S         0.0816
     67 H29        25.5402    0.2117  131.1367 H         1 89S         0.1994
     68 H30        24.6537    0.3875  132.5124 H         1 89S         0.1994
     69 H31        23.9010    0.3338  131.0495 H         1 89S         0.1994
     70 H32        22.1608   -2.0968  130.5232 H         1 89S         0.0271
     71 H33        22.0222   -0.4909  131.3160 H         1 89S         0.0271
     72 H34        20.6608   -1.5305  133.1494 H         1 89S         0.0292
     73 H35        19.8944   -1.7650  131.5418 H         1 89S         0.0292
     74 H36        18.4720   -8.0099  132.5365 H         1 89S         0.0453
     75 H37        17.5446   -6.9584  131.4136 H         1 89S         0.0453
     76 H38        15.1660   -6.2736  132.2261 H         1 89S         0.0530
     77 H39        13.0687   -7.3892  132.9465 H         1 89S         0.0525
     78 H40        17.4469   -9.6146  133.6791 H         1 89S         0.0530
     79 H41        15.3566  -10.7278  134.4111 H         1 89S         0.0525
     80 H42        12.7023   -8.9856  135.9626 H         1 89S         0.0803
     81 H43        13.0498  -10.7458  135.8746 H         1 89S         0.0803
     82 H44        11.3622  -11.4882  137.2274 H         1 89S         0.0652
     83 H45         8.9315  -11.9206  137.4903 H         1 89S         0.0803
     84 H46         8.1101   -9.3501  134.1095 H         1 89S         0.0803
     85 H47        10.5447   -8.9540  133.8601 H         1 89S         0.0652
@<TRIPOS>BOND
     1    1    2 1  
     2    2    3 1  
     3    3    4 1  
     4    4    5 1  
     5    5    6 1  
     6    6    7 1  
     7    7    8 1  
     8    8    9 1  
     9    9   10 am 
    10   10   11 2  
    11   10   12 1  
    12   12   13 1  
    13   12   24 1  
    14   13   14 am 
    15   14   15 2  
    16   14   16 1  
    17   16   17 1  
    18   16   23 1  
    19   17   18 1  
    20   18   19 1  
    21   19   20 1  
    22   19   22 1  
    23   20   21 1  
    24   22   23 1  
    25   24   25 1  
    26   25   26 ar 
    27   25   28 ar 
    28   26   27 ar 
    29   27   30 ar 
    30   28   29 ar 
    31   29   30 ar 
    32   30   31 1  
    33   31   32 1  
    34   32   33 1  
    35   33   34 ar 
    36   33   38 ar 
    37   34   35 ar 
    38   35   36 ar 
    39   36   37 ar 
    40   37   38 ar 
    41    1   39 1  
    42    1   40 1  
    43    1   41 1  
    44    2   42 1  
    45    2   43 1  
    46    3   44 1  
    47    3   45 1  
    48    4   46 1  
    49    4   47 1  
    50    5   48 1  
    51    5   49 1  
    52    6   50 1  
    53    6   51 1  
    54    7   52 1  
    55    7   53 1  
    56    8   54 1  
    57    8   55 1  
    58    9   56 1  
    59   12   57 1  
    60   13   58 1  
    61   16   59 1  
    62   17   60 1  
    63   17   61 1  
    64   18   62 1  
    65   18   63 1  
    66   19   64 1  
    67   20   65 1  
    68   20   66 1  
    69   21   67 1  
    70   21   68 1  
    71   21   69 1  
    72   22   70 1  
    73   22   71 1  
    74   23   72 1  
    75   23   73 1  
    76   24   74 1  
    77   24   75 1  
    78   26   76 1  
    79   27   77 1  
    80   28   78 1  
    81   29   79 1  
    82   32   80 1  
    83   32   81 1  
    84   34   82 1  
    85   35   83 1  
    86   37   84 1  
    87   38   85 1  
@<TRIPOS>SUBSTRUCTURE
     1 89S         1

