### 
### Created by X-TOOL on Mon Sep 10 21:13:31 2018
### 

@<TRIPOS>MOLECULE
5ugg_ligand
   91    94     1     0     0
SMALL
GAST_HUCK


@<TRIPOS>ATOM
      1 CAA        24.7810  -15.8460   52.6080 C.3       1 89M        -0.0653
      2 CAO        25.0400  -14.7500   51.5650 C.3       1 89M        -0.0559
      3 CAQ        23.8300  -13.8080   51.5180 C.3       1 89M        -0.0533
      4 CAR        24.1680  -12.5660   50.6900 C.3       1 89M        -0.0531
      5 CAS        24.3090  -11.3430   51.6090 C.3       1 89M        -0.0530
      6 CAT        25.7090  -10.7320   51.4880 C.3       1 89M        -0.0512
      7 CAU        25.7620   -9.7770   50.2820 C.3       1 89M        -0.0327
      8 CAV        27.2180   -9.4080   49.9710 C.3       1 89M         0.0310
      9 NBD        27.3310   -9.0760   48.5340 N.am      1 89M        -0.2849
     10 C          28.3130   -9.5440   47.7620 C.2       1 89M         0.2035
     11 O          29.2370  -10.2800   48.1600 O.2       1 89M        -0.3944
     12 CA         28.1980   -9.1540   46.2950 C.3       1 89M         0.1388
     13 N          29.4460   -8.5510   45.7910 N.am      1 89M        -0.2638
     14 CBH        29.7730   -7.2910   46.1270 C.2       1 89M         0.1814
     15 OAD        29.1100   -6.6020   46.9020 O.2       1 89M        -0.3966
     16 CBO        31.0460   -6.7610   45.4810 C.3       1 89M         0.0488
     17 CAY        30.9840   -5.2220   45.2470 C.3       1 89M        -0.0328
     18 CAW        32.2910   -4.7430   44.5740 C.3       1 89M        -0.0431
     19 CBN        33.5030   -5.1000   45.4620 C.3       1 89M        -0.0006
     20 CAP        34.8090   -4.6580   44.8160 C.3       1 89M        -0.0325
     21 NAB        34.9210   -3.2020   44.6640 N.4       1 89M         0.2187
     22 CAX        33.5730   -6.6100   45.7240 C.3       1 89M        -0.0431
     23 CAZ        32.2720   -7.1110   46.3690 C.3       1 89M        -0.0328
     24 CB         27.7880  -10.3770   45.4720 C.3       1 89M         0.0163
     25 CG         26.5190  -10.9080   45.8920 C.ar      1 89M        -0.0493
     26 CD2        25.3690  -10.1060   45.7970 C.ar      1 89M        -0.0685
     27 CE2        24.1130  -10.6040   46.1570 C.ar      1 89M        -0.0393
     28 CD1        26.3860  -12.2320   46.3750 C.ar      1 89M        -0.0685
     29 CE1        25.1270  -12.7210   46.7650 C.ar      1 89M        -0.0393
     30 CZ         23.9880  -11.9140   46.6300 C.ar      1 89M         0.0874
     31 OH         22.7140  -12.2910   46.9950 O.3       1 89M        -0.3062
     32 CBA        22.3960  -13.6460   47.4490 C.3       1 89M         0.1197
     33 CBK        20.9920  -13.8210   47.4580 C.ar      1 89M         0.0570
     34 NBC        20.4760  -15.0680   47.6020 N.ar      1 89M        -0.2978
     35 CBM        19.1440  -15.3280   47.5280 C.ar      1 89M         0.0363
     36 CAM        18.6600  -16.6300   47.7210 C.ar      1 89M        -0.0435
     37 CAF        17.2920  -16.9050   47.6200 C.ar      1 89M        -0.0585
     38 CAE        16.3770  -15.8620   47.4150 C.ar      1 89M        -0.0581
     39 CAL        16.8450  -14.5450   47.2760 C.ar      1 89M        -0.0488
     40 CBL        18.2290  -14.2870   47.3070 C.ar      1 89M         0.0021
     41 CAN        18.7310  -12.9830   47.2260 C.ar      1 89M        -0.0375
     42 CAK        20.1110  -12.7620   47.2340 C.ar      1 89M        -0.0251
     43 H1         25.6448  -16.5259   52.6476 H         1 89M         0.0230
     44 H2         23.8807  -16.4129   52.3284 H         1 89M         0.0230
     45 H3         24.6320  -15.3847   53.5954 H         1 89M         0.0230
     46 H4         25.1881  -15.2093   50.5765 H         1 89M         0.0263
     47 H5         25.9394  -14.1812   51.8435 H         1 89M         0.0263
     48 H6         23.5653  -13.5031   52.5412 H         1 89M         0.0265
     49 H7         22.9781  -14.3313   51.0593 H         1 89M         0.0265
     50 H8         23.3637  -12.3836   49.9622 H         1 89M         0.0265
     51 H9         25.1153  -12.7312   50.1559 H         1 89M         0.0265
     52 H10        24.1393  -11.6528   52.6507 H         1 89M         0.0265
     53 H11        23.5604  -10.5891   51.3240 H         1 89M         0.0265
     54 H12        26.4469  -11.5358   51.3492 H         1 89M         0.0266
     55 H13        25.9436  -10.1733   52.4060 H         1 89M         0.0266
     56 H14        25.1962   -8.8630   50.5155 H         1 89M         0.0285
     57 H15        25.3160  -10.2707   49.4061 H         1 89M         0.0285
     58 H16        27.8732  -10.2598   50.2059 H         1 89M         0.0520
     59 H17        27.5159   -8.5386   50.5754 H         1 89M         0.0520
     60 H18        26.6433   -8.4764   48.1247 H         1 89M         0.1851
     61 H19        27.4029   -8.3994   46.2040 H         1 89M         0.0821
     62 H20        30.0512   -9.0813   45.1972 H         1 89M         0.1884
     63 H21        31.1670   -7.2528   44.5045 H         1 89M         0.0538
     64 H22        30.8615   -4.7101   46.2129 H         1 89M         0.0292
     65 H23        30.1297   -4.9855   44.5957 H         1 89M         0.0292
     66 H24        32.2505   -3.6527   44.4340 H         1 89M         0.0271
     67 H25        32.3986   -5.2346   43.5959 H         1 89M         0.0271
     68 H26        33.3903   -4.5789   46.4242 H         1 89M         0.0352
     69 H27        34.8787   -5.1189   43.8197 H         1 89M         0.0816
     70 H28        35.6434   -5.0084   45.4413 H         1 89M         0.0816
     71 H29        35.8035   -2.9762   44.2324 H         1 89M         0.1994
     72 H30        34.8686   -2.7645   45.5706 H         1 89M         0.1994
     73 H31        34.1679   -2.8657   44.0846 H         1 89M         0.1994
     74 H32        34.4151   -6.8204   46.3997 H         1 89M         0.0271
     75 H33        33.7283   -7.1351   44.7700 H         1 89M         0.0271
     76 H34        32.3279   -8.2026   46.4928 H         1 89M         0.0292
     77 H35        32.1515   -6.6360   47.3538 H         1 89M         0.0292
     78 H36        28.5552  -11.1567   45.5881 H         1 89M         0.0453
     79 H37        27.7183  -10.0858   44.4136 H         1 89M         0.0453
     80 H38        25.4569   -9.0864   45.4394 H         1 89M         0.0530
     81 H39        23.2353   -9.9739   46.0693 H         1 89M         0.0525
     82 H40        27.2586  -12.8714   46.4444 H         1 89M         0.0530
     83 H41        25.0365  -13.7223   47.1703 H         1 89M         0.0525
     84 H42        22.7909  -13.7949   48.4648 H         1 89M         0.0821
     85 H43        22.8527  -14.3783   46.7670 H         1 89M         0.0821
     86 H44        19.3528  -17.4314   47.9508 H         1 89M         0.0623
     87 H45        16.9384  -17.9266   47.7004 H         1 89M         0.0645
     88 H46        15.3146  -16.0711   47.3641 H         1 89M         0.0622
     89 H47        16.1428  -13.7296   47.1452 H         1 89M         0.0649
     90 H48        18.0487  -12.1435   47.1570 H         1 89M         0.0764
     91 H49        20.4987  -11.7638   47.0655 H         1 89M         0.0661
@<TRIPOS>BOND
     1    1    2 1  
     2    2    3 1  
     3    3    4 1  
     4    4    5 1  
     5    5    6 1  
     6    6    7 1  
     7    7    8 1  
     8    8    9 1  
     9    9   10 am 
    10   10   11 2  
    11   10   12 1  
    12   12   13 1  
    13   12   24 1  
    14   13   14 am 
    15   14   15 2  
    16   14   16 1  
    17   16   17 1  
    18   16   23 1  
    19   17   18 1  
    20   18   19 1  
    21   19   20 1  
    22   19   22 1  
    23   20   21 1  
    24   22   23 1  
    25   24   25 1  
    26   25   26 ar 
    27   25   28 ar 
    28   26   27 ar 
    29   27   30 ar 
    30   28   29 ar 
    31   29   30 ar 
    32   30   31 1  
    33   31   32 1  
    34   32   33 1  
    35   33   34 ar 
    36   33   42 ar 
    37   34   35 ar 
    38   35   36 ar 
    39   35   40 ar 
    40   36   37 ar 
    41   37   38 ar 
    42   38   39 ar 
    43   39   40 ar 
    44   40   41 ar 
    45   41   42 ar 
    46    1   43 1  
    47    1   44 1  
    48    1   45 1  
    49    2   46 1  
    50    2   47 1  
    51    3   48 1  
    52    3   49 1  
    53    4   50 1  
    54    4   51 1  
    55    5   52 1  
    56    5   53 1  
    57    6   54 1  
    58    6   55 1  
    59    7   56 1  
    60    7   57 1  
    61    8   58 1  
    62    8   59 1  
    63    9   60 1  
    64   12   61 1  
    65   13   62 1  
    66   16   63 1  
    67   17   64 1  
    68   17   65 1  
    69   18   66 1  
    70   18   67 1  
    71   19   68 1  
    72   20   69 1  
    73   20   70 1  
    74   21   71 1  
    75   21   72 1  
    76   21   73 1  
    77   22   74 1  
    78   22   75 1  
    79   23   76 1  
    80   23   77 1  
    81   24   78 1  
    82   24   79 1  
    83   26   80 1  
    84   27   81 1  
    85   28   82 1  
    86   29   83 1  
    87   32   84 1  
    88   32   85 1  
    89   36   86 1  
    90   37   87 1  
    91   38   88 1  
    92   39   89 1  
    93   41   90 1  
    94   42   91 1  
@<TRIPOS>SUBSTRUCTURE
     1 89M         1

