### 
### Created by X-TOOL on Mon Sep 10 21:13:31 2018
### 

@<TRIPOS>MOLECULE
5ugh_ligand
   45    48     1     0     0
SMALL
GAST_HUCK


@<TRIPOS>ATOM
      1 C10         2.0120    7.4200   18.1320 C.ar      1 8AJ        -0.0495
      2 C13         3.3810    7.0660   18.4770 C.ar      1 8AJ         0.0360
      3 C15         6.4400    4.3190   15.7120 C.ar      1 8AJ        -0.0525
      4 C17        -3.0170    8.9840   14.3510 C.3       1 8AJ        -0.0432
      5 N01         2.0550    6.7050   14.3930 N.pl3     1 8AJ        -0.1678
      6 C01         2.4660    6.8370   15.7680 C.ar      1 8AJ         0.1193
      7 C02         2.9130    6.2650   13.4260 C.2       1 8AJ         0.1537
      8 C03         0.7800    6.9590   13.6840 C.2       1 8AJ         0.1569
      9 C04         3.7890    6.5040   16.1300 C.ar      1 8AJ         0.0266
     10 C05         1.5740    7.3030   16.8010 C.ar      1 8AJ        -0.0213
     11 C06         4.2720    5.9130   13.7490 C.2       1 8AJ        -0.0013
     12 N02         2.2150    6.2420   12.1690 N.2       1 8AJ        -0.2778
     13 N03         0.9510    6.6590   12.3650 N.2       1 8AJ        -0.2677
     14 C07        -0.5440    7.4530   14.2310 C.3       1 8AJ         0.0697
     15 C08         4.7160    6.0390   15.1060 C.2       1 8AJ        -0.0015
     16 C09         4.2370    6.6240   17.5010 C.ar      1 8AJ        -0.0401
     17 C11        -1.7350    7.2980   13.3420 C.3       1 8AJ        -0.0163
     18 C12         6.1540    5.6480   15.4580 C.ar      1 8AJ        -0.0142
     19 N          -3.0130    7.5940   13.9080 N.4       1 8AJ         0.2327
     20 C14         7.1790    6.6290   15.5200 C.ar      1 8AJ        -0.0525
     21 CL          3.9390    7.1910   20.0800 Cl        1 8AJ        -0.0758
     22 C16        -4.0380    7.3920   12.8960 C.3       1 8AJ        -0.0432
     23 C18         8.4410    6.2550   15.8340 C.ar      1 8AJ        -0.0601
     24 C19         7.7450    3.9260   16.0400 C.ar      1 8AJ        -0.0601
     25 C           8.7500    4.8870   16.1020 C.ar      1 8AJ        -0.0608
     26 H1          1.3320    7.7728   18.8990 H         1 8AJ         0.0621
     27 H2          5.6511    3.5775   15.6572 H         1 8AJ         0.0633
     28 H3         -3.9963    9.2262   14.7896 H         1 8AJ         0.0777
     29 H4         -2.8271    9.6434   13.4913 H         1 8AJ         0.0777
     30 H5         -2.2307    9.1305   15.1062 H         1 8AJ         0.0777
     31 H6          0.5533    7.5663   16.5482 H         1 8AJ         0.0593
     32 H7          4.9506    5.5572   12.9752 H         1 8AJ         0.0644
     33 H8         -0.4332    8.5239   14.4566 H         1 8AJ         0.0558
     34 H9         -0.7476    6.9015   15.1607 H         1 8AJ         0.0558
     35 H10         5.2570    6.3625   17.7583 H         1 8AJ         0.0622
     36 H11        -1.7586    6.2531   12.9990 H         1 8AJ         0.0844
     37 H12        -1.5928    7.9644   12.4784 H         1 8AJ         0.0844
     38 H13        -3.1888    6.9870   14.6933 H         1 8AJ         0.2030
     39 H14         6.9522    7.6695   15.3173 H         1 8AJ         0.0633
     40 H15        -5.0257    7.6180   13.3243 H         1 8AJ         0.0777
     41 H16        -4.0165    6.3461   12.5559 H         1 8AJ         0.0777
     42 H17        -3.8471    8.0591   12.0425 H         1 8AJ         0.0777
     43 H18         9.2254    7.0016   15.8826 H         1 8AJ         0.0620
     44 H19         7.9690    2.8850   16.2431 H         1 8AJ         0.0620
     45 H20         9.7641    4.5978   16.3530 H         1 8AJ         0.0625
@<TRIPOS>BOND
     1    1    2 ar 
     2   10    1 ar 
     3   16    2 ar 
     4    2   21 1  
     5   18    3 ar 
     6    3   24 ar 
     7   19    4 1  
     8    5    6 1  
     9    5    7 1  
    10    8    5 1  
    11    6    9 ar 
    12    6   10 ar 
    13    7   11 1  
    14   12    7 2  
    15    8   13 2  
    16   14    8 1  
    17    9   15 1  
    18    9   16 ar 
    19   11   15 2  
    20   13   12 1  
    21   17   14 1  
    22   15   18 1  
    23   17   19 1  
    24   18   20 ar 
    25   19   22 1  
    26   20   23 ar 
    27   23   25 ar 
    28   24   25 ar 
    29    1   26 1  
    30    3   27 1  
    31    4   28 1  
    32    4   29 1  
    33    4   30 1  
    34   10   31 1  
    35   11   32 1  
    36   14   33 1  
    37   14   34 1  
    38   16   35 1  
    39   17   36 1  
    40   17   37 1  
    41   19   38 1  
    42   20   39 1  
    43   22   40 1  
    44   22   41 1  
    45   22   42 1  
    46   23   43 1  
    47   24   44 1  
    48   25   45 1  
@<TRIPOS>SUBSTRUCTURE
     1 8AJ         1

