### 
### Created by X-TOOL on Mon Aug  2 16:11:49 2021
### 

@<TRIPOS>MOLECULE
5ugm_ligand
   52    56     1     0     0
SMALL
GAST_HUCK


@<TRIPOS>ATOM
      1 C10        29.6450   71.5450  -31.9120 C.ar      1 MOL        -0.0620
      2 C13        29.7680   64.8110  -28.4390 C.3       1 MOL         0.0013
      3 C17        26.6080   62.3510  -29.7500 C.ar      1 MOL        -0.0495
      4 C20        24.4210   62.1630  -28.0330 C.ar      1 MOL         0.0327
      5 C21        25.5780   62.7580  -27.6000 C.ar      1 MOL         0.0011
      6 C22        25.5440   63.2360  -26.2730 C.2       1 MOL        -0.0654
      7 C26        22.2620   61.8650  -30.8330 C.3       1 MOL         0.1273
      8 C01        28.0190   66.5380  -26.4320 C.3       1 MOL        -0.0015
      9 C02        28.6370   67.0250  -27.7410 C.2       1 MOL         0.1140
     10 C03        29.3970   66.2750  -28.6170 C.2       1 MOL         0.0156
     11 C05        29.2250   68.2570  -29.4140 C.2       1 MOL         0.1880
     12 C07        29.3650   69.3500  -30.2500 C.ar      1 MOL         0.0316
     13 C08        29.0010   70.6070  -29.8030 C.ar      1 MOL        -0.0496
     14 C09        29.1420   71.7060  -30.6330 C.ar      1 MOL        -0.0613
     15 C11        30.0100   70.2880  -32.3590 C.ar      1 MOL        -0.0613
     16 C12        29.8700   69.1900  -31.5280 C.ar      1 MOL        -0.0496
     17 C14        28.7120   63.8990  -29.0530 C.3       1 MOL         0.0741
     18 C16        26.6920   62.8610  -28.4690 C.ar      1 MOL         0.0833
     19 C18        25.4340   61.7500  -30.1850 C.ar      1 MOL        -0.0784
     20 C19        24.3370   61.6600  -29.3290 C.ar      1 MOL        -0.0382
     21 C23        24.3610   63.0390  -25.5940 C.2       1 MOL        -0.0099
     22 C25        23.0430   60.9950  -29.7830 C.3       1 MOL         0.0056
     23 C27        21.2160   61.0300  -31.4140 C.2       1 MOL         0.2224
     24 C30        19.9390   62.8950  -30.0400 C.2       1 MOL         0.2695
     25 N04        29.7380   67.0590  -29.6190 N.2       1 MOL        -0.3129
     26 N29        19.7090   61.6330  -30.9350 N.am      1 MOL        -0.1891
     27 O06        28.5430   68.2550  -28.2600 O.3       1 MOL        -0.2356
     28 O15        27.8720   63.4640  -28.0260 O.3       1 MOL        -0.3221
     29 O28        21.3860   60.0790  -32.0950 O.2       1 MOL        -0.3847
     30 O31        19.0920   63.4950  -29.4770 O.2       1 MOL        -0.3731
     31 S24        23.3020   62.2320  -26.7030 S.3       1 MOL        -0.0489
     32 S32        21.4550   63.2240  -30.0310 S.3       1 MOL         0.0005
     33 H1         29.7530   72.4043  -32.5639 H         1 MOL         0.0615
     34 H2         29.8530   64.5899  -27.3648 H         1 MOL         0.0384
     35 H3         30.7343   64.6230  -28.9297 H         1 MOL         0.0384
     36 H4         27.4599   62.4200  -30.4168 H         1 MOL         0.0449
     37 H5         26.3992   63.7298  -25.8139 H         1 MOL         0.0413
     38 H6         22.9490   62.2315  -31.6099 H         1 MOL         0.0704
     39 H7         27.4710   67.3642  -25.9556 H         1 MOL         0.0409
     40 H8         28.8153   66.1894  -25.7579 H         1 MOL         0.0409
     41 H9         27.3256   65.7097  -26.6397 H         1 MOL         0.0409
     42 H10        28.6049   70.7319  -28.8017 H         1 MOL         0.0626
     43 H11        28.8587   72.6915  -30.2814 H         1 MOL         0.0617
     44 H12        30.4058   70.1628  -33.3604 H         1 MOL         0.0617
     45 H13        30.1560   68.2049  -31.8785 H         1 MOL         0.0626
     46 H14        29.1965   63.0348  -29.5310 H         1 MOL         0.0627
     47 H15        28.1291   64.4538  -29.8030 H         1 MOL         0.0627
     48 H16        25.3704   61.3506  -31.1907 H         1 MOL         0.0474
     49 H17        24.1373   63.3311  -24.5690 H         1 MOL         0.0744
     50 H18        23.2855   60.0237  -30.2387 H         1 MOL         0.0430
     51 H19        22.3992   60.8377  -28.9051 H         1 MOL         0.0430
     52 H20        18.8203   61.2471  -31.1827 H         1 MOL         0.2265
@<TRIPOS>BOND
     1   14    1 ar 
     2   15    1 ar 
     3    2   10 1  
     4   17    2 1  
     5    3   18 ar 
     6   19    3 ar 
     7    4    5 ar 
     8   20    4 ar 
     9    4   31 1  
    10    5    6 1  
    11    5   18 ar 
    12    6   21 2  
    13   22    7 1  
    14    7   23 1  
    15    7   32 1  
    16    9    8 1  
    17   10    9 2  
    18    9   27 1  
    19   10   25 1  
    20   11   12 1  
    21   25   11 2  
    22   11   27 1  
    23   12   13 ar 
    24   12   16 ar 
    25   13   14 ar 
    26   16   15 ar 
    27   28   17 1  
    28   18   28 1  
    29   20   19 ar 
    30   20   22 1  
    31   21   31 1  
    32   23   26 am 
    33   23   29 2  
    34   26   24 am 
    35   24   30 2  
    36   24   32 1  
    37    1   33 1  
    38    2   34 1  
    39    2   35 1  
    40    3   36 1  
    41    6   37 1  
    42    7   38 1  
    43    8   39 1  
    44    8   40 1  
    45    8   41 1  
    46   13   42 1  
    47   14   43 1  
    48   15   44 1  
    49   16   45 1  
    50   17   46 1  
    51   17   47 1  
    52   19   48 1  
    53   21   49 1  
    54   22   50 1  
    55   22   51 1  
    56   26   52 1  
@<TRIPOS>SUBSTRUCTURE
     1 MOL         1

