### 
### Created by X-TOOL on Mon Sep 10 21:13:34 2018
### 

@<TRIPOS>MOLECULE
5uhi_ligand
   65    70     1     0     0
SMALL
GAST_HUCK


@<TRIPOS>ATOM
      1 C7        -19.9450  -34.5700   15.0390 C.ar      1 8A4        -0.0653
      2 C16       -14.6150  -33.8980    8.8520 C.ar      1 8A4        -0.0613
      3 C20       -14.4350  -33.3610   11.1640 C.ar      1 8A4        -0.0613
      4 C35       -21.7740  -31.4320   14.3210 C.ar      1 8A4        -0.0594
      5 C40       -22.8270  -32.9180   15.8540 C.ar      1 8A4        -0.0594
      6 C6        -18.6390  -34.9870   15.1120 C.ar      1 8A4        -0.0411
      7 C17       -14.0080  -32.7090    8.5280 C.ar      1 8A4        -0.0306
      8 C19       -13.8290  -32.1720   10.8420 C.ar      1 8A4        -0.0306
      9 C36       -22.0090  -30.3780   15.1700 C.ar      1 8A4        -0.0330
     10 C39       -23.0630  -31.8670   16.7080 C.ar      1 8A4        -0.0330
     11 C23       -12.8590  -28.5280    8.6620 C.2       1 8A4        -0.0478
     12 C9        -19.7320  -34.3970   12.6860 C.ar      1 8A4        -0.0456
     13 C24       -11.8920  -28.9130    9.6240 C.2       1 8A4        -0.0061
     14 C29       -22.6710  -36.2430   14.3230 C.2       1 8A4         0.0140
     15 C22       -13.5670  -29.6830    8.4160 C.2       1 8A4         0.0630
     16 C31       -24.7610  -36.0460   13.9610 C.2       1 8A4         0.1275
     17 C10       -18.4250  -34.8150   12.7690 C.ar      1 8A4         0.0237
     18 C15       -14.8290  -34.2230   10.1700 C.ar      1 8A4        -0.0376
     19 C34       -22.1820  -32.7000   14.6600 C.ar      1 8A4        -0.0700
     20 C8        -20.5010  -34.2720   13.8180 C.ar      1 8A4        -0.0686
     21 C13       -16.3470  -35.3600   11.7280 C.ar      1 8A4         0.0519
     22 C5        -17.8610  -35.1170   13.9870 C.ar      1 8A4         0.0403
     23 C18       -13.6150  -31.8480    9.5240 C.ar      1 8A4         0.1062
     24 C37       -22.6530  -30.6020   16.3620 C.ar      1 8A4         0.0569
     25 C11       -17.6510  -34.9410   11.6400 C.ar      1 8A4         0.0756
     26 C28       -22.8500  -34.9400   13.9150 C.2       1 8A4         0.0451
     27 C3        -15.8730  -35.6360   12.9860 C.ar      1 8A4         0.1795
     28 C33       -24.8890  -33.6560   13.2420 C.3       1 8A4         0.0503
     29 C1        -14.2070  -35.5730   14.3910 C.3       1 8A4         0.0658
     30 C14       -15.4860  -35.5070   10.5250 C.3       1 8A4         0.0196
     31 C26       -21.9150  -33.8200   13.7230 C.3       1 8A4         0.0728
     32 N30       -23.8610  -36.9210   14.3480 N.2       1 8A4        -0.2758
     33 N25       -11.9880  -30.2020    9.9550 N.2       1 8A4        -0.2076
     34 N4        -16.5950  -35.5240   14.1000 N.ar      1 8A4        -0.2712
     35 N21       -13.0100  -30.6420    9.2100 N.pl3     1 8A4        -0.1678
     36 N32       -24.1900  -34.8380   13.6910 N.pl3     1 8A4        -0.2450
     37 O27       -22.1410  -33.3310   12.4090 O.3       1 8A4        -0.4629
     38 O2        -14.5700  -36.0580   13.1090 O.3       1 8A4        -0.2949
     39 CL38      -22.9490  -29.2850   17.4300 Cl        1 8A4        -0.0553
     40 CL12      -18.3290  -34.5710   10.1020 Cl        1 8A4        -0.0587
     41 H1        -20.5364  -34.4760   15.9426 H         1 8A4         0.0674
     42 H2        -14.9251  -34.5797    8.0683 H         1 8A4         0.0547
     43 H3        -14.6026  -33.6196   12.2033 H         1 8A4         0.0547
     44 H4        -21.2644  -31.2629   13.3793 H         1 8A4         0.0730
     45 H5        -23.1493  -33.9177   16.1220 H         1 8A4         0.0730
     46 H6        -18.2113  -35.2193   16.0806 H         1 8A4         0.0628
     47 H7        -13.8395  -32.4506    7.4888 H         1 8A4         0.0575
     48 H8        -13.5199  -31.4901   11.6260 H         1 8A4         0.0575
     49 H9        -21.6888  -29.3778   14.9013 H         1 8A4         0.0665
     50 H10       -23.5706  -32.0355   17.6508 H         1 8A4         0.0665
     51 H11       -13.0079  -27.5444    8.2190 H         1 8A4         0.0343
     52 H12       -20.1603  -34.1637   11.7179 H         1 8A4         0.0820
     53 H13       -11.1534  -28.2329   10.0458 H         1 8A4         0.0654
     54 H14       -21.7091  -36.6776   14.5908 H         1 8A4         0.0870
     55 H15       -14.4018  -29.8058    7.7276 H         1 8A4         0.0991
     56 H16       -25.8251  -36.2581   13.8679 H         1 8A4         0.1473
     57 H17       -25.9627  -33.8772   13.1516 H         1 8A4         0.0590
     58 H18       -24.4947  -33.3466   12.2628 H         1 8A4         0.0590
     59 H19       -24.7418  -32.8443   13.9697 H         1 8A4         0.0590
     60 H20       -13.1656  -35.8532   14.6076 H         1 8A4         0.0589
     61 H21       -14.8704  -36.0122   15.1506 H         1 8A4         0.0589
     62 H22       -14.3033  -34.4774   14.4094 H         1 8A4         0.0589
     63 H23       -14.7116  -36.2612   10.7289 H         1 8A4         0.0575
     64 H24       -16.1063  -35.8378    9.6790 H         1 8A4         0.0575
     65 H25       -21.9780  -34.0254   11.7815 H         1 8A4         0.1806
@<TRIPOS>BOND
     1    1    6 ar 
     2   20    1 ar 
     3    2    7 ar 
     4   18    2 ar 
     5    3    8 ar 
     6   18    3 ar 
     7    4    9 ar 
     8   19    4 ar 
     9    5   10 ar 
    10   19    5 ar 
    11    6   22 ar 
    12    7   23 ar 
    13    8   23 ar 
    14    9   24 ar 
    15   10   24 ar 
    16   11   13 1  
    17   15   11 2  
    18   12   17 ar 
    19   20   12 ar 
    20   13   33 2  
    21   26   14 2  
    22   14   32 1  
    23   35   15 1  
    24   32   16 2  
    25   16   36 1  
    26   17   22 ar 
    27   17   25 ar 
    28   30   18 1  
    29   31   19 1  
    30   31   20 1  
    31   25   21 ar 
    32   21   27 ar 
    33   21   30 1  
    34   22   34 ar 
    35   23   35 1  
    36   24   39 1  
    37   25   40 1  
    38   26   31 1  
    39   26   36 1  
    40   27   34 ar 
    41   27   38 1  
    42   36   28 1  
    43   38   29 1  
    44   31   37 1  
    45   33   35 1  
    46    1   41 1  
    47    2   42 1  
    48    3   43 1  
    49    4   44 1  
    50    5   45 1  
    51    6   46 1  
    52    7   47 1  
    53    8   48 1  
    54    9   49 1  
    55   10   50 1  
    56   11   51 1  
    57   12   52 1  
    58   13   53 1  
    59   14   54 1  
    60   15   55 1  
    61   16   56 1  
    62   28   57 1  
    63   28   58 1  
    64   28   59 1  
    65   29   60 1  
    66   29   61 1  
    67   29   62 1  
    68   30   63 1  
    69   30   64 1  
    70   37   65 1  
@<TRIPOS>SUBSTRUCTURE
     1 8A4         1

