### 
### Created by X-TOOL on Mon Sep 10 21:13:34 2018
### 

@<TRIPOS>MOLECULE
5uig_ligand
   46    48     1     0     0
SMALL
GAST_HUCK


@<TRIPOS>ATOM
      1 C11       145.7490   37.2340   17.0540 C.cat     1 8D1         0.2506
      2 C13       146.1630   36.2760   18.0740 C.2       1 8D1         0.1463
      3 C16       147.5380   33.3340   19.2730 C.ar      1 8D1         0.1195
      4 C17       147.8780   32.8940   20.5690 C.ar      1 8D1        -0.0313
      5 C18       148.5340   31.6660   20.7630 C.ar      1 8D1        -0.0725
      6 C19       148.8450   30.8510   19.6620 C.ar      1 8D1        -0.0676
      7 C20       148.5150   31.2790   18.3620 C.ar      1 8D1        -0.0503
      8 C21       148.8950   30.4430   17.1620 C.3       1 8D1        -0.0327
      9 C22       147.8570   32.5110   18.1690 C.ar      1 8D1        -0.0237
     10 C24       145.9510   36.4090   19.4750 C.2       1 8D1         0.1303
     11 C01       146.3070   42.5970   17.2100 C.3       1 8D1         0.0578
     12 O02       147.3360   41.6260   17.2830 O.3       1 8D1        -0.3248
     13 C03       147.6050   40.9540   16.1190 C.ar      1 8D1         0.0966
     14 C04       148.8410   41.1980   15.4930 C.ar      1 8D1        -0.0395
     15 C05       149.2180   40.4980   14.3390 C.ar      1 8D1        -0.0776
     16 C06       148.3540   39.5300   13.8070 C.ar      1 8D1        -0.0796
     17 C07       147.1140   39.2760   14.4190 C.ar      1 8D1        -0.0646
     18 C08       146.7310   39.9780   15.5830 C.ar      1 8D1         0.0313
     19 C09       145.4420   39.5950   16.2890 C.3       1 8D1         0.1188
     20 N10       145.6900   38.5570   17.2960 N.pl3     1 8D1        -0.2501
     21 N12       145.4630   36.7650   15.8260 N.pl3     1 8D1        -0.2723
     22 N14       146.7690   35.1420   17.8430 N.2       1 8D1        -0.1622
     23 N15       146.9190   34.5970   19.0800 N.pl3     1 8D1        -0.0996
     24 N23       146.4380   35.3670   20.0990 N.2       1 8D1        -0.1665
     25 N25       145.3110   37.4570   20.1500 N.pl3     1 8D1        -0.3313
     26 H1        147.6305   33.5101   21.4258 H         1 8D1         0.0529
     27 H2        148.8004   31.3473   21.7643 H         1 8D1         0.0582
     28 H3        149.3369   29.8968   19.8126 H         1 8D1         0.0498
     29 H4        148.5523   30.9425   16.2438 H         1 8D1         0.0389
     30 H5        148.4212   29.4533   17.2397 H         1 8D1         0.0389
     31 H6        149.9881   30.3247   17.1288 H         1 8D1         0.0389
     32 H7        147.5939   32.8293   17.1667 H         1 8D1         0.0522
     33 H8        146.1784   43.0697   18.1949 H         1 8D1         0.0574
     34 H9        145.3661   42.1124   16.9103 H         1 8D1         0.0574
     35 H10       146.5775   43.3629   16.4683 H         1 8D1         0.0574
     36 H11       149.5127   41.9396   15.9101 H         1 8D1         0.0521
     37 H12       150.1694   40.7030   13.8616 H         1 8D1         0.0531
     38 H13       148.6431   38.9759   12.9213 H         1 8D1         0.0505
     39 H14       146.4464   38.5352   13.9939 H         1 8D1         0.0527
     40 H15       144.7238   39.2145   15.5478 H         1 8D1         0.0939
     41 H16       145.0230   40.4841   16.7828 H         1 8D1         0.0939
     42 H17       145.8306   38.8661   18.2684 H         1 8D1         0.3226
     43 H18       145.5073   35.7533   15.6379 H         1 8D1         0.3180
     44 H19       145.1997   37.4176   15.0739 H         1 8D1         0.3180
     45 H20       145.2231   37.4312   21.1759 H         1 8D1         0.1689
     46 H21       144.9284   38.2532   19.6202 H         1 8D1         0.1689
@<TRIPOS>BOND
     1    2    1 1  
     2    1   20 ar 
     3    1   21 ar 
     4    2   10 1  
     5   22    2 2  
     6    3    4 ar 
     7    3    9 ar 
     8   23    3 1  
     9    4    5 ar 
    10    5    6 ar 
    11    7    6 ar 
    12    7    8 1  
    13    9    7 ar 
    14   10   24 2  
    15   10   25 1  
    16   12   11 1  
    17   13   12 1  
    18   13   14 ar 
    19   18   13 ar 
    20   14   15 ar 
    21   16   15 ar 
    22   17   16 ar 
    23   18   17 ar 
    24   19   18 1  
    25   20   19 1  
    26   22   23 1  
    27   23   24 1  
    28    4   26 1  
    29    5   27 1  
    30    6   28 1  
    31    8   29 1  
    32    8   30 1  
    33    8   31 1  
    34    9   32 1  
    35   11   33 1  
    36   11   34 1  
    37   11   35 1  
    38   14   36 1  
    39   15   37 1  
    40   16   38 1  
    41   17   39 1  
    42   19   40 1  
    43   19   41 1  
    44   20   42 1  
    45   21   43 1  
    46   21   44 1  
    47   25   45 1  
    48   25   46 1  
@<TRIPOS>SUBSTRUCTURE
     1 8D1         1

