### 
### Created by X-TOOL on Mon Sep 10 21:13:33 2018
### 

@<TRIPOS>MOLECULE
5uiq_ligand
   26    26     1     0     0
SMALL
GAST_HUCK


@<TRIPOS>ATOM
      1 C4         29.2940   10.6160   -7.8860 C.ar      1 8BV        -0.0661
      2 C5         29.5940    8.3140   -7.3730 C.ar      1 8BV        -0.0503
      3 C6         30.0620   10.4650   -9.0210 C.ar      1 8BV        -0.0267
      4 C7         30.3580    8.1440   -8.5150 C.ar      1 8BV         0.0782
      5 C8         30.6060    9.2320   -9.3470 C.ar      1 8BV         0.1130
      6 C10        30.8510    6.7610   -8.7360 C.2       1 8BV         0.1968
      7 C1         33.1920   10.1050  -11.6070 C.3       1 8BV        -0.0342
      8 C2         30.8760   10.6400  -12.2760 C.3       1 8BV        -0.0342
      9 C3         29.0630    9.5440   -7.0530 C.ar      1 8BV        -0.0671
     10 C9         31.7810   10.3070  -11.1020 C.3       1 8BV         0.0774
     11 N11        31.8510    6.5700   -9.6620 N.am      1 8BV        -0.3020
     12 O12        30.3450    5.8480   -8.0970 O.2       1 8BV        -0.3911
     13 O13        31.3810    9.0690  -10.4910 O.3       1 8BV        -0.3099
     14 H1         28.8694   11.5845   -7.6478 H         1 8BV         0.0625
     15 H2         29.4111    7.4672   -6.7215 H         1 8BV         0.0640
     16 H3         30.2423   11.3184   -9.6647 H         1 8BV         0.0555
     17 H4         33.5459   11.0298  -12.0860 H         1 8BV         0.0258
     18 H5         33.2054    9.2845  -12.3395 H         1 8BV         0.0258
     19 H6         33.8511    9.8539  -10.7629 H         1 8BV         0.0258
     20 H7         29.8474   10.7883  -11.9155 H         1 8BV         0.0258
     21 H8         30.8950    9.8121  -13.0000 H         1 8BV         0.0258
     22 H9         31.2303   11.5607  -12.7625 H         1 8BV         0.0258
     23 H10        28.4692    9.6669   -6.1545 H         1 8BV         0.0536
     24 H11        31.7483   11.1227  -10.3648 H         1 8BV         0.0648
     25 H12        32.2045    5.6505   -9.8337 H         1 8BV         0.1804
     26 H13        32.2241    7.3508  -10.1632 H         1 8BV         0.1804
@<TRIPOS>BOND
     1    3    1 ar 
     2    1    9 ar 
     3    4    2 ar 
     4    2    9 ar 
     5    5    3 ar 
     6    5    4 ar 
     7    4    6 1  
     8   13    5 1  
     9    6   11 am 
    10    6   12 2  
    11   10    7 1  
    12   10    8 1  
    13   10   13 1  
    14    1   14 1  
    15    2   15 1  
    16    3   16 1  
    17    7   17 1  
    18    7   18 1  
    19    7   19 1  
    20    8   20 1  
    21    8   21 1  
    22    8   22 1  
    23    9   23 1  
    24   10   24 1  
    25   11   25 1  
    26   11   26 1  
@<TRIPOS>SUBSTRUCTURE
     1 8BV         1

