### 
### Created by X-TOOL on Mon Sep 10 21:13:34 2018
### 

@<TRIPOS>MOLECULE
5uir_ligand
   43    45     1     0     0
SMALL
GAST_HUCK


@<TRIPOS>ATOM
      1 C7         -8.3240   17.4510   11.1460 C.ar      1 8BY        -0.0158
      2 C6         -9.7260   17.2110   11.0200 C.ar      1 8BY        -0.0236
      3 C9         -6.1620   17.8200   10.0440 C.ar      1 8BY        -0.0541
      4 C13        -8.3550   17.6210   13.7060 C.ar      1 8BY        -0.0120
      5 C21        -8.2270   17.6010    8.7100 C.ar      1 8BY        -0.0341
      6 C8         -7.5640   17.6350    9.9520 C.ar      1 8BY        -0.0160
      7 C18        -8.1250   16.7090   14.7300 C.ar      1 8BY        -0.0449
      8 C16        -9.3250   18.0810   16.2930 C.ar      1 8BY         0.0932
      9 C19        -9.7910   18.3230   17.6360 C.1       1 8BY         0.0973
     10 C1        -13.9240   17.4060   10.0980 C.3       1 8BY        -0.0342
     11 C2        -12.6310   16.9280   10.7060 C.3       1 8BY         0.0774
     12 C3        -12.6900   15.5030   11.1400 C.3       1 8BY        -0.0342
     13 O4        -11.6800   17.0370    9.6150 O.3       1 8BY        -0.3102
     14 C5        -10.3260   17.1920    9.7970 C.ar      1 8BY         0.1129
     15 C10        -5.5380   17.8020   11.2540 C.ar      1 8BY        -0.0604
     16 C11        -6.2690   17.6310   12.4210 C.ar      1 8BY        -0.0534
     17 C12        -7.6390   17.4980   12.4060 C.ar      1 8BY        -0.0091
     18 C14        -9.1360   18.7440   13.9950 C.ar      1 8BY        -0.0449
     19 C15        -9.6160   18.9760   15.2700 C.ar      1 8BY        -0.0283
     20 C17        -8.5940   16.9360   16.0080 C.ar      1 8BY        -0.0283
     21 N20       -10.1500   18.4790   18.7090 N.1       1 8BY        -0.3311
     22 C22        -9.5770   17.3710    8.6200 C.ar      1 8BY         0.0843
     23 C23       -10.1170   17.3230    7.2180 C.2       1 8BY         0.2007
     24 O24        -9.3260   17.3260    6.2570 O.2       1 8BY        -0.3888
     25 N25       -11.4330   17.1990    7.0430 N.am      1 8BY        -0.3012
     26 H1        -10.3213   17.0415   11.9100 H         1 8BY         0.0506
     27 H2         -5.5809   17.9773    9.1425 H         1 8BY         0.0645
     28 H3         -7.6566   17.7605    7.8021 H         1 8BY         0.0692
     29 H4         -7.5673   15.8033   14.5208 H         1 8BY         0.0637
     30 H5        -14.7225   17.3626   10.8534 H         1 8BY         0.0258
     31 H6        -14.1892   16.7618    9.2468 H         1 8BY         0.0258
     32 H7        -13.8045   18.4426    9.7501 H         1 8BY         0.0258
     33 H8        -12.3442   17.5633   11.5569 H         1 8BY         0.0648
     34 H9        -11.7221   15.2115   11.5739 H         1 8BY         0.0258
     35 H10       -12.9099   14.8641   10.2720 H         1 8BY         0.0258
     36 H11       -13.4814   15.3819   11.8943 H         1 8BY         0.0258
     37 H12        -4.4619   17.9222   11.3061 H         1 8BY         0.0597
     38 H13        -5.7469   17.6013   13.3705 H         1 8BY         0.0643
     39 H14        -9.3697   19.4466   13.2033 H         1 8BY         0.0637
     40 H15       -10.2183   19.8543   15.4720 H         1 8BY         0.0712
     41 H16        -8.3905   16.2166   16.7930 H         1 8BY         0.0712
     42 H17       -11.8135   17.1650    6.1188 H         1 8BY         0.1805
     43 H18       -12.0395   17.1400    7.8359 H         1 8BY         0.1805
@<TRIPOS>BOND
     1    2    1 ar 
     2    1    6 ar 
     3    1   17 ar 
     4   14    2 ar 
     5    6    3 ar 
     6    3   15 ar 
     7    4    7 ar 
     8   17    4 1  
     9    4   18 ar 
    10    6    5 ar 
    11    5   22 ar 
    12    7   20 ar 
    13    8    9 1  
    14    8   19 ar 
    15   20    8 ar 
    16    9   21 3  
    17   11   10 1  
    18   11   12 1  
    19   13   11 1  
    20   13   14 1  
    21   14   22 ar 
    22   15   16 ar 
    23   16   17 ar 
    24   18   19 ar 
    25   22   23 1  
    26   23   24 2  
    27   23   25 am 
    28    2   26 1  
    29    3   27 1  
    30    5   28 1  
    31    7   29 1  
    32   10   30 1  
    33   10   31 1  
    34   10   32 1  
    35   11   33 1  
    36   12   34 1  
    37   12   35 1  
    38   12   36 1  
    39   15   37 1  
    40   16   38 1  
    41   18   39 1  
    42   19   40 1  
    43   20   41 1  
    44   25   42 1  
    45   25   43 1  
@<TRIPOS>SUBSTRUCTURE
     1 8BY         1

