### 
### Created by X-TOOL on Mon Sep 10 21:13:34 2018
### 

@<TRIPOS>MOLECULE
5uis_ligand
   48    50     1     0     0
SMALL
GAST_HUCK


@<TRIPOS>ATOM
      1 C7         18.8800    5.6420    3.7520 C.ar      1 8C1         0.0347
      2 C6         19.3870    5.4860    2.4340 C.ar      1 8C1        -0.0160
      3 C9         18.0780    6.9510    5.6280 C.ar      1 8C1        -0.0076
      4 C13        18.9460    3.2190    4.0020 C.ar      1 8C1        -0.0259
      5 C20        18.3390   10.1200    2.6100 C.3       1 8C1        -0.0115
      6 C21        19.5630   10.1050    1.6980 C.3       1 8C1        -0.0096
      7 C8         18.5710    6.8990    4.3440 C.ar      1 8C1         0.1214
      8 C19        18.5740    9.3480    3.8920 C.3       1 8C1         0.1260
      9 C1         22.1550    4.5520   -0.6380 C.3       1 8C1        -0.0343
     10 C2         20.9080    5.1060   -0.0290 C.3       1 8C1         0.0768
     11 C3         19.8080    5.3220   -1.0180 C.3       1 8C1        -0.0343
     12 O4         20.4440    4.0330    0.8210 O.3       1 8C1        -0.3110
     13 C5         19.7180    4.2440    1.9720 C.ar      1 8C1         0.1147
     14 C10        17.9230    5.7590    6.3170 C.ar      1 8C1        -0.0081
     15 N11        18.1980    4.5580    5.8340 N.ar      1 8C1        -0.3189
     16 C12        18.6720    4.4920    4.5480 C.ar      1 8C1         0.0343
     17 C14        19.4470    3.0880    2.7280 C.ar      1 8C1         0.0858
     18 C15        19.7160    1.6770    2.2900 C.2       1 8C1         0.2029
     19 O16        19.1900    0.7400    2.9010 O.2       1 8C1        -0.3872
     20 N17        20.4350    1.4750    1.1800 N.am      1 8C1        -0.3007
     21 O18        18.7900    7.9670    3.5040 O.3       1 8C1        -0.2946
     22 C22        20.7510   10.6120    2.4620 C.3       1 8C1        -0.0335
     23 N23        20.9590    9.7440    3.6300 N.4       1 8C1         0.2291
     24 C24        19.8450    9.8220    4.5760 C.3       1 8C1        -0.0014
     25 H1         19.5112    6.3528    1.7950 H         1 8C1         0.0542
     26 H2         17.8183    7.8979    6.0873 H         1 8C1         0.0575
     27 H3         18.7587    2.3317    4.5959 H         1 8C1         0.0679
     28 H4         17.4917    9.6677    2.0739 H         1 8C1         0.0298
     29 H5         18.0981   11.1630    2.8632 H         1 8C1         0.0298
     30 H6         19.3815   10.7522    0.8273 H         1 8C1         0.0318
     31 H7         19.7557    9.0771    1.3570 H         1 8C1         0.0318
     32 H8         17.7119    9.4454    4.5682 H         1 8C1         0.0715
     33 H9         22.5965    5.2995   -1.3135 H         1 8C1         0.0258
     34 H10        21.9125    3.6420   -1.2064 H         1 8C1         0.0258
     35 H11        22.8740    4.3068    0.1576 H         1 8C1         0.0258
     36 H12        21.1177    6.0309    0.5283 H         1 8C1         0.0647
     37 H13        18.9259    5.7291   -0.5021 H         1 8C1         0.0258
     38 H14        19.5465    4.3638   -1.4907 H         1 8C1         0.0258
     39 H15        20.1421    6.0321   -1.7888 H         1 8C1         0.0258
     40 H16        17.5467    5.8146    7.3321 H         1 8C1         0.0791
     41 H17        20.6258    0.5434    0.8705 H         1 8C1         0.1806
     42 H18        20.7816    2.2556    0.6598 H         1 8C1         0.1806
     43 H19        20.5654   11.6439    2.7949 H         1 8C1         0.0814
     44 H20        21.6432   10.5890    1.8190 H         1 8C1         0.0814
     45 H21        21.8050   10.0270    4.0994 H         1 8C1         0.2014
     46 H22        21.0523    8.7911    3.3149 H         1 8C1         0.2014
     47 H23        20.0554    9.1820    5.4455 H         1 8C1         0.0844
     48 H24        19.7174   10.8626    4.9089 H         1 8C1         0.0844
@<TRIPOS>BOND
     1    2    1 ar 
     2    1    7 ar 
     3    1   16 ar 
     4   13    2 ar 
     5    7    3 ar 
     6    3   14 ar 
     7   16    4 ar 
     8    4   17 ar 
     9    5    6 1  
    10    8    5 1  
    11    6   22 1  
    12    7   21 1  
    13   21    8 1  
    14    8   24 1  
    15   10    9 1  
    16   10   11 1  
    17   12   10 1  
    18   12   13 1  
    19   13   17 ar 
    20   14   15 ar 
    21   15   16 ar 
    22   17   18 1  
    23   18   19 2  
    24   18   20 am 
    25   22   23 1  
    26   23   24 1  
    27    2   25 1  
    28    3   26 1  
    29    4   27 1  
    30    5   28 1  
    31    5   29 1  
    32    6   30 1  
    33    6   31 1  
    34    8   32 1  
    35    9   33 1  
    36    9   34 1  
    37    9   35 1  
    38   10   36 1  
    39   11   37 1  
    40   11   38 1  
    41   11   39 1  
    42   14   40 1  
    43   20   41 1  
    44   20   42 1  
    45   22   43 1  
    46   22   44 1  
    47   23   45 1  
    48   23   46 1  
    49   24   47 1  
    50   24   48 1  
@<TRIPOS>SUBSTRUCTURE
     1 8C1         1

