### 
### Created by X-TOOL on Mon Sep 10 21:13:32 2018
### 

@<TRIPOS>MOLECULE
5uit_ligand
   46    48     1     0     0
SMALL
GAST_HUCK


@<TRIPOS>ATOM
      1 N3        -26.5530  -39.1360    5.5850 N.am      1 8CD        -0.3007
      2 C4        -25.6120  -39.4230    8.4230 C.ar      1 8CD         0.1153
      3 N2        -26.0610  -38.0930   13.8490 N.am      1 8CD        -0.2811
      4 C7        -22.8720  -39.0360    8.8090 C.ar      1 8CD        -0.0118
      5 C6        -23.7360  -39.1630    9.9040 C.ar      1 8CD         0.0372
      6 C9        -21.0410  -38.6830   10.3390 C.ar      1 8CD        -0.0120
      7 C13       -25.4380  -40.3360   14.3780 C.3       1 8CD        -0.0103
      8 C8        -21.4900  -38.7890    9.0460 C.ar      1 8CD        -0.0491
      9 C18       -25.2220  -39.3070    5.8740 C.2       1 8CD         0.2030
     10 C16       -23.4060  -39.1250    7.4980 C.ar      1 8CD        -0.0325
     11 O4        -24.4240  -39.4380    4.9410 O.2       1 8CD        -0.3871
     12 C17       -24.7580  -39.2880    7.2890 C.ar      1 8CD         0.0862
     13 O1        -26.9370  -39.5480    8.1490 O.3       1 8CD        -0.3107
     14 C2        -27.8380  -39.7450    9.2300 C.3       1 8CD         0.0769
     15 C3        -29.1890  -39.2480    8.7080 C.3       1 8CD        -0.0343
     16 C1        -27.8830  -41.2450    9.5350 C.3       1 8CD        -0.0343
     17 N1        -21.8550  -38.7740   11.4530 N.ar      1 8CD        -0.2821
     18 C10       -23.1480  -39.0040   11.2080 C.ar      1 8CD         0.1740
     19 C5        -25.1130  -39.3810    9.7060 C.ar      1 8CD        -0.0153
     20 O2        -24.0410  -39.1050   12.2260 O.3       1 8CD        -0.2911
     21 C11       -23.6530  -38.6820   13.5160 C.3       1 8CD         0.0994
     22 C12       -24.9330  -38.8690   14.3710 C.3       1 8CD         0.0726
     23 C15       -27.0590  -38.8880   13.3000 C.2       1 8CD         0.1764
     24 O3        -28.0290  -38.4340   12.7050 O.2       1 8CD        -0.3971
     25 C14       -26.7480  -40.3410   13.5740 C.3       1 8CD         0.0394
     26 H1        -27.2157  -39.0281    6.3261 H         1 8CD         0.1806
     27 H2        -26.8599  -39.1193    4.6334 H         1 8CD         0.1806
     28 H3        -26.1075  -37.0947   13.8843 H         1 8CD         0.1855
     29 H4        -19.9814  -38.5175   10.4966 H         1 8CD         0.0699
     30 H5        -25.6221  -40.6713   15.4094 H         1 8CD         0.0313
     31 H6        -24.6971  -40.9968   13.9043 H         1 8CD         0.0313
     32 H7        -20.8008  -38.6859    8.2157 H         1 8CD         0.0586
     33 H8        -22.7389  -39.0637    6.6458 H         1 8CD         0.0683
     34 H9        -27.5297  -39.1818   10.1231 H         1 8CD         0.0647
     35 H10       -29.9512  -39.3665    9.4923 H         1 8CD         0.0258
     36 H11       -29.4787  -39.8345    7.8236 H         1 8CD         0.0258
     37 H12       -29.1078  -38.1860    8.4332 H         1 8CD         0.0258
     38 H13       -28.5747  -41.4287   10.3704 H         1 8CD         0.0258
     39 H14       -26.8764  -41.5938    9.8090 H         1 8CD         0.0258
     40 H15       -28.2303  -41.7899    8.6448 H         1 8CD         0.0258
     41 H16       -25.7737  -39.5144   10.5549 H         1 8CD         0.0546
     42 H17       -23.3408  -37.6273   13.5045 H         1 8CD         0.0648
     43 H18       -22.8311  -39.3036   13.9009 H         1 8CD         0.0648
     44 H19       -24.7076  -38.5511   15.3996 H         1 8CD         0.0585
     45 H20       -27.5565  -40.8034   14.1592 H         1 8CD         0.0503
     46 H21       -26.6178  -40.8908   12.6302 H         1 8CD         0.0503
@<TRIPOS>BOND
     1    9    1 am 
     2    2   12 ar 
     3    2   13 1  
     4   19    2 ar 
     5   22    3 1  
     6    3   23 am 
     7    5    4 ar 
     8    4    8 ar 
     9    4   10 ar 
    10   18    5 ar 
    11    5   19 ar 
    12    6    8 ar 
    13   17    6 ar 
    14   22    7 1  
    15    7   25 1  
    16    9   11 2  
    17   12    9 1  
    18   10   12 ar 
    19   13   14 1  
    20   14   15 1  
    21   14   16 1  
    22   18   17 ar 
    23   20   18 1  
    24   21   20 1  
    25   21   22 1  
    26   23   24 2  
    27   23   25 1  
    28    1   26 1  
    29    1   27 1  
    30    3   28 1  
    31    6   29 1  
    32    7   30 1  
    33    7   31 1  
    34    8   32 1  
    35   10   33 1  
    36   14   34 1  
    37   15   35 1  
    38   15   36 1  
    39   15   37 1  
    40   16   38 1  
    41   16   39 1  
    42   16   40 1  
    43   19   41 1  
    44   21   42 1  
    45   21   43 1  
    46   22   44 1  
    47   25   45 1  
    48   25   46 1  
@<TRIPOS>SUBSTRUCTURE
     1 8CD         1

