### 
### Created by X-TOOL on Mon Sep 10 21:13:32 2018
### 

@<TRIPOS>MOLECULE
5uiu_ligand
   46    48     1     0     0
SMALL
GAST_HUCK


@<TRIPOS>ATOM
      1 N3        -27.2530  -38.9220    4.7110 N.am      1 8CG        -0.3007
      2 C4        -25.8130  -38.5840   13.6160 C.3       1 8CG         0.0782
      3 N2        -22.7650  -38.5620   10.7110 N.ar      1 8CG        -0.2821
      4 C7        -24.5340  -38.5470   12.7470 C.3       1 8CG         0.0997
      5 C6        -27.7690  -39.9200   12.8870 C.3       1 8CG         0.1942
      6 C9        -24.5980  -38.9610    9.1140 C.ar      1 8CG         0.0372
      7 C13       -24.1810  -38.9080    6.7220 C.ar      1 8CG        -0.0325
      8 C8        -24.0480  -38.8010   10.4370 C.ar      1 8CG         0.1740
      9 C18       -28.6540  -39.5880    8.2660 C.3       1 8CG         0.0607
     10 C16       -21.9150  -38.4800    9.6260 C.ar      1 8CG        -0.0120
     11 C1        -26.2900  -42.4750   13.8690 C.3       1 8CG        -0.0647
     12 C2        -25.5930  -41.1680   13.5180 C.3       1 8CG        -0.0461
     13 C3        -26.4980  -39.9700   13.7840 C.3       1 8CG         0.0329
     14 N1        -26.8570  -37.7230   13.0450 N.am      1 8CG        -0.2783
     15 C5        -27.8980  -38.4390   12.4820 C.2       1 8CG         0.2111
     16 O1        -28.7930  -37.9620   11.8060 O.2       1 8CG        -0.3939
     17 F1        -27.6770  -40.6580   11.7660 F         1 8CG        -0.2216
     18 O2        -24.9490  -38.9200   11.4470 O.3       1 8CG        -0.2911
     19 C10       -25.9590  -39.2210    8.8690 C.ar      1 8CG        -0.0153
     20 C11       -26.4030  -39.2880    7.5670 C.ar      1 8CG         0.1146
     21 C12       -25.5160  -39.1050    6.4650 C.ar      1 8CG         0.0862
     22 C14       -23.6970  -38.8310    8.0500 C.ar      1 8CG        -0.0118
     23 C15       -22.3200  -38.5970    8.3220 C.ar      1 8CG        -0.0491
     24 C17       -25.9270  -39.0840    5.0320 C.2       1 8CG         0.2030
     25 O3        -25.0910  -39.1630    4.1260 O.2       1 8CG        -0.3871
     26 O4        -27.7000  -39.5330    7.2290 O.3       1 8CG        -0.3166
     27 H1        -27.5371  -38.9068    3.7523 H         1 8CG         0.1806
     28 H2        -27.9340  -38.8193    5.4360 H         1 8CG         0.1806
     29 H3        -25.5368  -38.2124   14.6138 H         1 8CG         0.0589
     30 H4        -23.7877  -39.2580   13.1310 H         1 8CG         0.0649
     31 H5        -24.1048  -37.5342   12.7376 H         1 8CG         0.0649
     32 H6        -28.6460  -40.2491   13.4637 H         1 8CG         0.0900
     33 H7        -23.4873  -38.8100    5.8948 H         1 8CG         0.0683
     34 H8        -29.6474  -39.7919    7.8399 H         1 8CG         0.0580
     35 H9        -28.6737  -38.6252    8.7976 H         1 8CG         0.0580
     36 H10       -28.3852  -40.3898    8.9694 H         1 8CG         0.0580
     37 H11       -20.8613  -38.3126    9.8176 H         1 8CG         0.0699
     38 H12       -25.6126  -43.3177   13.6664 H         1 8CG         0.0230
     39 H13       -27.1994  -42.5808   13.2593 H         1 8CG         0.0230
     40 H14       -26.5615  -42.4710   14.9349 H         1 8CG         0.0230
     41 H15       -25.3206  -41.1819   12.4524 H         1 8CG         0.0268
     42 H16       -24.6827  -41.0720   14.1280 H         1 8CG         0.0268
     43 H17       -26.8248  -40.0594   14.8305 H         1 8CG         0.0377
     44 H18       -26.8192  -36.7238   13.0615 H         1 8CG         0.1856
     45 H19       -26.6480  -39.3665    9.6931 H         1 8CG         0.0546
     46 H20       -21.6042  -38.5128    7.5123 H         1 8CG         0.0586
@<TRIPOS>BOND
     1   24    1 am 
     2    4    2 1  
     3    2   13 1  
     4    2   14 1  
     5    8    3 ar 
     6    3   10 ar 
     7   18    4 1  
     8   13    5 1  
     9   15    5 1  
    10    5   17 1  
    11    6    8 ar 
    12   19    6 ar 
    13   22    6 ar 
    14   21    7 ar 
    15    7   22 ar 
    16    8   18 1  
    17   26    9 1  
    18   10   23 ar 
    19   12   11 1  
    20   13   12 1  
    21   14   15 am 
    22   15   16 2  
    23   20   19 ar 
    24   21   20 ar 
    25   20   26 1  
    26   21   24 1  
    27   22   23 ar 
    28   24   25 2  
    29    1   27 1  
    30    1   28 1  
    31    2   29 1  
    32    4   30 1  
    33    4   31 1  
    34    5   32 1  
    35    7   33 1  
    36    9   34 1  
    37    9   35 1  
    38    9   36 1  
    39   10   37 1  
    40   11   38 1  
    41   11   39 1  
    42   11   40 1  
    43   12   41 1  
    44   12   42 1  
    45   13   43 1  
    46   14   44 1  
    47   19   45 1  
    48   23   46 1  
@<TRIPOS>SUBSTRUCTURE
     1 8CG         1

