### 
### Created by X-TOOL on Mon Sep 10 21:13:34 2018
### 

@<TRIPOS>MOLECULE
5ujv_ligand
   40    40     1     0     0
SMALL
GAST_HUCK


@<TRIPOS>ATOM
      1 C1        -20.6910  148.4300    1.1210 C.2       1 A8S         0.0396
      2 C2        -21.6060  147.9640    2.2530 C.3       1 A8S         0.0262
      3 C3        -23.1180  148.0950    2.2620 C.3       1 A8S         0.0345
      4 C4        -23.8860  148.7220    1.1100 C.2       1 A8S        -0.0267
      5 C5        -25.2870  148.8310    1.1500 C.2       1 A8S        -0.0813
      6 C6        -23.8740  147.5820    3.4560 C.3       1 A8S        -0.0370
      7 C7        -26.0670  149.4760   -0.0390 C.3       1 A8S         0.0397
      8 O7        -25.1450  149.8380   -1.0330 O.3       1 A8S        -0.4605
      9 C8        -27.0150  148.4220   -0.6220 C.2       1 A8S        -0.0630
     10 C9        -28.3780  148.3640   -0.2330 C.2       1 A8S         0.0149
     11 C10       -28.9030  149.3890    0.7760 C.2       1 A8S         0.1480
     12 O10       -30.0590  149.3620    1.1200 O.2       1 A8S        -0.3640
     13 C11       -27.9740  150.4370    1.3510 C.3       1 A8S         0.0197
     14 O11       -19.4680  148.6300    1.3690 O.co2     1 A8S        -0.5686
     15 C12       -26.8080  150.7660    0.4330 C.3       1 A8S        -0.0400
     16 O12       -21.1160  148.5980   -0.0500 O.co2     1 A8S        -0.5686
     17 C13       -26.4840  147.4200   -1.6140 C.3       1 A8S        -0.0362
     18 C14       -25.8470  151.6460    1.2200 C.3       1 A8S        -0.0701
     19 C15       -27.2410  151.5860   -0.7810 C.3       1 A8S        -0.0701
     20 H1        -21.2602  148.5005    3.1489 H         1 A8S         0.0484
     21 H2        -21.4045  146.8888    2.3688 H         1 A8S         0.0484
     22 H3        -23.0270  149.0850    2.7328 H         1 A8S         0.0698
     23 H4        -23.3433  149.0920    0.2414 H         1 A8S         0.1370
     24 H5        -25.8328  148.4626    2.0174 H         1 A8S         0.0412
     25 H6        -24.9509  147.7503    3.3081 H         1 A8S         0.0284
     26 H7        -23.5401  148.1153    4.3583 H         1 A8S         0.0284
     27 H8        -23.6842  146.5051    3.5752 H         1 A8S         0.0284
     28 H9        -25.6070  150.2323   -1.7634 H         1 A8S         0.1823
     29 H10       -29.0396  147.6034   -0.6450 H         1 A8S         0.0984
     30 H11       -27.5741  150.0649    2.3057 H         1 A8S         0.0477
     31 H12       -28.5505  151.3568    1.5285 H         1 A8S         0.0477
     32 H13       -27.2958  146.7457   -1.9243 H         1 A8S         0.0414
     33 H14       -25.6785  146.8338   -1.1476 H         1 A8S         0.0414
     34 H15       -26.0901  147.9489   -2.4944 H         1 A8S         0.0414
     35 H16       -24.9861  151.9065    0.5867 H         1 A8S         0.0222
     36 H17       -25.4965  151.1021    2.1095 H         1 A8S         0.0222
     37 H18       -26.3638  152.5654    1.5324 H         1 A8S         0.0222
     38 H19       -27.9412  150.9963   -1.3909 H         1 A8S         0.0222
     39 H20       -26.3575  151.8438   -1.3834 H         1 A8S         0.0222
     40 H21       -27.7361  152.5082   -0.4429 H         1 A8S         0.0222
@<TRIPOS>BOND
     1    1    2 1  
     2    1   14 ar 
     3    1   16 ar 
     4    2    3 1  
     5    3    4 1  
     6    3    6 1  
     7    4    5 2  
     8    5    7 1  
     9    7    8 1  
    10    7    9 1  
    11    7   15 1  
    12    9   10 2  
    13    9   17 1  
    14   10   11 1  
    15   11   12 2  
    16   11   13 1  
    17   13   15 1  
    18   15   18 1  
    19   15   19 1  
    20    2   20 1  
    21    2   21 1  
    22    3   22 1  
    23    4   23 1  
    24    5   24 1  
    25    6   25 1  
    26    6   26 1  
    27    6   27 1  
    28    8   28 1  
    29   10   29 1  
    30   13   30 1  
    31   13   31 1  
    32   17   32 1  
    33   17   33 1  
    34   17   34 1  
    35   18   35 1  
    36   18   36 1  
    37   18   37 1  
    38   19   38 1  
    39   19   39 1  
    40   19   40 1  
@<TRIPOS>SUBSTRUCTURE
     1 A8S         1

