### 
### Created by X-TOOL on Mon Sep 10 21:13:33 2018
### 

@<TRIPOS>MOLECULE
5uk8_ligand
   55    60     1     0     0
SMALL
GAST_HUCK


@<TRIPOS>ATOM
      1 C1         -3.1540  -11.8310   17.7120 C.3       1 8DV         0.0646
      2 C2         -3.8360  -12.2780   16.4290 C.3       1 8DV         0.0709
      3 C3         -2.7820  -10.6060   15.1210 C.3       1 8DV         0.0683
      4 O1          0.5940   -6.9690   19.5470 O.2       1 8DV        -0.1796
      5 O2          0.1940   -4.5450   19.9670 O.2       1 8DV        -0.1796
      6 C11        -4.3330   -9.7220   24.4900 C.ar      1 8DV        -0.0699
      7 C12        -5.2390  -10.7740   24.4530 C.ar      1 8DV        -0.0382
      8 C13        -5.5340  -11.3520   23.2190 C.ar      1 8DV         0.0688
      9 C14        -6.4400  -12.4870   21.5220 C.2       1 8DV         0.0241
     10 C15        -5.5420  -11.6500   20.9480 C.2       1 8DV        -0.0601
     11 C16        -4.9360  -10.9100   22.0320 C.ar      1 8DV        -0.0125
     12 C17        -1.8990   -6.1270   19.7570 C.3       1 8DV         0.1023
     13 C18        -2.8330   -5.0230   20.2360 C.3       1 8DV        -0.0467
     14 C19        -2.5310   -5.1540   18.7690 C.3       1 8DV        -0.0467
     15 C20        -0.0890   -6.2170   21.9700 C.3       1 8DV         0.1075
     16 C21         0.0010   -7.5950   22.5390 C.2       1 8DV        -0.0590
     17 C22         1.1740   -6.6870   22.6080 C.2       1 8DV        -0.0590
     18 S          -0.1350   -5.9190   20.1920 S.o2      1 8DV        -0.0296
     19 C7         -2.3470   -7.5520   19.7750 C.ar      1 8DV         0.0484
     20 C6         -2.2360   -8.2880   18.5900 C.ar      1 8DV         0.0312
     21 N1         -2.9050   -8.0240   20.9040 N.ar      1 8DV        -0.2630
     22 C8         -3.4050   -9.2660   20.8370 C.ar      1 8DV         0.1263
     23 C9         -4.0150   -9.8390   22.0830 C.ar      1 8DV         0.0092
     24 N3         -6.4500  -12.3300   22.8830 N.pl3     1 8DV        -0.2777
     25 C10        -3.7240   -9.2680   23.3270 C.ar      1 8DV        -0.0621
     26 N2         -3.3980  -10.0420   19.7440 N.ar      1 8DV        -0.2224
     27 C5         -2.8160   -9.5690   18.6290 C.ar      1 8DV         0.1599
     28 N          -2.8010  -10.4060   17.5460 N.pl3     1 8DV        -0.2741
     29 C          -1.9480  -12.6780   18.1170 C.3       1 8DV        -0.0393
     30 C4         -2.0830  -10.0230   16.3240 C.3       1 8DV         0.0567
     31 O          -3.0120  -12.0050   15.2690 O.3       1 8DV        -0.3754
     32 H1         -3.8877  -11.9114   18.5276 H         1 8DV         0.0582
     33 H2         -4.7899  -11.7403   16.3248 H         1 8DV         0.0583
     34 H3         -4.0288  -13.3595   16.4843 H         1 8DV         0.0583
     35 H4         -2.1572  -10.4401   14.2310 H         1 8DV         0.0580
     36 H5         -3.7489  -10.0981   14.9901 H         1 8DV         0.0580
     37 H6         -4.0985   -9.2499   25.4372 H         1 8DV         0.0545
     38 H7         -5.7055  -11.1370   25.3617 H         1 8DV         0.0587
     39 H8         -7.0683  -13.1890   20.9757 H         1 8DV         0.0954
     40 H9         -5.3216  -11.5543   19.8858 H         1 8DV         0.0297
     41 H10        -2.4304   -4.1722   20.8052 H         1 8DV         0.0209
     42 H11        -3.8339   -5.2770   20.6150 H         1 8DV         0.0209
     43 H12        -3.3114   -5.5038   18.0771 H         1 8DV         0.0209
     44 H13        -1.9079   -4.3990   18.2674 H         1 8DV         0.0209
     45 H14        -0.7142   -5.4659   22.4749 H         1 8DV         0.0617
     46 H15        -0.4579   -8.5599   22.7494 H         1 8DV         0.0591
     47 H16         2.2045   -6.5005   22.9066 H         1 8DV         0.0591
     48 H17        -1.7400   -7.8999   17.7077 H         1 8DV         0.0935
     49 H18        -7.0412  -12.8533   23.5445 H         1 8DV         0.2278
     50 H19        -3.0091   -8.4552   23.3842 H         1 8DV         0.0570
     51 H20        -1.5203  -12.2841   19.0508 H         1 8DV         0.0253
     52 H21        -1.1893  -12.6397   17.3215 H         1 8DV         0.0253
     53 H22        -2.2664  -13.7197   18.2703 H         1 8DV         0.0253
     54 H23        -2.0632   -8.9264   16.2399 H         1 8DV         0.0549
     55 H24        -1.0528  -10.4059   16.3698 H         1 8DV         0.0549
@<TRIPOS>BOND
     1    1    2 1  
     2   28    1 1  
     3    1   29 1  
     4    2   31 1  
     5    3   30 1  
     6   31    3 1  
     7   18    4 2  
     8   18    5 2  
     9    6    7 ar 
    10   25    6 ar 
    11    8    7 ar 
    12   11    8 ar 
    13    8   24 1  
    14   10    9 2  
    15    9   24 1  
    16   11   10 1  
    17   23   11 ar 
    18   12   13 1  
    19   12   14 1  
    20   12   18 1  
    21   19   12 1  
    22   14   13 1  
    23   15   16 1  
    24   15   17 1  
    25   18   15 1  
    26   17   16 2  
    27   20   19 ar 
    28   19   21 ar 
    29   27   20 ar 
    30   22   21 ar 
    31   22   23 1  
    32   26   22 ar 
    33   23   25 ar 
    34   27   26 ar 
    35   27   28 1  
    36   28   30 1  
    37    1   32 1  
    38    2   33 1  
    39    2   34 1  
    40    3   35 1  
    41    3   36 1  
    42    6   37 1  
    43    7   38 1  
    44    9   39 1  
    45   10   40 1  
    46   13   41 1  
    47   13   42 1  
    48   14   43 1  
    49   14   44 1  
    50   15   45 1  
    51   16   46 1  
    52   17   47 1  
    53   20   48 1  
    54   24   49 1  
    55   25   50 1  
    56   29   51 1  
    57   29   52 1  
    58   29   53 1  
    59   30   54 1  
    60   30   55 1  
@<TRIPOS>SUBSTRUCTURE
     1 8DV         1

