### 
### Created by X-TOOL on Mon Sep 10 21:13:32 2018
### 

@<TRIPOS>MOLECULE
5ukj_ligand
   55    59     1     0     0
SMALL
GAST_HUCK


@<TRIPOS>ATOM
      1 C1          2.7880  -12.5760  -19.1690 C.3       1 3K6         0.0701
      2 C2          3.3630  -12.8320  -17.7880 C.3       1 3K6         0.0942
      3 C3          1.8570  -11.1550  -15.0760 C.2       1 3K6        -0.0044
      4 O1         -0.0730   -3.7590  -15.8280 O.2       1 3K6        -0.1510
      5 C11        -2.4890   -3.6240  -14.3010 C.3       1 3K6         0.0178
      6 C12        -1.7540   -5.4910  -12.8600 C.3       1 3K6         0.0178
      7 C13         2.2450  -10.6610  -17.1870 C.2       1 3K6         0.1075
      8 C14         2.3620  -10.1300  -18.5790 C.3       1 3K6         0.0966
      9 C15         2.9670  -10.7550  -20.8890 C.ar      1 3K6         0.0542
     10 C16         2.0540   -9.8750  -21.4770 C.ar      1 3K6        -0.0335
     11 C17         2.1220   -9.6450  -22.8410 C.ar      1 3K6        -0.0226
     12 C18         3.9150  -11.0460  -23.0720 C.ar      1 3K6         0.1203
     13 C19         5.6280  -12.4260  -22.7120 C.2       1 3K6         0.0208
     14 C20         5.0700  -12.2240  -21.4910 C.2       1 3K6        -0.0606
     15 C21         3.9550  -11.3440  -21.6950 C.ar      1 3K6         0.0203
     16 S          -0.0080   -4.5450  -14.6330 S.o2      1 3K6         0.0670
     17 O           0.7800   -4.0900  -13.5310 O.2       1 3K6        -0.1510
     18 N2         -1.5350   -4.7200  -14.0910 N.am      1 3K6        -0.2409
     19 C8          0.5660   -6.1480  -15.0780 C.ar      1 3K6         0.1011
     20 C7          1.1550   -6.9500  -14.1140 C.ar      1 3K6        -0.0427
     21 C6          1.4900   -8.2530  -14.4260 C.ar      1 3K6        -0.0637
     22 C9          0.3460   -6.6300  -16.3620 C.ar      1 3K6        -0.0427
     23 C10         0.7050   -7.9320  -16.6690 C.ar      1 3K6        -0.0637
     24 C5          1.2810   -8.7600  -15.7050 C.ar      1 3K6        -0.0415
     25 C4          1.7150  -10.1390  -16.0300 C.2       1 3K6         0.0040
     26 N1          2.4590  -12.2190  -15.5620 N.2       1 3K6        -0.2255
     27 N           2.6980  -11.9090  -16.8710 N.pl3     1 3K6        -0.1952
     28 N3          2.8460  -11.1410  -19.5210 N.pl3     1 3K6        -0.2801
     29 C           1.3830  -13.1540  -19.3100 C.3       1 3K6        -0.0389
     30 N5          4.9410  -11.7220  -23.6690 N.pl3     1 3K6        -0.2726
     31 N4          3.0220  -10.2200  -23.6550 N.ar      1 3K6        -0.3081
     32 H1          3.4266  -13.1087  -19.8890 H         1 3K6         0.0586
     33 H2          4.4473  -12.6470  -17.7899 H         1 3K6         0.0659
     34 H3          3.1689  -13.8713  -17.4846 H         1 3K6         0.0659
     35 H4          1.5082  -11.0732  -14.0476 H         1 3K6         0.0647
     36 H5         -3.4658   -3.9022  -13.8786 H         1 3K6         0.0442
     37 H6         -2.5966   -3.4330  -15.3789 H         1 3K6         0.0442
     38 H7         -2.1194   -2.7156  -13.8028 H         1 3K6         0.0442
     39 H8         -2.8293   -5.5163  -12.6297 H         1 3K6         0.0442
     40 H9         -1.2121   -5.0163  -12.0287 H         1 3K6         0.0442
     41 H10        -1.3847   -6.5177  -12.9998 H         1 3K6         0.0442
     42 H11         3.0646   -9.2836  -18.5768 H         1 3K6         0.0753
     43 H12         1.3717   -9.7837  -18.9098 H         1 3K6         0.0753
     44 H13         1.3026   -9.3791  -20.8733 H         1 3K6         0.0477
     45 H14         1.4052   -8.9592  -23.2780 H         1 3K6         0.0703
     46 H15         6.4954  -13.0557  -22.9043 H         1 3K6         0.0903
     47 H16         5.4028  -12.6463  -20.5440 H         1 3K6         0.0295
     48 H17         1.3514   -6.5579  -13.1227 H         1 3K6         0.0617
     49 H18         1.9222   -8.8904  -13.6631 H         1 3K6         0.0554
     50 H19        -0.1022   -5.9934  -17.1163 H         1 3K6         0.0617
     51 H20         0.5365   -8.3122  -17.6701 H         1 3K6         0.0554
     52 H21         1.0019  -12.9486  -20.3212 H         1 3K6         0.0253
     53 H22         0.7189  -12.6891  -18.5665 H         1 3K6         0.0253
     54 H23         1.4153  -14.2409  -19.1441 H         1 3K6         0.0253
     55 H24         5.1631  -11.7059  -24.6747 H         1 3K6         0.2287
@<TRIPOS>BOND
     1    2    1 1  
     2   28    1 1  
     3    1   29 1  
     4   27    2 1  
     5   25    3 1  
     6    3   26 2  
     7   16    4 2  
     8   18    5 1  
     9   18    6 1  
    10    7    8 1  
    11   25    7 2  
    12    7   27 1  
    13    8   28 1  
    14    9   10 ar 
    15    9   15 ar 
    16   28    9 1  
    17   10   11 ar 
    18   11   31 ar 
    19   15   12 ar 
    20   12   30 1  
    21   12   31 ar 
    22   14   13 2  
    23   13   30 1  
    24   15   14 1  
    25   16   17 2  
    26   16   18 am 
    27   19   16 1  
    28   20   19 ar 
    29   22   19 ar 
    30   21   20 ar 
    31   24   21 ar 
    32   23   22 ar 
    33   24   23 ar 
    34   24   25 1  
    35   26   27 1  
    36    1   32 1  
    37    2   33 1  
    38    2   34 1  
    39    3   35 1  
    40    5   36 1  
    41    5   37 1  
    42    5   38 1  
    43    6   39 1  
    44    6   40 1  
    45    6   41 1  
    46    8   42 1  
    47    8   43 1  
    48   10   44 1  
    49   11   45 1  
    50   13   46 1  
    51   14   47 1  
    52   20   48 1  
    53   21   49 1  
    54   22   50 1  
    55   23   51 1  
    56   29   52 1  
    57   29   53 1  
    58   29   54 1  
    59   30   55 1  
@<TRIPOS>SUBSTRUCTURE
     1 3K6         1

