### 
### Created by X-TOOL on Mon Sep 10 21:13:34 2018
### 

@<TRIPOS>MOLECULE
5ukk_ligand
   61    65     1     0     0
SMALL
GAST_HUCK


@<TRIPOS>ATOM
      1 O         109.3020   35.5250   73.8560 O.2       1 8DJ        -0.3868
      2 C6        110.4600   35.8460   74.1170 C.2       1 8DJ         0.2047
      3 N         111.1150   36.8300   73.5000 N.am      1 8DJ        -0.2732
      4 C7        110.4850   37.7120   72.5460 C.3       1 8DJ         0.0792
      5 C8        110.4330   37.0950   71.1720 C.ar      1 8DJ         0.0502
      6 N1        109.4430   37.5180   70.3360 N.ar      1 8DJ        -0.2960
      7 C12       109.3160   37.0400   69.0910 C.ar      1 8DJ         0.0028
      8 C11       110.2260   36.0970   68.6300 C.ar      1 8DJ        -0.0410
      9 C10       111.2580   35.6470   69.4540 C.ar      1 8DJ        -0.0488
     10 C9        111.3710   36.1450   70.7450 C.ar      1 8DJ        -0.0304
     11 C5        111.1520   35.1810   75.2650 C.ar      1 8DJ         0.0768
     12 C         111.1890   33.8100   75.3900 C.ar      1 8DJ         0.1459
     13 F         110.6160   33.0420   74.4490 F         1 8DJ        -0.1831
     14 C4        111.7300   35.9880   76.2390 C.ar      1 8DJ        -0.0419
     15 C3        112.3730   35.4460   77.3530 C.ar      1 8DJ        -0.0376
     16 C2        112.4140   34.0550   77.4720 C.ar      1 8DJ        -0.0573
     17 C1        111.8210   33.2430   76.4980 C.ar      1 8DJ        -0.0288
     18 C13       113.0120   36.3190   78.3860 C.3       1 8DJ         0.0066
     19 C17       114.3440   36.9280   77.9210 C.3       1 8DJ         0.0386
     20 C16       114.9330   37.7230   79.0670 C.3       1 8DJ        -0.0263
     21 N2        114.0160   38.8330   79.3510 N.4       1 8DJ         0.2275
     22 C15       112.7120   38.3680   79.8380 C.3       1 8DJ        -0.0316
     23 C14       112.0690   37.4500   78.8210 C.3       1 8DJ         0.0000
     24 C18       115.4110   35.9520   77.4400 C.3       1 8DJ         0.0774
     25 O1        115.6910   35.0100   78.4500 O.3       1 8DJ        -0.3272
     26 C19       116.8380   34.2660   78.5840 C.ar      1 8DJ         0.0712
     27 C25       117.8610   34.2140   77.6340 C.ar      1 8DJ        -0.0128
     28 C24       118.9570   33.4120   77.9180 C.ar      1 8DJ         0.1152
     29 O3        120.0670   33.2020   77.1670 O.3       1 8DJ        -0.2937
     30 C23       120.9620   32.3380   77.8830 C.3       1 8DJ         0.1845
     31 O2        120.2240   31.9780   79.0590 O.3       1 8DJ        -0.2984
     32 C22       119.0570   32.6780   79.0540 C.ar      1 8DJ         0.1117
     33 C21       118.0610   32.7110   80.0090 C.ar      1 8DJ        -0.0497
     34 C20       116.9450   33.5120   79.7600 C.ar      1 8DJ        -0.0530
     35 H1        112.0843   36.9629   73.7069 H         1 8DJ         0.1873
     36 H2        111.0571   38.6501   72.4948 H         1 8DJ         0.0713
     37 H3        109.4592   37.9259   72.8805 H         1 8DJ         0.0713
     38 H4        108.5123   37.3851   68.4506 H         1 8DJ         0.0803
     39 H5        110.1336   35.7079   67.6225 H         1 8DJ         0.0652
     40 H6        111.9672   34.9131   69.0885 H         1 8DJ         0.0719
     41 H7        112.1627   35.8085   71.4045 H         1 8DJ         0.0652
     42 H8        111.6799   37.0654   76.1303 H         1 8DJ         0.0597
     43 H9        112.9080   33.6015   78.3237 H         1 8DJ         0.0584
     44 H10       111.8529   32.1648   76.6051 H         1 8DJ         0.0599
     45 H11       113.2192   35.6896   79.2640 H         1 8DJ         0.0461
     46 H12       114.1194   37.6093   77.0871 H         1 8DJ         0.0403
     47 H13       115.9208   38.1151   78.7835 H         1 8DJ         0.0819
     48 H14       115.0339   37.0826   79.9556 H         1 8DJ         0.0819
     49 H15       113.8759   39.3623   78.5047 H         1 8DJ         0.2014
     50 H16       114.4316   39.4253   80.0528 H         1 8DJ         0.2014
     51 H17       112.0577   39.2357   80.0085 H         1 8DJ         0.0815
     52 H18       112.8510   37.8222   80.7829 H         1 8DJ         0.0815
     53 H19       111.1650   37.0072   79.2645 H         1 8DJ         0.0341
     54 H20       111.7915   38.0407   77.9355 H         1 8DJ         0.0341
     55 H21       116.3285   36.5068   77.1945 H         1 8DJ         0.0616
     56 H22       115.0483   35.4281   76.5434 H         1 8DJ         0.0616
     57 H23       117.8008   34.7785   76.7105 H         1 8DJ         0.0436
     58 H24       121.8887   32.8676   78.1490 H         1 8DJ         0.0969
     59 H25       121.2072   31.4469   77.2865 H         1 8DJ         0.0969
     60 H26       118.1427   32.1336   80.9228 H         1 8DJ         0.0483
     61 H27       116.1455   33.5513   80.4910 H         1 8DJ         0.0422
@<TRIPOS>BOND
     1    1    2 2  
     2    2    3 am 
     3    2   11 1  
     4    3    4 1  
     5    4    5 1  
     6    5    6 ar 
     7    5   10 ar 
     8    6    7 ar 
     9    7    8 ar 
    10    8    9 ar 
    11    9   10 ar 
    12   11   12 ar 
    13   11   14 ar 
    14   12   13 1  
    15   12   17 ar 
    16   14   15 ar 
    17   15   16 ar 
    18   15   18 1  
    19   16   17 ar 
    20   18   19 1  
    21   18   23 1  
    22   19   20 1  
    23   19   24 1  
    24   20   21 1  
    25   21   22 1  
    26   22   23 1  
    27   24   25 1  
    28   25   26 1  
    29   26   27 ar 
    30   26   34 ar 
    31   27   28 ar 
    32   28   29 1  
    33   28   32 ar 
    34   29   30 1  
    35   30   31 1  
    36   31   32 1  
    37   32   33 ar 
    38   33   34 ar 
    39    3   35 1  
    40    4   36 1  
    41    4   37 1  
    42    7   38 1  
    43    8   39 1  
    44    9   40 1  
    45   10   41 1  
    46   14   42 1  
    47   16   43 1  
    48   17   44 1  
    49   18   45 1  
    50   19   46 1  
    51   20   47 1  
    52   20   48 1  
    53   21   49 1  
    54   21   50 1  
    55   22   51 1  
    56   22   52 1  
    57   23   53 1  
    58   23   54 1  
    59   24   55 1  
    60   24   56 1  
    61   27   57 1  
    62   30   58 1  
    63   30   59 1  
    64   33   60 1  
    65   34   61 1  
@<TRIPOS>SUBSTRUCTURE
     1 8DJ         1

