### 
### Created by X-TOOL on Mon Sep 10 21:13:32 2018
### 

@<TRIPOS>MOLECULE
5ukl_ligand
   65    69     1     0     0
SMALL
GAST_HUCK


@<TRIPOS>ATOM
      1 O          14.2980   -3.1330   47.9620 O.2       1 SIX        -0.3942
      2 C7         13.2500   -2.8310   48.5330 C.2       1 SIX         0.1869
      3 N          12.2710   -3.6970   48.8050 N.am      1 SIX        -0.2842
      4 C8         12.3590   -5.1350   48.5130 C.3       1 SIX         0.0355
      5 C9         11.1060   -5.9490   48.8980 C.3       1 SIX        -0.0134
      6 C10        11.2330   -7.3550   48.3680 C.2       1 SIX        -0.0311
      7 C12        10.3100   -8.0200   47.5530 C.2       1 SIX        -0.0034
      8 N2         10.8350   -9.2270   47.2880 N.2       1 SIX        -0.2255
      9 N1         12.0760   -9.3730   47.9390 N.pl3     1 SIX        -0.2296
     10 C11        12.3180   -8.2130   48.5900 C.2       1 SIX         0.0431
     11 C6         13.0070   -1.4170   49.0160 C.3       1 SIX         0.0696
     12 C5         14.2940   -0.7930   49.5770 C.ar      1 SIX         0.0028
     13 C          15.2040   -0.1070   48.7590 C.ar      1 SIX         0.1279
     14 F          14.9420    0.0010   47.4580 F         1 SIX        -0.1944
     15 C4         14.5720   -0.8900   50.9390 C.ar      1 SIX        -0.0579
     16 C3         15.7340   -0.3220   51.4950 C.ar      1 SIX        -0.0494
     17 C2         16.6290    0.3580   50.6690 C.ar      1 SIX        -0.0684
     18 C1         16.3580    0.4670   49.2910 C.ar      1 SIX        -0.0411
     19 C13        15.9970   -0.4620   52.9430 C.3       1 SIX         0.0042
     20 C17        14.8710    0.1270   53.8260 C.3       1 SIX         0.0385
     21 C16        15.1880   -0.0810   55.3040 C.3       1 SIX        -0.0263
     22 N3         15.3660   -1.5400   55.5530 N.4       1 SIX         0.2275
     23 C15        16.5020   -2.0610   54.7690 C.3       1 SIX        -0.0316
     24 C14        16.1350   -1.9500   53.2890 C.3       1 SIX        -0.0001
     25 C18        14.5850    1.5850   53.6060 C.3       1 SIX         0.0774
     26 O1         15.7970    2.3410   53.5000 O.3       1 SIX        -0.3272
     27 C19        15.7310    3.7350   53.5060 C.ar      1 SIX         0.0712
     28 C25        14.5380    4.4420   53.2640 C.ar      1 SIX        -0.0128
     29 C24        14.5510    5.8220   53.2880 C.ar      1 SIX         0.1152
     30 O3         13.4990    6.6770   53.0740 O.3       1 SIX        -0.2937
     31 C23        13.9840    7.9720   53.4150 C.3       1 SIX         0.1845
     32 O2         15.4100    7.8620   53.5560 O.3       1 SIX        -0.2984
     33 C22        15.6830    6.5280   53.5590 C.ar      1 SIX         0.1117
     34 C21        16.8790    5.8810   53.8410 C.ar      1 SIX        -0.0497
     35 C20        16.8850    4.4750   53.7930 C.ar      1 SIX        -0.0530
     36 H1         11.4348   -3.3495   49.2292 H         1 SIX         0.1853
     37 H2         13.2171   -5.5450   49.0658 H         1 SIX         0.0534
     38 H3         12.5273   -5.2556   47.4327 H         1 SIX         0.0534
     39 H4         10.2135   -5.4739   48.4648 H         1 SIX         0.0371
     40 H5         11.0108   -5.9781   49.9935 H         1 SIX         0.0371
     41 H6          9.3538   -7.6343   47.2026 H         1 SIX         0.0627
     42 H7         12.6831  -10.2049   47.9222 H         1 SIX         0.2534
     43 H8         13.2022   -7.9853   49.1835 H         1 SIX         0.0870
     44 H9         12.2424   -1.4342   49.8066 H         1 SIX         0.0650
     45 H10        12.6498   -0.8064   48.1736 H         1 SIX         0.0650
     46 H11        13.8777   -1.4148   51.5852 H         1 SIX         0.0489
     47 H12        17.5273    0.7997   51.0849 H         1 SIX         0.0492
     48 H13        17.0470    0.9975   48.6437 H         1 SIX         0.0569
     49 H14        16.9375    0.0581   53.1775 H         1 SIX         0.0460
     50 H15        13.9519   -0.4282   53.5876 H         1 SIX         0.0403
     51 H16        14.3590    0.3010   55.9179 H         1 SIX         0.0819
     52 H17        16.1132    0.4544   55.5632 H         1 SIX         0.0819
     53 H18        14.5257   -2.0277   55.2844 H         1 SIX         0.2014
     54 H19        15.5428   -1.6904   56.5339 H         1 SIX         0.2014
     55 H20        16.6870   -3.1131   55.0312 H         1 SIX         0.0815
     56 H21        17.4043   -1.4672   54.9768 H         1 SIX         0.0815
     57 H22        16.9256   -2.4042   52.6737 H         1 SIX         0.0341
     58 H23        15.1821   -2.4665   53.1014 H         1 SIX         0.0341
     59 H24        13.9970    1.9671   54.4535 H         1 SIX         0.0616
     60 H25        14.0075    1.7011   52.6770 H         1 SIX         0.0616
     61 H26        13.6172    3.9073   53.0606 H         1 SIX         0.0436
     62 H27        13.5353    8.3063   54.3620 H         1 SIX         0.0969
     63 H28        13.7373    8.6897   52.6188 H         1 SIX         0.0969
     64 H29        17.7748    6.4387   54.0889 H         1 SIX         0.0483
     65 H30        17.8125    3.9475   53.9843 H         1 SIX         0.0422
@<TRIPOS>BOND
     1    1    2 2  
     2    2    3 am 
     3    2   11 1  
     4    3    4 1  
     5    4    5 1  
     6    5    6 1  
     7    6    7 1  
     8    6   10 2  
     9    7    8 2  
    10    8    9 1  
    11    9   10 1  
    12   11   12 1  
    13   12   13 ar 
    14   12   15 ar 
    15   13   14 1  
    16   13   18 ar 
    17   15   16 ar 
    18   16   17 ar 
    19   16   19 1  
    20   17   18 ar 
    21   19   20 1  
    22   19   24 1  
    23   20   21 1  
    24   20   25 1  
    25   21   22 1  
    26   22   23 1  
    27   23   24 1  
    28   25   26 1  
    29   26   27 1  
    30   27   28 ar 
    31   27   35 ar 
    32   28   29 ar 
    33   29   30 1  
    34   29   33 ar 
    35   30   31 1  
    36   31   32 1  
    37   32   33 1  
    38   33   34 ar 
    39   34   35 ar 
    40    3   36 1  
    41    4   37 1  
    42    4   38 1  
    43    5   39 1  
    44    5   40 1  
    45    7   41 1  
    46    9   42 1  
    47   10   43 1  
    48   11   44 1  
    49   11   45 1  
    50   15   46 1  
    51   17   47 1  
    52   18   48 1  
    53   19   49 1  
    54   20   50 1  
    55   21   51 1  
    56   21   52 1  
    57   22   53 1  
    58   22   54 1  
    59   23   55 1  
    60   23   56 1  
    61   24   57 1  
    62   24   58 1  
    63   25   59 1  
    64   25   60 1  
    65   28   61 1  
    66   31   62 1  
    67   31   63 1  
    68   34   64 1  
    69   35   65 1  
@<TRIPOS>SUBSTRUCTURE
     1 SIX         1

