### 
### Created by X-TOOL on Mon Sep 10 21:13:33 2018
### 

@<TRIPOS>MOLECULE
5ukm_ligand
   59    63     1     0     0
SMALL
GAST_HUCK


@<TRIPOS>ATOM
      1 O         -29.4160  -46.2830   -1.0160 O.2       1 T0E        -0.3868
      2 C6        -29.0780  -45.4910   -1.8830 C.2       1 T0E         0.2043
      3 N         -27.8220  -45.4120   -2.3450 N.am      1 T0E        -0.2766
      4 C7        -26.7480  -46.2950   -1.9220 C.3       1 T0E         0.0663
      5 C8        -25.9890  -45.6250   -0.8180 C.2       1 T0E         0.0275
      6 N2        -25.3620  -44.4550   -0.9010 N.2       1 T0E        -0.2293
      7 N1        -24.7590  -44.1420    0.3220 N.pl3     1 T0E        -0.2309
      8 C10       -25.0480  -45.1570    1.1660 C.2       1 T0E         0.0420
      9 C9        -25.8060  -46.0850    0.4820 C.2       1 T0E        -0.0448
     10 C5        -30.1570  -44.6350   -2.4970 C.ar      1 T0E         0.0767
     11 C         -31.0820  -43.9250   -1.7240 C.ar      1 T0E         0.1459
     12 F         -31.0350  -43.9400   -0.3730 F         1 T0E        -0.1831
     13 C4        -30.2430  -44.5980   -3.8960 C.ar      1 T0E        -0.0419
     14 C3        -31.2340  -43.8540   -4.5540 C.ar      1 T0E        -0.0376
     15 C2        -32.1460  -43.1350   -3.7710 C.ar      1 T0E        -0.0573
     16 C1        -32.0710  -43.1730   -2.3730 C.ar      1 T0E        -0.0288
     17 C11       -31.3170  -43.7900   -6.0500 C.3       1 T0E         0.0066
     18 C15       -30.1660  -42.9520   -6.6150 C.3       1 T0E         0.0386
     19 C14       -30.1150  -42.9470   -8.1390 C.3       1 T0E        -0.0263
     20 N3        -30.0910  -44.3210   -8.6370 N.4       1 T0E         0.2275
     21 C13       -31.3030  -45.0340   -8.2080 C.3       1 T0E        -0.0316
     22 C12       -31.2950  -45.1710   -6.6900 C.3       1 T0E         0.0000
     23 C16       -30.1940  -41.5000   -6.1500 C.3       1 T0E         0.0774
     24 O1        -31.4790  -40.8650   -6.1510 O.3       1 T0E        -0.3272
     25 C17       -31.5830  -39.4890   -6.0300 C.ar      1 T0E         0.0712
     26 C23       -30.5110  -38.6850   -5.5880 C.ar      1 T0E        -0.0128
     27 C22       -30.6800  -37.3100   -5.4950 C.ar      1 T0E         0.1152
     28 O3        -29.7780  -36.3710   -5.0880 O.3       1 T0E        -0.2937
     29 C21       -30.3870  -35.0930   -5.2940 C.3       1 T0E         0.1845
     30 O2        -31.7510  -35.3770   -5.6580 O.3       1 T0E        -0.2984
     31 C20       -31.8610  -36.7200   -5.8370 C.ar      1 T0E         0.1117
     32 C19       -32.9390  -37.4650   -6.2860 C.ar      1 T0E        -0.0497
     33 C18       -32.7900  -38.8570   -6.3740 C.ar      1 T0E        -0.0530
     34 H1        -27.6119  -44.7045   -3.0198 H         1 T0E         0.1867
     35 H2        -26.0743  -46.4921   -2.7689 H         1 T0E         0.0667
     36 H3        -27.1691  -47.2444   -1.5597 H         1 T0E         0.0667
     37 H4        -24.2033  -43.3019    0.5371 H         1 T0E         0.2525
     38 H5        -24.7363  -45.2299    2.2069 H         1 T0E         0.0974
     39 H6        -26.1942  -47.0172    0.8897 H         1 T0E         0.0315
     40 H7        -29.5255  -45.1585   -4.4843 H         1 T0E         0.0597
     41 H8        -32.9170  -42.5436   -4.2515 H         1 T0E         0.0584
     42 H9        -32.7883  -42.6127   -1.7842 H         1 T0E         0.0599
     43 H10       -32.2671  -43.3038   -6.3161 H         1 T0E         0.0461
     44 H11       -29.2336  -43.4058   -6.2480 H         1 T0E         0.0403
     45 H12       -29.2080  -42.4216   -8.4725 H         1 T0E         0.0819
     46 H13       -31.0032  -42.4312   -8.5326 H         1 T0E         0.0819
     47 H14       -29.2791  -44.7939   -8.2721 H         1 T0E         0.2014
     48 H15       -30.0493  -44.3101   -9.6441 H         1 T0E         0.2014
     49 H16       -31.3235  -46.0334   -8.6671 H         1 T0E         0.0815
     50 H17       -32.1927  -44.4681   -8.5213 H         1 T0E         0.0815
     51 H18       -32.1821  -45.7368   -6.3693 H         1 T0E         0.0341
     52 H19       -30.3861  -45.7051   -6.3759 H         1 T0E         0.0341
     53 H20       -29.5323  -40.9218   -6.8117 H         1 T0E         0.0616
     54 H21       -29.8036  -41.4681   -5.1221 H         1 T0E         0.0616
     55 H22       -29.5623  -39.1376   -5.3229 H         1 T0E         0.0436
     56 H23       -29.8775  -34.5492   -6.1031 H         1 T0E         0.0969
     57 H24       -30.3508  -34.4956   -4.3711 H         1 T0E         0.0969
     58 H25       -33.8715  -36.9858   -6.5616 H         1 T0E         0.0483
     59 H26       -33.6247  -39.4587   -6.7150 H         1 T0E         0.0422
@<TRIPOS>BOND
     1    1    2 2  
     2    2    3 am 
     3    2   10 1  
     4    3    4 1  
     5    4    5 1  
     6    5    6 2  
     7    5    9 1  
     8    6    7 1  
     9    7    8 1  
    10    8    9 2  
    11   10   11 ar 
    12   10   13 ar 
    13   11   12 1  
    14   11   16 ar 
    15   13   14 ar 
    16   14   15 ar 
    17   14   17 1  
    18   15   16 ar 
    19   17   18 1  
    20   17   22 1  
    21   18   19 1  
    22   18   23 1  
    23   19   20 1  
    24   20   21 1  
    25   21   22 1  
    26   23   24 1  
    27   24   25 1  
    28   25   26 ar 
    29   25   33 ar 
    30   26   27 ar 
    31   27   28 1  
    32   27   31 ar 
    33   28   29 1  
    34   29   30 1  
    35   30   31 1  
    36   31   32 ar 
    37   32   33 ar 
    38    3   34 1  
    39    4   35 1  
    40    4   36 1  
    41    7   37 1  
    42    8   38 1  
    43    9   39 1  
    44   13   40 1  
    45   15   41 1  
    46   16   42 1  
    47   17   43 1  
    48   18   44 1  
    49   19   45 1  
    50   19   46 1  
    51   20   47 1  
    52   20   48 1  
    53   21   49 1  
    54   21   50 1  
    55   22   51 1  
    56   22   52 1  
    57   23   53 1  
    58   23   54 1  
    59   26   55 1  
    60   29   56 1  
    61   29   57 1  
    62   32   58 1  
    63   33   59 1  
@<TRIPOS>SUBSTRUCTURE
     1 T0E         1

