### 
### Created by X-TOOL on Mon Sep 10 21:13:32 2018
### 

@<TRIPOS>MOLECULE
5ul1_ligand
   57    59     1     0     0
SMALL
GAST_HUCK


@<TRIPOS>ATOM
      1 C1         -1.1840   -4.4540  -13.7470 C.3       1 8DY         0.1187
      2 C2         -2.3020   -3.4000  -14.0410 C.3       1 8DY        -0.0095
      3 C3         -4.2520   -3.0280  -12.6100 C.3       1 8DY        -0.0433
      4 O1          0.0350   -3.3870  -15.8270 O.2       1 8DY        -0.1688
      5 O2          4.3700  -11.7090  -20.0620 O.2       1 8DY        -0.3710
      6 C11         1.8710   -9.6960  -16.7060 C.ar      1 8DY         0.0738
      7 C12         1.8390  -10.8370  -15.9020 C.ar      1 8DY         0.0379
      8 C13         2.8290  -12.1010  -17.5580 C.ar      1 8DY         0.1616
      9 C14         2.8580  -10.9440  -18.3910 C.ar      1 8DY         0.1751
     10 C15         3.4770  -10.9180  -19.7650 C.2       1 8DY         0.2520
     11 C16         3.4230   -9.7700  -21.9580 C.ar      1 8DY         0.0661
     12 C17         3.0550   -8.5920  -22.5990 C.ar      1 8DY        -0.0412
     13 C18         3.5190   -8.3260  -23.8780 C.ar      1 8DY        -0.0755
     14 C19         4.3440   -9.2280  -24.5250 C.ar      1 8DY        -0.0771
     15 C20         4.7040  -10.4050  -23.8950 C.ar      1 8DY        -0.0755
     16 C21         4.2460  -10.6820  -22.6170 C.ar      1 8DY        -0.0412
     17 N          -3.6390   -3.8750  -13.6290 N.4       1 8DY         0.2323
     18 C          -0.9070   -4.5390  -12.2530 C.3       1 8DY        -0.0374
     19 O           1.3690   -3.7960  -13.7840 O.2       1 8DY        -0.1688
     20 C10         0.7590   -6.0800  -16.6480 C.ar      1 8DY        -0.0356
     21 C4         -4.5460   -4.0290  -14.7640 C.3       1 8DY        -0.0433
     22 C5          0.7510   -5.8290  -15.2820 C.ar      1 8DY         0.0893
     23 C6          1.0920   -6.8210  -14.3790 C.ar      1 8DY        -0.0356
     24 C7          1.4420   -8.0740  -14.8480 C.ar      1 8DY        -0.0504
     25 C8          1.4660   -8.3570  -16.2150 C.ar      1 8DY        -0.0003
     26 C9          1.1160   -7.3380  -17.1020 C.ar      1 8DY        -0.0504
     27 N1          2.3080  -12.0140  -16.3140 N.ar      1 8DY        -0.2533
     28 N2          3.2980  -13.2880  -17.9500 N.pl3     1 8DY        -0.3112
     29 N3          2.3720   -9.7660  -17.9570 N.ar      1 8DY        -0.2601
     30 N4          2.9900   -9.9970  -20.6290 N.am      1 8DY        -0.2320
     31 S           0.3320   -4.2160  -14.6990 S.o2      1 8DY         0.0047
     32 H1         -1.5884   -5.4300  -14.0535 H         1 8DY         0.0591
     33 H2         -2.3174   -3.1917  -15.1210 H         1 8DY         0.0833
     34 H3         -2.0701   -2.4752  -13.4924 H         1 8DY         0.0833
     35 H4         -5.2409   -3.4304  -12.3451 H         1 8DY         0.0777
     36 H5         -4.3649   -2.0063  -13.0017 H         1 8DY         0.0777
     37 H6         -3.6122   -3.0091  -11.7154 H         1 8DY         0.0777
     38 H7          1.4172  -10.7625  -14.9062 H         1 8DY         0.0922
     39 H8          2.4059   -7.8823  -22.0990 H         1 8DY         0.0503
     40 H9          3.2335   -7.4054  -24.3740 H         1 8DY         0.0577
     41 H10         4.7074   -9.0128  -25.5233 H         1 8DY         0.0488
     42 H11         5.3474  -11.1141  -24.4032 H         1 8DY         0.0577
     43 H12         4.5278  -11.6082  -22.1294 H         1 8DY         0.0503
     44 H13        -3.5108   -4.7877  -13.2210 H         1 8DY         0.2028
     45 H14        -1.8539   -4.6835  -11.7122 H         1 8DY         0.0250
     46 H15        -0.4302   -3.6072  -11.9149 H         1 8DY         0.0250
     47 H16        -0.2368   -5.3878  -12.0520 H         1 8DY         0.0250
     48 H17         0.4888   -5.2998  -17.3504 H         1 8DY         0.0638
     49 H18        -4.0752   -4.6682  -15.5254 H         1 8DY         0.0777
     50 H19        -4.7623   -3.0413  -15.1972 H         1 8DY         0.0777
     51 H20        -5.4833   -4.4935  -14.4240 H         1 8DY         0.0777
     52 H21         1.0848   -6.6177  -13.3143 H         1 8DY         0.0638
     53 H22         1.7030   -8.8522  -14.1399 H         1 8DY         0.0630
     54 H23         1.1239   -7.5356  -18.1678 H         1 8DY         0.0630
     55 H24         3.2549  -14.0951  -17.3116 H         1 8DY         0.1819
     56 H25         3.7030  -13.3966  -18.8908 H         1 8DY         0.1819
     57 H26         2.2475   -9.4168  -20.2942 H         1 8DY         0.2253
@<TRIPOS>BOND
     1    1    2 1  
     2    1   18 1  
     3   31    1 1  
     4    2   17 1  
     5   17    3 1  
     6   31    4 2  
     7   10    5 2  
     8    6    7 ar 
     9   25    6 1  
    10    6   29 ar 
    11    7   27 ar 
    12    9    8 ar 
    13   27    8 ar 
    14    8   28 1  
    15    9   10 1  
    16   29    9 ar 
    17   10   30 am 
    18   11   12 ar 
    19   11   16 ar 
    20   30   11 1  
    21   12   13 ar 
    22   13   14 ar 
    23   15   14 ar 
    24   16   15 ar 
    25   17   21 1  
    26   31   19 2  
    27   22   20 ar 
    28   20   26 ar 
    29   23   22 ar 
    30   22   31 1  
    31   24   23 ar 
    32   24   25 ar 
    33   25   26 ar 
    34    1   32 1  
    35    2   33 1  
    36    2   34 1  
    37    3   35 1  
    38    3   36 1  
    39    3   37 1  
    40    7   38 1  
    41   12   39 1  
    42   13   40 1  
    43   14   41 1  
    44   15   42 1  
    45   16   43 1  
    46   17   44 1  
    47   18   45 1  
    48   18   46 1  
    49   18   47 1  
    50   20   48 1  
    51   21   49 1  
    52   21   50 1  
    53   21   51 1  
    54   23   52 1  
    55   24   53 1  
    56   26   54 1  
    57   28   55 1  
    58   28   56 1  
    59   30   57 1  
@<TRIPOS>SUBSTRUCTURE
     1 8DY         1

