### 
### Created by X-TOOL on Mon Sep 10 21:13:31 2018
### 

@<TRIPOS>MOLECULE
5ul5_ligand
   50    50     1     0     0
SMALL
GAST_HUCK


@<TRIPOS>ATOM
      1 C16       -38.4720  134.8650    9.2530 C.ar      1 8D7        -0.0298
      2 C10       -38.7660  134.9730   12.0030 C.ar      1 8D7        -0.0771
      3 C8        -39.3810  135.7600    9.8330 C.ar      1 8D7         0.0845
      4 C7        -40.1090  136.6000    7.6290 C.3       1 8D7         0.0731
      5 C6        -44.6660  136.3200    8.0120 C.3       1 8D7        -0.0653
      6 C5        -43.1960  136.2530    7.5630 C.3       1 8D7        -0.0556
      7 O1        -35.5050  133.6930    9.0140 O.3       1 8D7        -0.3793
      8 C13       -36.6750  133.0410    9.5030 C.3       1 8D7         0.0915
      9 C14       -37.2420  132.2860    8.3000 C.3       1 8D7         0.0232
     10 C15       -36.2560  131.2160    7.8220 C.3       1 8D7        -0.0312
     11 N         -35.0250  131.7520    7.2200 N.4       1 8D7         0.2187
     12 C12       -37.7070  134.0140   10.0610 C.ar      1 8D7        -0.0235
     13 C11       -37.8630  134.0930   11.4360 C.ar      1 8D7        -0.0690
     14 C9        -39.5360  135.8030   11.2080 C.ar      1 8D7        -0.0401
     15 O         -40.1560  136.6030    9.0630 O.3       1 8D7        -0.3195
     16 C3        -41.0780  137.6480    7.1250 C.3       1 8D7        -0.0132
     17 C4        -42.4780  137.5580    7.7550 C.3       1 8D7        -0.0480
     18 C2        -40.4770  139.0490    7.3270 C.3       1 8D7        -0.0480
     19 C1        -41.3800  140.2100    6.8770 C.3       1 8D7        -0.0556
     20 C         -40.7300  141.5440    6.9710 C.3       1 8D7        -0.0653
     21 H1        -38.3604  134.8311    8.1753 H         1 8D7         0.0479
     22 H2        -38.8717  135.0130   13.0811 H         1 8D7         0.0572
     23 H3        -40.3996  135.6097    7.2484 H         1 8D7         0.0616
     24 H4        -39.0907  136.8393    7.2887 H         1 8D7         0.0616
     25 H5        -45.1436  135.3423    7.8506 H         1 8D7         0.0230
     26 H6        -45.1938  137.0870    7.4262 H         1 8D7         0.0230
     27 H7        -44.7117  136.5785    9.0802 H         1 8D7         0.0230
     28 H8        -43.1644  135.9862    6.4963 H         1 8D7         0.0263
     29 H9        -42.6823  135.4776    8.1503 H         1 8D7         0.0263
     30 H10       -35.1001  134.1850    9.7186 H         1 8D7         0.2130
     31 H11       -36.3978  132.3322   10.2972 H         1 8D7         0.0757
     32 H12       -37.4284  132.9972    7.4818 H         1 8D7         0.0364
     33 H13       -38.1873  131.8033    8.5888 H         1 8D7         0.0364
     34 H14       -36.7626  130.5914    7.0716 H         1 8D7         0.0815
     35 H15       -35.9751  130.5959    8.6860 H         1 8D7         0.0815
     36 H16       -34.4318  130.9893    6.9328 H         1 8D7         0.1994
     37 H17       -34.5391  132.3190    7.8971 H         1 8D7         0.1994
     38 H18       -35.2608  132.3148    6.4177 H         1 8D7         0.1994
     39 H19       -37.2670  133.4541   12.0775 H         1 8D7         0.0465
     40 H20       -40.2535  136.4802   11.6572 H         1 8D7         0.0486
     41 H21       -41.2003  137.4860    6.0439 H         1 8D7         0.0327
     42 H22       -42.3736  137.7304    8.8364 H         1 8D7         0.0269
     43 H23       -43.0982  138.3529    7.3151 H         1 8D7         0.0269
     44 H24       -39.5386  139.1043    6.7557 H         1 8D7         0.0269
     45 H25       -40.2624  139.1780    8.3981 H         1 8D7         0.0269
     46 H26       -42.2791  140.2164    7.5107 H         1 8D7         0.0263
     47 H27       -41.6705  140.0383    5.8301 H         1 8D7         0.0263
     48 H28       -41.4338  142.3193    6.6340 H         1 8D7         0.0230
     49 H29       -39.8334  141.5608    6.3339 H         1 8D7         0.0230
     50 H30       -40.4420  141.7389    8.0146 H         1 8D7         0.0230
@<TRIPOS>BOND
     1    3    1 ar 
     2    1   12 ar 
     3    2   13 ar 
     4   14    2 ar 
     5    3   14 ar 
     6   15    3 1  
     7    4   15 1  
     8   16    4 1  
     9    6    5 1  
    10   17    6 1  
    11    8    7 1  
    12    8    9 1  
    13   12    8 1  
    14    9   10 1  
    15   10   11 1  
    16   12   13 ar 
    17   16   17 1  
    18   16   18 1  
    19   18   19 1  
    20   19   20 1  
    21    1   21 1  
    22    2   22 1  
    23    4   23 1  
    24    4   24 1  
    25    5   25 1  
    26    5   26 1  
    27    5   27 1  
    28    6   28 1  
    29    6   29 1  
    30    7   30 1  
    31    8   31 1  
    32    9   32 1  
    33    9   33 1  
    34   10   34 1  
    35   10   35 1  
    36   11   36 1  
    37   11   37 1  
    38   11   38 1  
    39   13   39 1  
    40   14   40 1  
    41   16   41 1  
    42   17   42 1  
    43   17   43 1  
    44   18   44 1  
    45   18   45 1  
    46   19   46 1  
    47   19   47 1  
    48   20   48 1  
    49   20   49 1  
    50   20   50 1  
@<TRIPOS>SUBSTRUCTURE
     1 8D7         1

