### 
### Created by X-TOOL on Mon Sep 10 21:13:30 2018
### 

@<TRIPOS>MOLECULE
5ula_ligand
   45    47     1     0     0
SMALL
GAST_HUCK


@<TRIPOS>ATOM
      1 C3          7.7800  -12.1140   -9.0640 C.ar      1 5MJ         0.0551
      2 C4          7.0490  -13.8270  -11.1830 C.ar      1 5MJ         0.0756
      3 C5          6.4540  -12.3490   -9.4430 C.ar      1 5MJ        -0.0490
      4 C6          6.0790  -13.1830  -10.4840 C.ar      1 5MJ        -0.0458
      5 C2          8.3350  -13.6180  -10.8180 C.ar      1 5MJ        -0.0458
      6 C1          8.7540  -12.7720   -9.7630 C.ar      1 5MJ        -0.0490
      7 O26        11.7520   -5.1090    0.3270 O.2       1 5MJ        -0.4139
      8 C19        11.4540   -5.9760   -0.5370 C.2       1 5MJ         0.0893
      9 C21        12.3300   -7.0870   -0.9980 C.3       1 5MJ         0.0255
     10 C23        11.5950   -7.6720   -2.2180 C.3       1 5MJ         0.0224
     11 C22        10.3140   -6.9440   -2.2680 C.2       1 5MJ         0.0561
     12 C20        10.2300   -5.9460   -1.3650 C.2       1 5MJ        -0.0013
     13 C25         9.1590   -4.9410   -1.1310 C.3       1 5MJ        -0.0494
     14 N18         9.3070   -7.2010   -3.1200 N.pl3     1 5MJ        -0.2649
     15 C15         9.3220   -8.0920   -4.2180 C.ar      1 5MJ         0.0823
     16 C13        10.3620   -8.0850   -5.1510 C.ar      1 5MJ        -0.0320
     17 C11        10.3120   -8.9630   -6.2320 C.ar      1 5MJ        -0.0512
     18 C14         8.2560   -8.9180   -4.4280 C.ar      1 5MJ         0.0682
     19 CL          6.9730   -9.0240   -3.2040 Cl        1 5MJ        -0.0783
     20 C12         8.2040   -9.9040   -5.4750 C.ar      1 5MJ        -0.0374
     21 C10         9.2270   -9.8300   -6.4440 C.ar      1 5MJ         0.0435
     22 C8          9.2090  -10.7660   -7.6390 C.2       1 5MJ         0.2206
     23 O9         10.2710  -10.9650   -8.2520 O.2       1 5MJ        -0.3803
     24 N7          8.0140  -11.2450   -8.0000 N.am      1 5MJ        -0.2411
     25 O16         6.7410  -14.6770  -12.2410 O.3       1 5MJ        -0.3308
     26 C17         5.3920  -14.9920  -12.5130 C.3       1 5MJ         0.0562
     27 H1          5.6704  -11.8469   -8.8871 H         1 5MJ         0.0479
     28 H2          5.0333  -13.3186  -10.7352 H         1 5MJ         0.0507
     29 H3          9.1042  -14.1388  -11.3768 H         1 5MJ         0.0507
     30 H4          9.8033  -12.6508   -9.5194 H         1 5MJ         0.0479
     31 H5         12.4427   -7.8465   -0.2103 H         1 5MJ         0.0497
     32 H6         13.3214   -6.7074   -1.2859 H         1 5MJ         0.0497
     33 H7         11.4233   -8.7506   -2.0869 H         1 5MJ         0.0511
     34 H8         12.1738   -7.5020   -3.1378 H         1 5MJ         0.0511
     35 H9          9.4493   -4.2828   -0.2988 H         1 5MJ         0.0275
     36 H10         8.2205   -5.4569   -0.8802 H         1 5MJ         0.0275
     37 H11         9.0151   -4.3398   -2.0409 H         1 5MJ         0.0275
     38 H12         8.4266   -6.6926   -2.9549 H         1 5MJ         0.2179
     39 H13        11.1979   -7.4046   -5.0353 H         1 5MJ         0.0548
     40 H14        11.1385   -8.9775   -6.9333 H         1 5MJ         0.0640
     41 H15         7.4261  -10.6578   -5.5167 H         1 5MJ         0.0645
     42 H16         7.2224  -10.9556   -7.4618 H         1 5MJ         0.2213
     43 H17         5.3411  -15.6709  -13.3770 H         1 5MJ         0.0572
     44 H18         4.8382  -14.0688  -12.7390 H         1 5MJ         0.0572
     45 H19         4.9456  -15.4818  -11.6350 H         1 5MJ         0.0572
@<TRIPOS>BOND
     1    1    3 ar 
     2    1    6 ar 
     3   24    1 1  
     4    4    2 ar 
     5    5    2 ar 
     6    2   25 1  
     7    3    4 ar 
     8    6    5 ar 
     9    8    7 2  
    10    8    9 1  
    11   12    8 1  
    12   10    9 1  
    13   11   10 1  
    14   11   12 2  
    15   14   11 1  
    16   12   13 1  
    17   15   14 1  
    18   16   15 ar 
    19   18   15 ar 
    20   17   16 ar 
    21   21   17 ar 
    22   18   19 1  
    23   20   18 ar 
    24   21   20 ar 
    25   22   21 1  
    26   22   23 2  
    27   22   24 am 
    28   25   26 1  
    29    3   27 1  
    30    4   28 1  
    31    5   29 1  
    32    6   30 1  
    33    9   31 1  
    34    9   32 1  
    35   10   33 1  
    36   10   34 1  
    37   13   35 1  
    38   13   36 1  
    39   13   37 1  
    40   14   38 1  
    41   16   39 1  
    42   17   40 1  
    43   20   41 1  
    44   24   42 1  
    45   26   43 1  
    46   26   44 1  
    47   26   45 1  
@<TRIPOS>SUBSTRUCTURE
     1 5MJ         1

