### 
### Created by X-TOOL on Mon Sep 10 21:13:31 2018
### 

@<TRIPOS>MOLECULE
5ulg_ligand
   48    48     1     0     0
SMALL
GAST_HUCK


@<TRIPOS>ATOM
      1 C9        -43.3190  135.9940    7.6370 C.3       1 8E4        -0.0556
      2 C7        -41.0990  137.2240    7.1370 C.3       1 8E4        -0.0111
      3 C5        -39.3800  135.4020    9.8910 C.ar      1 8E4         0.0845
      4 C1        -37.2340  131.9990    8.2780 C.3       1 8E4         0.0232
      5 C15       -37.8090  133.7680   11.4770 C.ar      1 8E4        -0.0690
      6 O2        -40.8470  140.9480    6.6530 O.3       1 8E4        -0.3950
      7 C12       -41.0280  139.5960    6.2350 C.3       1 8E4         0.0445
      8 C11       -40.4420  138.6050    7.2140 C.3       1 8E4        -0.0244
      9 C8        -42.4780  137.2410    7.8290 C.3       1 8E4        -0.0479
     10 C10       -44.7490  136.1460    8.1690 C.3       1 8E4        -0.0653
     11 C6        -40.1100  136.2120    7.6860 C.3       1 8E4         0.0731
     12 O1        -40.1490  136.2530    9.1220 O.3       1 8E4        -0.3195
     13 C4        -38.4700  134.5100    9.3020 C.ar      1 8E4        -0.0298
     14 C13       -39.4950  135.4740   11.2680 C.ar      1 8E4        -0.0401
     15 C14       -38.6990  134.6610   12.0530 C.ar      1 8E4        -0.0771
     16 C3        -37.6970  133.6590   10.1000 C.ar      1 8E4        -0.0235
     17 C2        -36.6910  132.6690    9.5270 C.3       1 8E4         0.0915
     18 O         -35.4960  133.2950    9.0810 O.3       1 8E4        -0.3793
     19 C         -36.3260  130.8700    7.7970 C.3       1 8E4        -0.0312
     20 N         -34.9760  131.2840    7.5060 N.4       1 8E4         0.2187
     21 H1        -42.8351  135.1602    8.1667 H         1 8E4         0.0263
     22 H2        -43.3677  135.7665    6.5619 H         1 8E4         0.0263
     23 H3        -41.2728  136.9780    6.0790 H         1 8E4         0.0327
     24 H4        -37.3197  132.7509    7.4797 H         1 8E4         0.0364
     25 H5        -38.2286  131.5851    8.5003 H         1 8E4         0.0364
     26 H6        -37.1910  133.1452   12.1136 H         1 8E4         0.0465
     27 H7        -41.2300  141.5315    6.0086 H         1 8E4         0.2094
     28 H8        -40.5386  139.4597    5.2594 H         1 8E4         0.0557
     29 H9        -42.1055  139.3986    6.1355 H         1 8E4         0.0557
     30 H10       -39.3687  138.4945    6.9999 H         1 8E4         0.0291
     31 H11       -40.5741  138.9992    8.2324 H         1 8E4         0.0291
     32 H12       -42.3141  137.3767    8.9082 H         1 8E4         0.0269
     33 H13       -43.0451  138.0967    7.4338 H         1 8E4         0.0269
     34 H14       -45.3042  135.2115    8.0002 H         1 8E4         0.0230
     35 H15       -45.2506  136.9708    7.6418 H         1 8E4         0.0230
     36 H16       -44.7181  136.3646    9.2466 H         1 8E4         0.0230
     37 H17       -39.0966  136.4596    7.3372 H         1 8E4         0.0616
     38 H18       -40.3815  135.2044    7.3381 H         1 8E4         0.0616
     39 H19       -38.3655  134.4802    8.2235 H         1 8E4         0.0479
     40 H20       -40.2000  136.1589   11.7251 H         1 8E4         0.0486
     41 H21       -38.7717  134.7226   13.1328 H         1 8E4         0.0572
     42 H22       -36.4595  131.9176   10.2963 H         1 8E4         0.0757
     43 H23       -35.0821  133.7409    9.8106 H         1 8E4         0.2130
     44 H24       -36.7612  130.4428    6.8815 H         1 8E4         0.0815
     45 H25       -36.2895  130.0985    8.5802 H         1 8E4         0.0815
     46 H26       -34.4401  130.4886    7.1959 H         1 8E4         0.1994
     47 H27       -34.5558  131.6686    8.3376 H         1 8E4         0.1994
     48 H28       -34.9881  131.9842    6.7810 H         1 8E4         0.1994
@<TRIPOS>BOND
     1    9    1 1  
     2    1   10 1  
     3    2    8 1  
     4    2    9 1  
     5   11    2 1  
     6    3   12 1  
     7   13    3 ar 
     8    3   14 ar 
     9   17    4 1  
    10    4   19 1  
    11    5   15 ar 
    12   16    5 ar 
    13    7    6 1  
    14    8    7 1  
    15   12   11 1  
    16   16   13 ar 
    17   15   14 ar 
    18   16   17 1  
    19   17   18 1  
    20   19   20 1  
    21    1   21 1  
    22    1   22 1  
    23    2   23 1  
    24    4   24 1  
    25    4   25 1  
    26    5   26 1  
    27    6   27 1  
    28    7   28 1  
    29    7   29 1  
    30    8   30 1  
    31    8   31 1  
    32    9   32 1  
    33    9   33 1  
    34   10   34 1  
    35   10   35 1  
    36   10   36 1  
    37   11   37 1  
    38   11   38 1  
    39   13   39 1  
    40   14   40 1  
    41   15   41 1  
    42   17   42 1  
    43   18   43 1  
    44   19   44 1  
    45   19   45 1  
    46   20   46 1  
    47   20   47 1  
    48   20   48 1  
@<TRIPOS>SUBSTRUCTURE
     1 8E4         1

