### 
### Created by X-TOOL on Mon Sep 10 21:13:30 2018
### 

@<TRIPOS>MOLECULE
5uln_ligand
   33    34     1     0     0
SMALL
GAST_HUCK


@<TRIPOS>ATOM
      1 C16         1.7260    8.9670   82.3180 C.ar      1 8JS        -0.0403
      2 C21         0.9020    8.3100   84.4460 C.ar      1 8JS        -0.0403
      3 C5         -0.3360    3.6880   84.6670 C.ar      1 8JS        -0.0371
      4 C13        -2.5020    4.7220   84.8070 C.ar      1 8JS        -0.0371
      5 C17         2.7770    9.6380   82.9240 C.ar      1 8JS        -0.0406
      6 C20         1.9470    9.0150   85.0380 C.ar      1 8JS        -0.0406
      7 C6         -0.8370    2.6010   85.3810 C.ar      1 8JS        -0.0479
      8 C12        -2.9980    3.6500   85.4910 C.ar      1 8JS        -0.0479
      9 C15         0.7720    8.2900   83.0630 C.ar      1 8JS         0.0694
     10 C4         -1.1980    4.7310   84.3720 C.ar      1 8JS         0.0731
     11 C18         2.9080    9.6780   84.2980 C.ar      1 8JS         0.1168
     12 C7         -2.1740    2.5690   85.7900 C.ar      1 8JS         0.0932
     13 C2         -1.1390    6.5910   82.7740 C.2       1 8JS         0.1882
     14 N10        -2.2430   -0.1120   86.0610 N.am      1 8JS        -0.2625
     15 N14        -0.3000    7.6480   82.3620 N.am      1 8JS        -0.2300
     16 N3         -0.5800    5.7740   83.6570 N.am      1 8JS        -0.2280
     17 O9         -2.2230    1.3840   88.0710 O.2       1 8JS        -0.1523
     18 O11        -4.2560    1.3210   86.6260 O.2       1 8JS        -0.1523
     19 F19         3.9580   10.3640   84.9070 F         1 8JS        -0.1955
     20 S1         -2.6500    6.3740   82.1360 S.2       1 8JS        -0.2821
     21 S8         -2.7980    1.2330   86.7480 S.o2      1 8JS         0.0595
     22 H1          1.6481    8.9716   81.2368 H         1 8JS         0.0504
     23 H2          0.1896    7.7765   85.0648 H         1 8JS         0.0504
     24 H3          0.7006    3.7163   84.3510 H         1 8JS         0.0512
     25 H4         -3.1418    5.5735   84.6051 H         1 8JS         0.0512
     26 H5          3.5114   10.1419   82.3061 H         1 8JS         0.0568
     27 H6          2.0091    9.0449   86.1198 H         1 8JS         0.0568
     28 H7         -0.1829    1.7709   85.6221 H         1 8JS         0.0599
     29 H8         -4.0364    3.6406   85.8021 H         1 8JS         0.0599
     30 H9         -2.4778   -1.0042   86.4469 H         1 8JS         0.1633
     31 H10        -1.6632   -0.0557   85.2481 H         1 8JS         0.1633
     32 H11        -0.4804    8.0016   81.4442 H         1 8JS         0.2351
     33 H12         0.3937    5.9156   83.8354 H         1 8JS         0.2362
@<TRIPOS>BOND
     1    1    5 ar 
     2    9    1 ar 
     3    2    6 ar 
     4    9    2 ar 
     5    3    7 ar 
     6   10    3 ar 
     7    4    8 ar 
     8   10    4 ar 
     9    5   11 ar 
    10    6   11 ar 
    11    7   12 ar 
    12    8   12 ar 
    13   15    9 1  
    14   16   10 1  
    15   11   19 1  
    16   12   21 1  
    17   13   15 am 
    18   13   16 am 
    19   13   20 2  
    20   21   14 am 
    21   21   17 2  
    22   21   18 2  
    23    1   22 1  
    24    2   23 1  
    25    3   24 1  
    26    4   25 1  
    27    5   26 1  
    28    6   27 1  
    29    7   28 1  
    30    8   29 1  
    31   14   30 1  
    32   14   31 1  
    33   15   32 1  
    34   16   33 1  
@<TRIPOS>SUBSTRUCTURE
     1 8JS         1

