### 
### Created by X-TOOL on Mon Sep 10 21:13:31 2018
### 

@<TRIPOS>MOLECULE
5ulp_ligand
   61    64     1     0     0
SMALL
GAST_HUCK


@<TRIPOS>ATOM
      1 N6         -6.4940   -7.5520   30.1300 N.pl3     1 KB1        -0.3152
      2 C6         -6.2530   -6.8570   28.9380 C.ar      1 KB1         0.1298
      3 N1         -6.2710   -7.5360   27.7680 N.ar      1 KB1        -0.2698
      4 C2         -6.0490   -6.8440   26.6110 C.ar      1 KB1         0.0533
      5 N3         -5.7860   -5.5390   26.4640 N.ar      1 KB1        -0.2714
      6 C4         -5.7740   -4.8820   27.6340 C.ar      1 KB1         0.1613
      7 C5         -5.9840   -5.4830   28.9170 C.ar      1 KB1         0.1045
      8 N7         -5.8920   -4.5040   29.9100 N.2       1 KB1        -0.2958
      9 C8         -5.6240   -3.3700   29.2540 C.2       1 KB1         0.1123
     10 N9         -5.5590   -3.5450   27.8670 N.pl3     1 KB1        -0.1919
     11 CBF        -5.2900   -2.5640   26.8490 C.3       1 KB1         0.2011
     12 OAU        -3.9040   -2.2670   26.8500 O.3       1 KB1        -0.3338
     13 CBE        -3.6760   -1.0190   26.2190 C.3       1 KB1         0.1301
     14 CAQ        -2.5050   -0.3000   26.9170 C.3       1 KB1        -0.0010
     15 NBG        -2.0080    0.8980   26.1990 N.4       1 KB1         0.2488
     16 CAO        -1.1190    0.4060   25.0820 C.3       1 KB1        -0.0236
     17 CB         -0.6150    1.5180   24.1450 C.3       1 KB1         0.0425
     18 CA          0.1110    0.9290   22.9570 C.3       1 KB1         0.0332
     19 N           1.4280    0.3870   23.4010 N.4       1 KB1         0.2328
     20 C           0.3550    1.9470   21.8210 C.2       1 KB1         0.0846
     21 O           1.5210    2.1660   21.5000 O.co2     1 KB1        -0.5643
     22 OXT        -0.6680    2.4600   21.2760 O.co2     1 KB1        -0.5643
     23 CAP        -1.2590    1.7920   27.1530 C.3       1 KB1         0.0003
     24 CAY        -2.1660    2.2780   28.2740 C.ar      1 KB1        -0.0024
     25 CAK        -3.1850    3.1880   28.0090 C.ar      1 KB1        -0.0570
     26 CAI        -4.0450    3.6380   29.0090 C.ar      1 KB1        -0.0347
     27 CAW        -3.8910    3.1550   30.3030 C.ar      1 KB1         0.1248
     28 FAG        -4.7090    3.5780   31.2780 F         1 KB1        -0.1893
     29 CAJ        -2.8910    2.2350   30.6080 C.ar      1 KB1        -0.0347
     30 CAL        -2.0490    1.8000   29.5840 C.ar      1 KB1        -0.0570
     31 CBC        -5.0510   -0.2630   26.3700 C.3       1 KB1         0.1174
     32 OAE        -5.6190   -0.0150   25.1010 O.3       1 KB1        -0.3863
     33 CBD        -5.9510   -1.2190   27.1990 C.3       1 KB1         0.1386
     34 OAF        -7.2850   -1.1950   26.7530 O.3       1 KB1        -0.3836
     35 H1         -6.4840   -7.0505   31.0296 H         1 KB1         0.1820
     36 H2         -6.6812   -8.5646   30.1069 H         1 KB1         0.1820
     37 H3         -6.0910   -7.4245   25.6965 H         1 KB1         0.0996
     38 H4         -5.4723   -2.4110   29.7472 H         1 KB1         0.1349
     39 H5         -5.6262   -2.9311   25.8681 H         1 KB1         0.0996
     40 H6         -3.4324   -1.1541   25.1549 H         1 KB1         0.0678
     41 H7         -1.6727   -1.0125   27.0149 H         1 KB1         0.0841
     42 H8         -2.8398    0.0124   27.9171 H         1 KB1         0.0841
     43 H9         -2.7838    1.4111   25.8105 H         1 KB1         0.2048
     44 H10        -1.6874   -0.3200   24.4822 H         1 KB1         0.0818
     45 H11        -0.2456   -0.0914   25.5290 H         1 KB1         0.0818
     46 H12         0.0728    2.1731   24.6997 H         1 KB1         0.0391
     47 H13        -1.4735    2.1058   23.7881 H         1 KB1         0.0391
     48 H14        -0.4996    0.1062   22.5569 H         1 KB1         0.1026
     49 H15         1.9134   -0.0062   22.6099 H         1 KB1         0.2010
     50 H16         1.2800   -0.3295   24.0944 H         1 KB1         0.2010
     51 H17         1.9805    1.1304   23.7986 H         1 KB1         0.2010
     52 H18        -0.8717    2.6615   26.6017 H         1 KB1         0.0972
     53 H19        -0.4195    1.2300   27.5882 H         1 KB1         0.0972
     54 H20        -3.3132    3.5567   26.9977 H         1 KB1         0.0549
     55 H21        -4.8244    4.3559   28.7804 H         1 KB1         0.0587
     56 H22        -2.7694    1.8647   31.6195 H         1 KB1         0.0587
     57 H23        -1.2807    1.0694   29.8101 H         1 KB1         0.0549
     58 H24        -4.9111    0.6902   26.9008 H         1 KB1         0.0649
     59 H25        -6.4458    0.4404   25.2089 H         1 KB1         0.2100
     60 H26        -5.9095   -0.9985   28.2759 H         1 KB1         0.0676
     61 H27        -7.3184   -1.4660   25.8431 H         1 KB1         0.2101
@<TRIPOS>BOND
     1    1    2 1  
     2    2    3 ar 
     3    2    7 ar 
     4    3    4 ar 
     5    4    5 ar 
     6    5    6 ar 
     7    6    7 ar 
     8    6   10 1  
     9    7    8 1  
    10    8    9 2  
    11    9   10 1  
    12   10   11 1  
    13   11   12 1  
    14   11   33 1  
    15   12   13 1  
    16   13   14 1  
    17   13   31 1  
    18   14   15 1  
    19   15   16 1  
    20   15   23 1  
    21   16   17 1  
    22   17   18 1  
    23   18   19 1  
    24   18   20 1  
    25   20   21 ar 
    26   20   22 ar 
    27   23   24 1  
    28   24   25 ar 
    29   24   30 ar 
    30   25   26 ar 
    31   26   27 ar 
    32   27   28 1  
    33   27   29 ar 
    34   29   30 ar 
    35   31   32 1  
    36   31   33 1  
    37   33   34 1  
    38    1   35 1  
    39    1   36 1  
    40    4   37 1  
    41    9   38 1  
    42   11   39 1  
    43   13   40 1  
    44   14   41 1  
    45   14   42 1  
    46   15   43 1  
    47   16   44 1  
    48   16   45 1  
    49   17   46 1  
    50   17   47 1  
    51   18   48 1  
    52   19   49 1  
    53   19   50 1  
    54   19   51 1  
    55   23   52 1  
    56   23   53 1  
    57   25   54 1  
    58   26   55 1  
    59   29   56 1  
    60   30   57 1  
    61   31   58 1  
    62   32   59 1  
    63   33   60 1  
    64   34   61 1  
@<TRIPOS>SUBSTRUCTURE
     1 KB1         1

