### 
### Created by X-TOOL on Wed Jan  1 15:39:37 2020
### 

@<TRIPOS>MOLECULE
5umw_ligand
   47    49     1     0     0
SMALL
GAST_HUCK


@<TRIPOS>ATOM
      1 N1         44.3690    1.7360  115.8890 N.2       1 RBF        -0.2549
      2 C2         44.1060    3.0720  115.8450 C.2       1 RBF         0.2439
      3 O2         43.7350    3.5610  116.9460 O.2       1 RBF        -0.3902
      4 N3         44.2370    3.8040  114.6980 N.am      1 RBF        -0.1938
      5 C4         44.6510    3.1880  113.5680 C.2       1 RBF         0.2704
      6 O4         44.8150    3.8000  112.5060 O.2       1 RBF        -0.3655
      7 C4A        44.9460    1.7290  113.5650 C.2       1 RBF         0.2076
      8 N5         45.3490    1.1270  112.4420 N.2       1 RBF        -0.2387
      9 C5A        45.6260   -0.1800  112.4980 C.ar      1 RBF         0.0856
     10 C6         46.0450   -0.7280  111.3120 C.ar      1 RBF        -0.0403
     11 C7         46.3360   -2.0890  111.2850 C.ar      1 RBF        -0.0428
     12 C7M        46.8580   -2.5350  109.9690 C.3       1 RBF        -0.0352
     13 C8         46.2050   -2.9830  112.4990 C.ar      1 RBF        -0.0416
     14 C8M        46.5140   -4.4730  112.5150 C.3       1 RBF        -0.0312
     15 C9         45.7760   -2.4040  113.6950 C.ar      1 RBF        -0.0258
     16 C9A        45.4780   -1.0310  113.7520 C.ar      1 RBF         0.1048
     17 N10        45.0390   -0.4300  114.9580 N.pl3     1 RBF        -0.2138
     18 C10        44.7850    0.9800  114.8450 C.2       1 RBF         0.1894
     19 C1'        44.9210   -1.2990  116.1920 C.3       1 RBF         0.0886
     20 C2'        44.3960   -0.8360  117.5910 C.3       1 RBF         0.1101
     21 O2'        44.5130    0.5610  117.9050 O.3       1 RBF        -0.3865
     22 C3'        45.1020   -1.5820  118.7510 C.3       1 RBF         0.1114
     23 O3'        45.1360   -2.9960  118.4660 O.3       1 RBF        -0.3865
     24 C4'        44.4360   -1.3370  120.1220 C.3       1 RBF         0.1065
     25 O4'        44.0960    0.0470  120.3940 O.3       1 RBF        -0.3869
     26 C5'        45.3200   -1.8600  121.2590 C.3       1 RBF         0.0727
     27 O5'        44.4630   -2.2880  122.3270 O.3       1 RBF        -0.3924
     28 H1         44.0294    4.7822  114.6948 H         1 RBF         0.2248
     29 H2         46.1465   -0.1185  110.4214 H         1 RBF         0.0564
     30 H3         46.8465   -1.6902  109.2646 H         1 RBF         0.0366
     31 H4         46.2253   -3.3460  109.5793 H         1 RBF         0.0366
     32 H5         47.8891   -2.8992  110.0878 H         1 RBF         0.0366
     33 H6         46.3334   -4.8741  113.5232 H         1 RBF         0.0395
     34 H7         47.5672   -4.6321  112.2404 H         1 RBF         0.0395
     35 H8         45.8647   -4.9899  111.7931 H         1 RBF         0.0395
     36 H9         45.6722   -3.0159  114.5838 H         1 RBF         0.0493
     37 H10        45.9365   -1.6798  116.3758 H         1 RBF         0.0631
     38 H11        44.2648   -2.1314  115.8979 H         1 RBF         0.0631
     39 H12        43.3259   -1.0894  117.6152 H         1 RBF         0.0647
     40 H13        44.0245    1.0695  117.2684 H         1 RBF         0.2100
     41 H14        46.1366   -1.2130  118.8093 H         1 RBF         0.0647
     42 H15        45.5692   -3.4512  119.1785 H         1 RBF         0.2100
     43 H16        43.4977   -1.9110  120.1281 H         1 RBF         0.0643
     44 H17        43.4879    0.3582  119.7338 H         1 RBF         0.2100
     45 H18        45.9855   -1.0589  121.6129 H         1 RBF         0.0584
     46 H19        45.9237   -2.7076  120.9026 H         1 RBF         0.0584
     47 H20        44.9925   -2.6168  123.0440 H         1 RBF         0.2095
@<TRIPOS>BOND
     1    1    2 1  
     2    1   18 2  
     3    2    3 2  
     4    2    4 am 
     5    4    5 am 
     6    5    6 2  
     7    5    7 1  
     8    7    8 2  
     9    7   18 1  
    10    8    9 1  
    11    9   10 ar 
    12    9   16 ar 
    13   10   11 ar 
    14   11   12 1  
    15   11   13 ar 
    16   13   14 1  
    17   13   15 ar 
    18   15   16 ar 
    19   16   17 1  
    20   17   18 1  
    21   17   19 1  
    22   19   20 1  
    23   20   21 1  
    24   20   22 1  
    25   22   23 1  
    26   22   24 1  
    27   24   25 1  
    28   24   26 1  
    29   26   27 1  
    30    4   28 1  
    31   10   29 1  
    32   12   30 1  
    33   12   31 1  
    34   12   32 1  
    35   14   33 1  
    36   14   34 1  
    37   14   35 1  
    38   15   36 1  
    39   19   37 1  
    40   19   38 1  
    41   20   39 1  
    42   21   40 1  
    43   22   41 1  
    44   23   42 1  
    45   24   43 1  
    46   25   44 1  
    47   26   45 1  
    48   26   46 1  
    49   27   47 1  
@<TRIPOS>SUBSTRUCTURE
     1 RBF         1

