### 
### Created by X-TOOL on Wed Jan  1 15:39:35 2020
### 

@<TRIPOS>MOLECULE
5umx_ligand
   47    49     1     0     0
SMALL
GAST_HUCK


@<TRIPOS>ATOM
      1 N1         10.6790   -4.9510    7.9630 N.2       1 RBF        -0.2549
      2 C2         11.4450   -4.7540    9.0740 C.2       1 RBF         0.2439
      3 O2         12.2520   -5.6610    9.4410 O.2       1 RBF        -0.3902
      4 N3         11.3640   -3.6240    9.8130 N.am      1 RBF        -0.1938
      5 C4         10.5230   -2.6220    9.5090 C.2       1 RBF         0.2704
      6 O4         10.4640   -1.5940   10.2330 O.2       1 RBF        -0.3655
      7 C4A         9.6630   -2.7580    8.2970 C.2       1 RBF         0.2076
      8 N5          8.7980   -1.7770    7.9400 N.2       1 RBF        -0.2387
      9 C5A         8.0300   -1.9550    6.8340 C.ar      1 RBF         0.0856
     10 C6          7.1670   -0.9250    6.4970 C.ar      1 RBF        -0.0403
     11 C7          6.3580   -1.0280    5.3790 C.ar      1 RBF        -0.0428
     12 C7M         5.4090    0.0990    5.0330 C.3       1 RBF        -0.0352
     13 C8          6.4130   -2.2690    4.5650 C.ar      1 RBF        -0.0416
     14 C8M         5.5210   -2.4180    3.3680 C.3       1 RBF        -0.0312
     15 C9          7.2710   -3.3060    4.8960 C.ar      1 RBF        -0.0258
     16 C9A         8.1050   -3.2130    6.0120 C.ar      1 RBF         0.1048
     17 N10         8.9940   -4.2620    6.3820 N.pl3     1 RBF        -0.2138
     18 C10         9.7810   -4.0330    7.5330 C.2       1 RBF         0.1894
     19 C1'         9.1180   -5.5580    5.6380 C.3       1 RBF         0.0886
     20 C2'         9.7570   -5.5210    4.2330 C.3       1 RBF         0.1101
     21 O2'         8.7670   -5.2450    3.2450 O.3       1 RBF        -0.3865
     22 C3'        10.3680   -6.8050    3.6800 C.3       1 RBF         0.1114
     23 O3'        10.8510   -7.6380    4.7400 O.3       1 RBF        -0.3865
     24 C4'        11.4730   -6.4720    2.6440 C.3       1 RBF         0.1065
     25 O4'        11.0650   -5.4270    1.7290 O.3       1 RBF        -0.3869
     26 C5'        11.9250   -7.6900    1.8270 C.3       1 RBF         0.0727
     27 O5'        13.1540   -8.2290    2.3350 O.3       1 RBF        -0.3924
     28 H1         11.9526   -3.5312   10.6161 H         1 RBF         0.2248
     29 H2          7.1252   -0.0336    7.1124 H         1 RBF         0.0564
     30 H3          5.5302    0.9163    5.7591 H         1 RBF         0.0366
     31 H4          4.3734   -0.2704    5.0662 H         1 RBF         0.0366
     32 H5          5.6336    0.4703    4.0222 H         1 RBF         0.0366
     33 H6          5.7017   -3.3947    2.8954 H         1 RBF         0.0395
     34 H7          5.7379   -1.6161    2.6470 H         1 RBF         0.0395
     35 H8          4.4694   -2.3525    3.6839 H         1 RBF         0.0395
     36 H9          7.2948   -4.1989    4.2818 H         1 RBF         0.0493
     37 H10         8.1047   -5.9714    5.5271 H         1 RBF         0.0631
     38 H11         9.7247   -6.2354    6.2570 H         1 RBF         0.0631
     39 H12        10.5256   -4.7342    4.2445 H         1 RBF         0.0647
     40 H13         9.1743   -5.2254    2.3870 H         1 RBF         0.2100
     41 H14         9.5755   -7.3598    3.1565 H         1 RBF         0.0647
     42 H15        11.5155   -7.1697    5.2316 H         1 RBF         0.2100
     43 H16        12.3436   -6.1066    3.2084 H         1 RBF         0.0643
     44 H17        10.8704   -4.6367    2.2190 H         1 RBF         0.2100
     45 H18        12.0725   -7.3853    0.7804 H         1 RBF         0.0584
     46 H19        11.1458   -8.4648    1.8770 H         1 RBF         0.0584
     47 H20        13.4094   -8.9798    1.8118 H         1 RBF         0.2095
@<TRIPOS>BOND
     1    1    2 1  
     2    1   18 2  
     3    2    3 2  
     4    2    4 am 
     5    4    5 am 
     6    5    6 2  
     7    5    7 1  
     8    7    8 2  
     9    7   18 1  
    10    8    9 1  
    11    9   10 ar 
    12    9   16 ar 
    13   10   11 ar 
    14   11   12 1  
    15   11   13 ar 
    16   13   14 1  
    17   13   15 ar 
    18   15   16 ar 
    19   16   17 1  
    20   17   18 1  
    21   17   19 1  
    22   19   20 1  
    23   20   21 1  
    24   20   22 1  
    25   22   23 1  
    26   22   24 1  
    27   24   25 1  
    28   24   26 1  
    29   26   27 1  
    30    4   28 1  
    31   10   29 1  
    32   12   30 1  
    33   12   31 1  
    34   12   32 1  
    35   14   33 1  
    36   14   34 1  
    37   14   35 1  
    38   15   36 1  
    39   19   37 1  
    40   19   38 1  
    41   20   39 1  
    42   21   40 1  
    43   22   41 1  
    44   23   42 1  
    45   24   43 1  
    46   25   44 1  
    47   26   45 1  
    48   26   46 1  
    49   27   47 1  
@<TRIPOS>SUBSTRUCTURE
     1 RBF         1

