### 
### Created by X-TOOL on Wed Jan  1 15:39:36 2020
### 

@<TRIPOS>MOLECULE
5umy_ligand
   59    64     1     0     0
SMALL
GAST_HUCK


@<TRIPOS>ATOM
      1 CAB         0.1390    7.7020  -12.9060 C.3       1 TNN        -0.0369
      2 CBF         0.6560    6.5250  -13.7700 C.3       1 TNN         0.0778
      3 OAG         0.6240    5.3020  -12.9550 O.3       1 TNN        -0.3899
      4 CBJ        -0.0630    6.3040  -15.0710 C.3       1 TNN         0.1196
      5 OAT         0.5280    6.8740  -16.1390 O.3       1 TNN        -0.4060
      6 CBI         0.2560    5.5120  -16.3350 C.3       1 TNN         0.1165
      7 CAY        -0.8060    5.1210  -17.2650 C.ar      1 TNN         0.0015
      8 CAQ        -0.5750    4.1730  -18.2790 C.ar      1 TNN        -0.0124
      9 CAU        -1.5910    3.7940  -19.1460 C.ar      1 TNN         0.1260
     10 OAE        -1.3540    2.8810  -20.1230 O.3       1 TNN        -0.3271
     11 CBC        -2.8740    4.3230  -19.0630 C.ar      1 TNN         0.0986
     12 CAZ        -3.8800    3.9030  -19.9650 C.2       1 TNN         0.1699
     13 OAC        -3.6280    3.0700  -20.8270 O.2       1 TNN        -0.3609
     14 CBB        -5.1760    4.4290  -19.8590 C.ar      1 TNN         0.0341
     15 CAP        -6.2040    4.0200  -20.7500 C.ar      1 TNN        -0.0575
     16 CAO        -7.5100    4.5570  -20.6460 C.ar      1 TNN        -0.0300
     17 CAW        -7.7830    5.4960  -19.6250 C.ar      1 TNN         0.1317
     18 OAS        -8.9710    6.1380  -19.3890 O.3       1 TNN        -0.3197
     19 CAA       -10.2340    5.6280  -19.8860 C.3       1 TNN         0.0584
     20 CAV        -6.7620    5.8870  -18.7450 C.ar      1 TNN         0.1424
     21 OAF        -7.0700    6.8480  -17.7960 O.3       1 TNN        -0.3296
     22 CBD        -5.4540    5.3740  -18.8340 C.ar      1 TNN         0.0702
     23 CBA        -4.4500    5.8100  -17.9530 C.2       1 TNN         0.1570
     24 OAD        -4.7200    6.6640  -17.0930 O.2       1 TNN        -0.3766
     25 CBE        -3.1470    5.2750  -18.0480 C.ar      1 TNN         0.0947
     26 CAX        -2.1120    5.6590  -17.1600 C.ar      1 TNN         0.0921
     27 NAR        -2.3470    6.5920  -16.1420 N.pl3     1 TNN        -0.2809
     28 CBH        -1.6400    6.4670  -14.8380 C.3       1 TNN         0.0978
     29 CAL        -2.1790    5.3400  -14.1500 C.2       1 TNN        -0.0505
     30 CAJ        -2.3380    4.3880  -13.7500 C.2       1 TNN        -0.0785
     31 CAN        -2.4220    3.0020  -13.2740 C.2       1 TNN        -0.0880
     32 CAM        -1.4680    2.1080  -13.6670 C.2       1 TNN        -0.0881
     33 CAI        -0.4180    2.7090  -14.5000 C.2       1 TNN        -0.0794
     34 CAK         0.3240    3.2920  -15.1260 C.2       1 TNN        -0.0586
     35 CBG         1.1910    4.3090  -15.9030 C.3       1 TNN         0.0862
     36 OAH         1.9190    3.7850  -16.9430 O.3       1 TNN        -0.3857
     37 H1          0.1556    8.6277  -13.4999 H         1 TNN         0.0255
     38 H2          0.7852    7.8208  -12.0238 H         1 TNN         0.0255
     39 H3         -0.8909    7.4934  -12.5808 H         1 TNN         0.0255
     40 H4          1.7045    6.7437  -14.0207 H         1 TNN         0.0612
     41 H5          1.1803    5.4157  -12.1934 H         1 TNN         0.2099
     42 H6          0.4098    3.7326  -18.3846 H         1 TNN         0.0719
     43 H7         -2.1502    2.7380  -20.6211 H         1 TNN         0.2483
     44 H8         -5.9859    3.2878  -21.5190 H         1 TNN         0.0568
     45 H9         -8.2875    4.2532  -21.3376 H         1 TNN         0.0558
     46 H10       -11.0478    6.3010  -19.5781 H         1 TNN         0.0576
     47 H11       -10.4122    4.6242  -19.4729 H         1 TNN         0.0576
     48 H12       -10.2002    5.5720  -20.9840 H         1 TNN         0.0576
     49 H13        -6.3021    7.0252  -17.2656 H         1 TNN         0.2476
     50 H14        -3.0097    7.3654  -16.2959 H         1 TNN         0.1971
     51 H15        -1.8163    7.3732  -14.2400 H         1 TNN         0.0790
     52 H16        -3.0737    5.8194  -13.7555 H         1 TNN         0.0704
     53 H17        -3.2267    4.6972  -13.2018 H         1 TNN         0.0432
     54 H18        -3.2332    2.6915  -12.6172 H         1 TNN         0.0486
     55 H19        -1.4839    1.0548  -13.3906 H         1 TNN         0.0486
     56 H20         0.1132    1.7669  -14.6274 H         1 TNN         0.0431
     57 H21         0.8996    2.4197  -15.4320 H         1 TNN         0.0695
     58 H22         1.9291    4.7083  -15.1919 H         1 TNN         0.0690
     59 H23         2.5126    3.1221  -16.6102 H         1 TNN         0.2126
@<TRIPOS>BOND
     1    1    2 1  
     2    2    3 1  
     3    2    4 1  
     4    4    5 1  
     5    4    6 1  
     6    4   28 1  
     7    5    6 1  
     8    6    7 1  
     9    6   35 1  
    10    7    8 ar 
    11    7   26 ar 
    12    8    9 ar 
    13    9   10 1  
    14    9   11 ar 
    15   11   12 1  
    16   11   25 ar 
    17   12   13 2  
    18   12   14 1  
    19   14   15 ar 
    20   14   22 ar 
    21   15   16 ar 
    22   16   17 ar 
    23   17   18 1  
    24   17   20 ar 
    25   18   19 1  
    26   20   21 1  
    27   20   22 ar 
    28   22   23 1  
    29   23   24 2  
    30   23   25 1  
    31   25   26 ar 
    32   26   27 1  
    33   27   28 1  
    34   28   29 1  
    35   29   30 2  
    36   30   31 1  
    37   31   32 2  
    38   32   33 1  
    39   33   34 2  
    40   34   35 1  
    41   35   36 1  
    42    1   37 1  
    43    1   38 1  
    44    1   39 1  
    45    2   40 1  
    46    3   41 1  
    47    8   42 1  
    48   10   43 1  
    49   15   44 1  
    50   16   45 1  
    51   19   46 1  
    52   19   47 1  
    53   19   48 1  
    54   21   49 1  
    55   27   50 1  
    56   28   51 1  
    57   29   52 1  
    58   30   53 1  
    59   31   54 1  
    60   32   55 1  
    61   33   56 1  
    62   34   57 1  
    63   35   58 1  
    64   36   59 1  
@<TRIPOS>SUBSTRUCTURE
     1 TNN         1

