### 
### Created by X-TOOL on Wed Jan  1 15:39:38 2020
### 

@<TRIPOS>MOLECULE
5un1_ligand
   33    36     1     0     0
SMALL
GAST_HUCK


@<TRIPOS>ATOM
      1 C7        -50.8820  -15.8260  -10.4180 C.3       1 BMK        -0.0579
      2 C         -51.0180  -15.9060   -8.9030 C.3       1 BMK        -0.0184
      3 C5        -50.1950  -14.9220   -8.1570 C.ar      1 BMK        -0.0248
      4 C10       -49.0720  -14.3170   -8.7020 C.ar      1 BMK        -0.0523
      5 C14       -48.3500  -13.4120   -7.9340 C.ar      1 BMK        -0.0467
      6 C15       -48.7350  -13.1090   -6.6300 C.ar      1 BMK        -0.0472
      7 C11       -49.8520  -13.6990   -6.0440 C.ar      1 BMK        -0.0367
      8 C6        -50.6110  -14.6130   -6.7630 C.ar      1 BMK        -0.0158
      9 C4        -51.8370  -15.2640   -6.1310 C.3       1 BMK         0.0494
     10 C1        -52.4930  -16.2680   -7.0710 C.3       1 BMK         0.0281
     11 N         -52.3640  -15.7120   -8.4050 N.4       1 BMK         0.1777
     12 C3        -51.6090  -17.4380   -7.2050 C.ar      1 BMK         0.0264
     13 C9        -51.5570  -18.6000   -6.4610 C.ar      1 BMK        -0.0314
     14 C13       -50.5950  -19.5360   -6.8430 C.ar      1 BMK        -0.0470
     15 C12       -49.7210  -19.3340   -7.9200 C.ar      1 BMK        -0.0467
     16 C8        -49.7560  -18.1730   -8.6880 C.ar      1 BMK        -0.0521
     17 C2        -50.7070  -17.2360   -8.3290 C.ar      1 BMK        -0.0196
     18 H1        -51.5240  -16.5877  -10.8845 H         1 BMK         0.0128
     19 H2        -49.8346  -16.0053  -10.7021 H         1 BMK         0.0128
     20 H3        -51.1893  -14.8272  -10.7615 H         1 BMK         0.0128
     21 H4        -48.7616  -14.5475   -9.7147 H         1 BMK         0.0762
     22 H5        -47.4733  -12.9342   -8.3561 H         1 BMK         0.0626
     23 H6        -48.1512  -12.3970   -6.0578 H         1 BMK         0.0778
     24 H7        -50.1289  -13.4450   -5.0272 H         1 BMK         0.0617
     25 H8        -52.5674  -14.4803   -5.8814 H         1 BMK         0.0573
     26 H9        -51.5297  -15.7849   -5.2122 H         1 BMK         0.0573
     27 H10       -53.5231  -16.5165   -6.7760 H         1 BMK         0.1112
     28 H11       -53.0159  -16.1717   -9.0212 H         1 BMK         0.1970
     29 H12       -52.5684  -14.7254   -8.3751 H         1 BMK         0.1970
     30 H13       -52.2263  -18.7755   -5.6265 H         1 BMK         0.0619
     31 H14       -50.5204  -20.4604   -6.2818 H         1 BMK         0.0778
     32 H15       -48.9970  -20.1037   -8.1620 H         1 BMK         0.0626
     33 H16       -49.0776  -18.0133   -9.5183 H         1 BMK         0.0762
@<TRIPOS>BOND
     1    1    2 1  
     2    2    3 1  
     3    2   11 1  
     4    2   17 1  
     5    3    4 ar 
     6    3    8 ar 
     7    4    5 ar 
     8    5    6 ar 
     9    6    7 ar 
    10    7    8 ar 
    11    8    9 1  
    12    9   10 1  
    13   10   11 1  
    14   10   12 1  
    15   12   13 ar 
    16   12   17 ar 
    17   13   14 ar 
    18   14   15 ar 
    19   15   16 ar 
    20   16   17 ar 
    21    1   18 1  
    22    1   19 1  
    23    1   20 1  
    24    4   21 1  
    25    5   22 1  
    26    6   23 1  
    27    7   24 1  
    28    9   25 1  
    29    9   26 1  
    30   10   27 1  
    31   11   28 1  
    32   11   29 1  
    33   13   30 1  
    34   14   31 1  
    35   15   32 1  
    36   16   33 1  
@<TRIPOS>SUBSTRUCTURE
     1 BMK         1

