### 
### Created by X-TOOL on Mon Sep 10 21:13:34 2018
### 

@<TRIPOS>MOLECULE
5unf_ligand
   77    83     1     0     0
SMALL
GAST_HUCK


@<TRIPOS>ATOM
      1 N1         77.2430   -2.6060   37.2950 N.pl3     1 8ES        -0.2272
      2 N3         82.5880   -2.2980   32.9460 N.2       1 8ES        -0.0518
      3 C4         74.1450   -3.7880   38.0500 C.3       1 8ES        -0.0455
      4 C5         78.5510   -2.5380   37.7490 C.3       1 8ES         0.1779
      5 C6         76.6060   -1.4080   36.7470 C.3       1 8ES         0.0767
      6 C7         77.2570   -0.9830   35.4180 C.ar      1 8ES        -0.0181
      7 C8         77.2750    0.3010   35.1150 C.ar      1 8ES        -0.0568
      8 C10        78.4570   -0.0760   32.9620 C.ar      1 8ES        -0.0235
      9 C13        81.3150   -0.6540   32.2170 C.2       1 8ES         0.1484
     10 C15        80.2280    1.5970   29.3620 C.ar      1 8ES        -0.0621
     11 C17        78.3370    1.3070   30.8420 C.ar      1 8ES        -0.0551
     12 C20        79.0780   -6.1590   38.6670 C.ar      1 8ES        -0.0764
     13 C21        80.4220   -6.1240   39.0850 C.ar      1 8ES        -0.0541
     14 C22        81.1680   -4.9180   39.0740 C.ar      1 8ES         0.0575
     15 C24        83.6450   -5.2320   38.6010 C.2       1 8ES         0.2374
     16 C26        82.5040   -5.1380   36.2100 C.2       1 8ES        -0.0546
     17 C28        83.6050   -6.8320   34.8570 C.2       1 8ES         0.0010
     18 O1         84.7650   -5.1680   38.9850 O.2       1 8ES        -0.3802
     19 C25        83.4270   -5.6970   37.1550 C.2       1 8ES         0.1058
     20 S          84.3620   -6.9170   36.3960 S.3       1 8ES        -0.0255
     21 C27        82.5950   -5.8170   34.8530 C.2       1 8ES        -0.0665
     22 N6         82.5530   -4.8670   39.5050 N.am      1 8ES        -0.2144
     23 C29        82.8430   -4.4170   40.8630 C.3       1 8ES         0.0870
     24 C30        82.3160   -5.4530   41.8540 C.ar      1 8ES        -0.0156
     25 C35        82.9850   -6.8270   41.9300 C.ar      1 8ES        -0.0579
     26 C34        82.5360   -7.7330   42.7790 C.ar      1 8ES        -0.0685
     27 C33        81.3310   -7.4180   43.6730 C.ar      1 8ES        -0.0687
     28 C32        80.7520   -6.2340   43.6030 C.ar      1 8ES        -0.0685
     29 C31        81.2730   -5.1810   42.6160 C.ar      1 8ES        -0.0579
     30 C1         78.4800   -4.9870   38.2300 C.ar      1 8ES        -0.0148
     31 C23        80.5290   -3.7530   38.6350 C.ar      1 8ES        -0.0411
     32 C          79.2220   -3.7810   38.2200 C.ar      1 8ES         0.0029
     33 O          79.2860   -1.3390   37.7190 O.3       1 8ES        -0.3576
     34 C2         76.5570   -3.8700   37.3500 C.2       1 8ES         0.1094
     35 C3         75.1020   -4.0090   36.8810 C.3       1 8ES         0.0280
     36 N          77.1470   -5.0220   37.7840 N.2       1 8ES        -0.3309
     37 C19        77.8780   -1.9980   34.4340 C.ar      1 8ES        -0.0568
     38 C18        78.4250   -1.5800   33.2960 C.ar      1 8ES        -0.0599
     39 C9         77.9240    0.7800   33.8170 C.ar      1 8ES        -0.0599
     40 C11        79.0940    0.4740   31.6720 C.ar      1 8ES        -0.0123
     41 C16        78.9000    1.8620   29.6940 C.ar      1 8ES        -0.0623
     42 C14        80.9930    0.7860   30.1900 C.ar      1 8ES        -0.0525
     43 C12        80.4400    0.2450   31.3510 C.ar      1 8ES         0.0155
     44 N5         81.6110   -0.4780   33.5920 N.2       1 8ES        -0.1441
     45 N4         82.4010   -1.4920   34.0340 N.pl3     1 8ES        -0.1038
     46 N2         81.9160   -1.7870   31.8230 N.2       1 8ES        -0.1756
     47 H1         73.1076   -3.8906   37.6990 H         1 8ES         0.0264
     48 H2         74.2949   -2.7787   38.4608 H         1 8ES         0.0264
     49 H3         74.3430   -4.5355   38.8323 H         1 8ES         0.0264
     50 H4         78.1994   -2.3132   38.7667 H         1 8ES         0.1039
     51 H5         76.7044   -0.5869   37.4723 H         1 8ES         0.0708
     52 H6         75.5403   -1.6174   36.5725 H         1 8ES         0.0708
     53 H7         76.8268    1.0204   35.7907 H         1 8ES         0.0561
     54 H8         80.6606    2.0214   28.4632 H         1 8ES         0.0610
     55 H9         77.3048    1.5226   31.0933 H         1 8ES         0.0614
     56 H10        78.5195   -7.0878   38.6865 H         1 8ES         0.0496
     57 H11        80.8966   -7.0383   39.4224 H         1 8ES         0.0434
     58 H12        81.8186   -4.3230   36.4379 H         1 8ES         0.0515
     59 H13        83.8574   -7.4610   34.0046 H         1 8ES         0.0801
     60 H14        81.9754   -5.5654   33.9935 H         1 8ES         0.0437
     61 H15        82.3509   -3.4500   41.0440 H         1 8ES         0.0748
     62 H16        83.9299   -4.3048   40.9901 H         1 8ES         0.0748
     63 H17        83.8271   -7.0564   41.2872 H         1 8ES         0.0557
     64 H18        83.0200   -8.7008   42.8440 H         1 8ES         0.0599
     65 H19        80.9552   -8.1664   44.3613 H         1 8ES         0.0559
     66 H20        79.9077   -6.0053   44.2433 H         1 8ES         0.0599
     67 H21        80.7854   -4.2155   42.5446 H         1 8ES         0.0557
     68 H22        81.0741   -2.8161   38.6228 H         1 8ES         0.0425
     69 H23        80.1553   -1.4929   38.0697 H         1 8ES         0.2153
     70 H24        74.8996   -3.2614   36.1000 H         1 8ES         0.0555
     71 H25        74.9476   -5.0182   36.4714 H         1 8ES         0.0555
     72 H26        77.8681   -3.0556   34.6717 H         1 8ES         0.0561
     73 H27        78.8486   -2.2978   32.6030 H         1 8ES         0.0609
     74 H28        77.9477    1.8404   33.5934 H         1 8ES         0.0609
     75 H29        78.3023    2.5029   29.0560 H         1 8ES         0.0614
     76 H30        82.0242    0.5724   29.9331 H         1 8ES         0.0621
     77 H31        82.7774   -1.6244   34.9836 H         1 8ES         0.2945
@<TRIPOS>BOND
     1    1    4 1  
     2    5    1 1  
     3    1   34 1  
     4    2   45 1  
     5   46    2 2  
     6   35    3 1  
     7    4   32 1  
     8    4   33 1  
     9    6    5 1  
    10    7    6 ar 
    11   37    6 ar 
    12   39    7 ar 
    13    8   38 ar 
    14    8   39 ar 
    15   40    8 1  
    16   43    9 1  
    17    9   44 2  
    18    9   46 1  
    19   41   10 ar 
    20   10   42 ar 
    21   40   11 ar 
    22   11   41 ar 
    23   12   13 ar 
    24   30   12 ar 
    25   14   13 ar 
    26   14   22 1  
    27   31   14 ar 
    28   15   18 2  
    29   15   19 1  
    30   22   15 am 
    31   19   16 2  
    32   16   21 1  
    33   20   17 1  
    34   17   21 2  
    35   19   20 1  
    36   22   23 1  
    37   23   24 1  
    38   24   25 ar 
    39   24   29 ar 
    40   25   26 ar 
    41   26   27 ar 
    42   28   27 ar 
    43   29   28 ar 
    44   32   30 ar 
    45   36   30 1  
    46   32   31 ar 
    47   34   35 1  
    48   34   36 2  
    49   38   37 ar 
    50   40   43 ar 
    51   42   43 ar 
    52   44   45 1  
    53    3   47 1  
    54    3   48 1  
    55    3   49 1  
    56    4   50 1  
    57    5   51 1  
    58    5   52 1  
    59    7   53 1  
    60   10   54 1  
    61   11   55 1  
    62   12   56 1  
    63   13   57 1  
    64   16   58 1  
    65   17   59 1  
    66   21   60 1  
    67   23   61 1  
    68   23   62 1  
    69   25   63 1  
    70   26   64 1  
    71   27   65 1  
    72   28   66 1  
    73   29   67 1  
    74   31   68 1  
    75   33   69 1  
    76   35   70 1  
    77   35   71 1  
    78   37   72 1  
    79   38   73 1  
    80   39   74 1  
    81   41   75 1  
    82   42   76 1  
    83   45   77 1  
@<TRIPOS>SUBSTRUCTURE
     1 8ES         1

