### 
### Created by X-TOOL on Mon Sep 10 21:13:34 2018
### 

@<TRIPOS>MOLECULE
5ung_ligand
   77    83     1     0     0
SMALL
GAST_HUCK


@<TRIPOS>ATOM
      1 N1          9.2140    6.6990  -18.1800 N.pl3     1 8ES        -0.2272
      2 N3         12.6700   10.4010  -13.5720 N.2       1 8ES        -0.0518
      3 C4          7.2620    4.0170  -19.0370 C.3       1 8ES        -0.0455
      4 C5          9.2710    8.0880  -18.1700 C.3       1 8ES         0.1779
      5 C6         10.3760    5.9200  -18.6090 C.3       1 8ES         0.0767
      6 C7         11.5270    6.0620  -17.6080 C.ar      1 8ES        -0.0181
      7 C8         12.7600    6.1090  -18.0760 C.ar      1 8ES        -0.0568
      8 C10        13.7360    6.3330  -15.8080 C.ar      1 8ES        -0.0235
      9 C13        14.1220    8.8320  -14.1540 C.2       1 8ES         0.1484
     10 C15        17.2060    6.7940  -13.2530 C.ar      1 8ES        -0.0621
     11 C17        15.9130    5.5000  -14.8270 C.ar      1 8ES        -0.0551
     12 C20         5.8320    8.8310  -16.8070 C.ar      1 8ES        -0.0764
     13 C21         5.8610   10.2390  -16.7610 C.ar      1 8ES        -0.0541
     14 C22         6.9960   10.9700  -17.1950 C.ar      1 8ES         0.0575
     15 C24         7.3600   13.1100  -15.8640 C.2       1 8ES         0.2374
     16 C26         8.4140   11.1430  -14.4120 C.2       1 8ES        -0.0546
     17 C28         7.9410   11.6950  -12.0930 C.2       1 8ES         0.0010
     18 O1          7.3730   14.2970  -15.8290 O.2       1 8ES        -0.3802
     19 C25         7.6840   12.3730  -14.5550 C.2       1 8ES         0.1058
     20 S           7.2620   12.9810  -13.0070 S.3       1 8ES        -0.0255
     21 C27         8.5540   10.7310  -12.9560 C.2       1 8ES        -0.0665
     22 N6          7.0260   12.4240  -17.1180 N.am      1 8ES        -0.2144
     23 C29         6.7290   13.1930  -18.3250 C.3       1 8ES         0.0870
     24 C30         5.2520   13.0490  -18.6970 C.ar      1 8ES        -0.0156
     25 C35         4.1660   13.4720  -17.6980 C.ar      1 8ES        -0.0579
     26 C34         2.8890   13.3450  -18.0230 C.ar      1 8ES        -0.0685
     27 C33         2.4950   12.7670  -19.3900 C.ar      1 8ES        -0.0687
     28 C32         3.4320   12.4020  -20.2520 C.ar      1 8ES        -0.0685
     29 C31         4.9140   12.5480  -19.8760 C.ar      1 8ES        -0.0579
     30 C1          6.9490    8.1490  -17.2640 C.ar      1 8ES        -0.0148
     31 C23         8.1090   10.2470  -17.6500 C.ar      1 8ES        -0.0411
     32 C           8.0970    8.8700  -17.6760 C.ar      1 8ES         0.0029
     33 O          10.4200    8.7840  -18.5860 O.3       1 8ES        -0.3576
     34 C2          8.0080    6.0550  -17.7500 C.2       1 8ES         0.1094
     35 C3          7.8770    4.5250  -17.7340 C.3       1 8ES         0.0280
     36 N           6.9190    6.7430  -17.3000 N.2       1 8ES        -0.3309
     37 C19        11.2790    6.1490  -16.0900 C.ar      1 8ES        -0.0568
     38 C18        12.3020    6.2700  -15.2560 C.ar      1 8ES        -0.0599
     39 C9         13.9390    6.2610  -17.1140 C.ar      1 8ES        -0.0599
     40 C11        14.9450    6.5080  -14.8790 C.ar      1 8ES        -0.0123
     41 C16        17.0330    5.6380  -14.0100 C.ar      1 8ES        -0.0623
     42 C14        16.2570    7.8130  -13.3120 C.ar      1 8ES        -0.0525
     43 C12        15.1340    7.6820  -14.1300 C.ar      1 8ES         0.0155
     44 N5         13.6110    9.4980  -15.3010 N.2       1 8ES        -0.1441
     45 N4         12.7190   10.4650  -14.9390 N.pl3     1 8ES        -0.1038
     46 N2         13.5330    9.3980  -13.0830 N.2       1 8ES        -0.1756
     47 H1          7.1791    2.9207  -19.0004 H         1 8ES         0.0264
     48 H2          7.9023    4.3082  -19.8827 H         1 8ES         0.0264
     49 H3          6.2618    4.4562  -19.1661 H         1 8ES         0.0264
     50 H4          8.8758    8.1147  -19.1962 H         1 8ES         0.1039
     51 H5         10.7082    6.2806  -19.5937 H         1 8ES         0.0708
     52 H6         10.0918    4.8600  -18.6834 H         1 8ES         0.0708
     53 H7         12.9372    6.0398  -19.1432 H         1 8ES         0.0561
     54 H8         18.0782    6.9012  -12.6183 H         1 8ES         0.0610
     55 H9         15.7910    4.6051  -15.4265 H         1 8ES         0.0614
     56 H10         4.9487    8.2888  -16.4895 H         1 8ES         0.0496
     57 H11         4.9968   10.7751  -16.3857 H         1 8ES         0.0434
     58 H12         8.8186   10.5740  -15.2477 H         1 8ES         0.0515
     59 H13         7.9096   11.6228  -11.0068 H         1 8ES         0.0801
     60 H14         9.0531    9.8251  -12.6151 H         1 8ES         0.0437
     61 H15         7.3497   12.8215  -19.1537 H         1 8ES         0.0748
     62 H16         6.9557   14.2541  -18.1441 H         1 8ES         0.0748
     63 H17         4.4437   13.8732  -16.7300 H         1 8ES         0.0557
     64 H18         2.1198   13.6497  -17.3226 H         1 8ES         0.0599
     65 H19         1.4483   12.6575  -19.6499 H         1 8ES         0.0559
     66 H20         3.1537   12.0014  -21.2201 H         1 8ES         0.0599
     67 H21         5.6834   12.2411  -20.5753 H         1 8ES         0.0557
     68 H22         8.9912   10.7799  -17.9860 H         1 8ES         0.0425
     69 H23        10.2684    9.7186  -18.5079 H         1 8ES         0.2153
     70 H24         8.8749    4.0794  -17.6089 H         1 8ES         0.0555
     71 H25         7.2344    4.2274  -16.8923 H         1 8ES         0.0555
     72 H26        10.2669    6.1112  -15.7036 H         1 8ES         0.0561
     73 H27        12.1283    6.3244  -14.1874 H         1 8ES         0.0609
     74 H28        14.9489    6.3102  -17.5047 H         1 8ES         0.0609
     75 H29        17.7704    4.8448  -13.9635 H         1 8ES         0.0614
     76 H30        16.3918    8.7110  -12.7200 H         1 8ES         0.0621
     77 H31        12.1975   11.1025  -15.5575 H         1 8ES         0.2945
@<TRIPOS>BOND
     1    1    4 1  
     2    5    1 1  
     3    1   34 1  
     4    2   45 1  
     5   46    2 2  
     6   35    3 1  
     7    4   32 1  
     8    4   33 1  
     9    6    5 1  
    10    7    6 ar 
    11   37    6 ar 
    12   39    7 ar 
    13    8   38 ar 
    14    8   39 ar 
    15   40    8 1  
    16   43    9 1  
    17    9   44 2  
    18    9   46 1  
    19   41   10 ar 
    20   10   42 ar 
    21   40   11 ar 
    22   11   41 ar 
    23   12   13 ar 
    24   30   12 ar 
    25   14   13 ar 
    26   14   22 1  
    27   31   14 ar 
    28   15   18 2  
    29   15   19 1  
    30   22   15 am 
    31   19   16 2  
    32   16   21 1  
    33   20   17 1  
    34   17   21 2  
    35   19   20 1  
    36   22   23 1  
    37   23   24 1  
    38   24   25 ar 
    39   24   29 ar 
    40   25   26 ar 
    41   26   27 ar 
    42   28   27 ar 
    43   29   28 ar 
    44   32   30 ar 
    45   36   30 1  
    46   32   31 ar 
    47   34   35 1  
    48   34   36 2  
    49   38   37 ar 
    50   40   43 ar 
    51   42   43 ar 
    52   44   45 1  
    53    3   47 1  
    54    3   48 1  
    55    3   49 1  
    56    4   50 1  
    57    5   51 1  
    58    5   52 1  
    59    7   53 1  
    60   10   54 1  
    61   11   55 1  
    62   12   56 1  
    63   13   57 1  
    64   16   58 1  
    65   17   59 1  
    66   21   60 1  
    67   23   61 1  
    68   23   62 1  
    69   25   63 1  
    70   26   64 1  
    71   27   65 1  
    72   28   66 1  
    73   29   67 1  
    74   31   68 1  
    75   33   69 1  
    76   35   70 1  
    77   35   71 1  
    78   37   72 1  
    79   38   73 1  
    80   39   74 1  
    81   41   75 1  
    82   42   76 1  
    83   45   77 1  
@<TRIPOS>SUBSTRUCTURE
     1 8ES         1

