### 
### Created by X-TOOL on Mon Sep 10 21:13:34 2018
### 

@<TRIPOS>MOLECULE
5unh_ligand
   78    84     1     0     0
SMALL
GAST_HUCK


@<TRIPOS>ATOM
      1 N1        107.4340  -74.0050    4.7830 N.am      1 8EM        -0.1712
      2 N3        102.8280  -70.4180    7.5190 N.2       1 8EM        -0.0641
      3 C4        110.2110  -75.9370    4.6870 C.3       1 8EM        -0.0363
      4 C5        111.4520  -76.5460    5.2970 C.3       1 8EM        -0.0625
      5 C6        106.1200  -73.8500    4.3180 C.2       1 8EM         0.2358
      6 C7        108.2920  -72.8030    4.8110 C.3       1 8EM         0.1040
      7 C8        107.9170  -71.7890    5.8720 C.ar      1 8EM        -0.0103
      8 C10       107.9040  -69.5090    6.6530 C.ar      1 8EM        -0.0588
      9 C13       105.4360  -68.5230    9.1270 C.ar      1 8EM         0.0456
     10 C15       105.1490  -67.4260    9.9480 C.ar      1 8EM        -0.0447
     11 C17       107.4880  -66.9490   10.1560 C.ar      1 8EM        -0.0587
     12 C20       107.1950  -72.1450    7.0120 C.ar      1 8EM        -0.0555
     13 C21       104.9790  -77.3310    5.1160 C.ar      1 8EM        -0.0641
     14 C22       103.6320  -77.2500    4.8030 C.ar      1 8EM        -0.0425
     15 C24       103.9090  -74.9500    4.1310 C.ar      1 8EM        -0.0283
     16 C26       100.9550  -75.6080    6.3950 C.ar      1 8EM         0.0559
     17 C28       100.2480  -75.8450    8.6970 C.ar      1 8EM        -0.0562
     18 O1         99.5460  -76.2920    4.6690 O.2       1 8EM        -0.3736
     19 C25       100.6900  -76.0050    4.9700 C.2       1 8EM         0.2350
     20 C31       102.0930  -74.9270    6.8400 C.ar      1 8EM        -0.0415
     21 C30       102.2950  -74.7030    8.1950 C.ar      1 8EM        -0.0562
     22 C29       101.3760  -75.1660    9.1250 C.ar      1 8EM        -0.0576
     23 C27       100.0320  -76.0620    7.3440 C.ar      1 8EM        -0.0415
     24 N6        101.6800  -75.9740    4.0240 N.am      1 8EM        -0.2081
     25 C32       101.2840  -76.0400    2.6220 C.3       1 8EM         0.1168
     26 C33       101.4620  -77.4190    2.0880 C.2       1 8EM         0.1227
     27 O2        100.7040  -78.4050    2.6590 O.3       1 8EM        -0.2662
     28 C36       101.0540  -79.5730    2.0280 C.2       1 8EM         0.0670
     29 C35       101.9800  -79.3450    1.1140 C.2       1 8EM        -0.0808
     30 C34       102.2500  -77.9460    1.1420 C.2       1 8EM        -0.0681
     31 C23       103.0800  -76.0560    4.3230 C.ar      1 8EM         0.0693
     32 C1        105.8070  -76.2210    4.9520 C.ar      1 8EM        -0.0007
     33 C         105.2660  -75.0350    4.4430 C.ar      1 8EM         0.0481
     34 O         105.7600  -72.7980    3.8150 O.2       1 8EM        -0.3861
     35 C2        107.8650  -75.2460    5.2620 C.2       1 8EM         0.1422
     36 C3        109.2720  -75.3790    5.7360 C.3       1 8EM         0.0363
     37 N         107.1370  -76.3110    5.3530 N.2       1 8EM        -0.3178
     38 C19       106.8300  -71.1960    7.9520 C.ar      1 8EM        -0.0588
     39 C11       107.1680  -69.8540    7.7860 C.ar      1 8EM        -0.0207
     40 C9        108.2730  -70.4580    5.7190 C.ar      1 8EM        -0.0555
     41 C12       106.7740  -68.8190    8.7850 C.ar      1 8EM        -0.0046
     42 C18       107.7860  -68.0210    9.3310 C.ar      1 8EM        -0.0510
     43 C16       106.1760  -66.6500   10.4580 C.ar      1 8EM        -0.0579
     44 C14       104.2560  -69.3710    8.7080 C.2       1 8EM         0.1847
     45 N5        103.3690  -69.9050    9.5600 N.2       1 8EM        -0.2082
     46 N4        102.4830  -70.5570    8.7760 N.2       1 8EM        -0.1389
     47 N2        103.9530  -69.6680    7.4400 N.pl3     1 8EM        -0.1514
     48 H1        109.6812  -76.7121    4.1138 H         1 8EM         0.0296
     49 H2        110.5115  -75.1225    4.0115 H         1 8EM         0.0296
     50 H3        112.0998  -76.9358    4.4980 H         1 8EM         0.0232
     51 H4        111.1647  -77.3676    5.9696 H         1 8EM         0.0232
     52 H5        111.9950  -75.7780    5.8673 H         1 8EM         0.0232
     53 H6        108.2281  -72.3121    3.8287 H         1 8EM         0.0795
     54 H7        109.3280  -73.1244    4.9937 H         1 8EM         0.0795
     55 H8        108.1926  -68.4751    6.5019 H         1 8EM         0.0615
     56 H9        104.1195  -67.1834   10.1852 H         1 8EM         0.0660
     57 H10       108.2884  -66.3433   10.5654 H         1 8EM         0.0645
     58 H11       106.9154  -73.1812    7.1641 H         1 8EM         0.0563
     59 H12       105.3912  -78.2612    5.4900 H         1 8EM         0.0527
     60 H13       102.9985  -78.1202    4.9310 H         1 8EM         0.0532
     61 H14       103.4990  -74.0259    3.7399 H         1 8EM         0.0525
     62 H15        99.5299  -76.2090    9.4229 H         1 8EM         0.0629
     63 H16       102.8226  -74.5715    6.1214 H         1 8EM         0.0669
     64 H17       103.1747  -74.1640    8.5277 H         1 8EM         0.0629
     65 H18       101.5404  -74.9968   10.1830 H         1 8EM         0.0652
     66 H19        99.1412  -76.5874    7.0192 H         1 8EM         0.0669
     67 H20       101.9047  -75.3442    2.0385 H         1 8EM         0.0778
     68 H21       100.2263  -75.7518    2.5318 H         1 8EM         0.0778
     69 H22       100.6280  -80.5503    2.2499 H         1 8EM         0.0854
     70 H23       102.4471  -80.0837    0.4643 H         1 8EM         0.0296
     71 H24       102.9602  -77.4090    0.5150 H         1 8EM         0.0219
     72 H25       109.6346  -74.3843    6.0346 H         1 8EM         0.0555
     73 H26       109.2842  -76.0505    6.6072 H         1 8EM         0.0555
     74 H27       106.2729  -71.5014    8.8303 H         1 8EM         0.0615
     75 H28       108.8503  -70.1568    4.8524 H         1 8EM         0.0563
     76 H29       108.8218  -68.2460    9.1041 H         1 8EM         0.0625
     77 H30       105.9480  -65.8045   11.0969 H         1 8EM         0.0619
     78 H31       104.4630  -69.3880    6.5901 H         1 8EM         0.2703
@<TRIPOS>BOND
     1    1    5 am 
     2    6    1 1  
     3    1   35 1  
     4    2   46 2  
     5   47    2 1  
     6    3    4 1  
     7   36    3 1  
     8    5   33 1  
     9    5   34 2  
    10    7    6 1  
    11   12    7 ar 
    12   40    7 ar 
    13   39    8 ar 
    14    8   40 ar 
    15    9   10 ar 
    16    9   41 ar 
    17   44    9 1  
    18   10   43 ar 
    19   42   11 ar 
    20   43   11 ar 
    21   38   12 ar 
    22   13   14 ar 
    23   32   13 ar 
    24   31   14 ar 
    25   15   31 ar 
    26   33   15 ar 
    27   19   16 1  
    28   16   20 ar 
    29   16   23 ar 
    30   17   22 ar 
    31   23   17 ar 
    32   19   18 2  
    33   24   19 am 
    34   20   21 ar 
    35   21   22 ar 
    36   24   25 1  
    37   31   24 1  
    38   25   26 1  
    39   26   27 1  
    40   26   30 2  
    41   27   28 1  
    42   29   28 2  
    43   30   29 1  
    44   33   32 ar 
    45   37   32 1  
    46   35   36 1  
    47   35   37 2  
    48   39   38 ar 
    49   41   39 1  
    50   41   42 ar 
    51   44   45 2  
    52   44   47 1  
    53   45   46 1  
    54    3   48 1  
    55    3   49 1  
    56    4   50 1  
    57    4   51 1  
    58    4   52 1  
    59    6   53 1  
    60    6   54 1  
    61    8   55 1  
    62   10   56 1  
    63   11   57 1  
    64   12   58 1  
    65   13   59 1  
    66   14   60 1  
    67   15   61 1  
    68   17   62 1  
    69   20   63 1  
    70   21   64 1  
    71   22   65 1  
    72   23   66 1  
    73   25   67 1  
    74   25   68 1  
    75   28   69 1  
    76   29   70 1  
    77   30   71 1  
    78   36   72 1  
    79   36   73 1  
    80   38   74 1  
    81   40   75 1  
    82   42   76 1  
    83   43   77 1  
    84   47   78 1  
@<TRIPOS>SUBSTRUCTURE
     1 8EM         1

