### 
### Created by X-TOOL on Wed Jan  1 15:39:37 2020
### 

@<TRIPOS>MOLECULE
5unp_ligand
   47    51     1     0     0
SMALL
GAST_HUCK


@<TRIPOS>ATOM
      1 C5         -1.4510  -39.4090  -27.7940 C.ar      1 8FY         0.1118
      2 C7         -1.4480  -38.5080  -30.0490 C.3       1 8FY         0.0986
      3 C8         -0.3770  -38.1930  -31.0500 C.ar      1 8FY         0.1272
      4 C10         0.2390  -37.7570  -33.2090 C.ar      1 8FY         0.0215
      5 C15         0.2830  -39.1320  -25.7520 C.2       1 8FY        -0.0084
      6 C21         1.5310  -38.5320  -26.3080 C.ar      1 8FY        -0.0339
      7 C22         2.8360  -38.8160  -25.8670 C.ar      1 8FY        -0.0549
      8 C24         3.7400  -37.1900  -27.4520 C.ar      1 8FY         0.0431
      9 C26         4.6190  -35.6350  -28.9910 C.ar      1 8FY         0.0083
     10 C28         2.2340  -35.8940  -28.8850 C.ar      1 8FY        -0.0380
     11 C1         -5.3270  -39.9440  -28.8180 C.3       1 8FY         0.0180
     12 N2         -4.7780  -40.5370  -27.5770 N.pl3     1 8FY        -0.3011
     13 C3         -3.5050  -40.1900  -27.1340 C.ar      1 8FY         0.1523
     14 N4         -2.6790  -39.7850  -28.0730 N.ar      1 8FY        -0.2578
     15 N6         -0.7250  -39.0090  -28.8750 N.pl3     1 8FY        -0.2863
     16 N9         -0.7070  -38.0290  -32.3110 N.ar      1 8FY        -0.2619
     17 C11         1.5720  -37.6410  -32.8270 C.ar      1 8FY        -0.0158
     18 C12         1.8730  -37.8110  -31.4800 C.ar      1 8FY         0.0215
     19 N13         0.8860  -38.0910  -30.6370 N.ar      1 8FY        -0.2619
     20 C14        -0.9790  -39.4500  -26.4620 C.ar      1 8FY         0.0443
     21 C16         0.0310  -39.4030  -24.4450 C.2       1 8FY         0.0375
     22 N17        -1.2460  -39.8750  -24.2740 N.pl3     1 8FY        -0.2656
     23 C19        -1.8940  -39.9110  -25.4780 C.ar      1 8FY         0.1234
     24 N20        -3.1360  -40.2750  -25.8550 N.ar      1 8FY        -0.2682
     25 C23         3.9070  -38.1750  -26.4370 C.ar      1 8FY        -0.0415
     26 N25         4.7750  -36.5440  -28.0370 N.ar      1 8FY        -0.2981
     27 C27         3.3400  -35.2860  -29.4300 C.ar      1 8FY        -0.0343
     28 C29         2.4290  -36.8710  -27.8750 C.ar      1 8FY        -0.0002
     29 C30         1.3550  -37.5430  -27.2700 C.ar      1 8FY        -0.0501
     30 H1         -2.1312  -39.2760  -30.4406 H         1 8FY         0.0766
     31 H2         -2.0200  -37.6033  -29.7953 H         1 8FY         0.0766
     32 H3         -0.0331  -37.6245  -34.2499 H         1 8FY         0.0920
     33 H4          2.9957  -39.5410  -25.0771 H         1 8FY         0.0631
     34 H5          5.4886  -35.1610  -29.4317 H         1 8FY         0.0844
     35 H6          1.2363  -35.6330  -29.2191 H         1 8FY         0.0751
     36 H7         -6.3371  -40.3405  -28.9981 H         1 8FY         0.0486
     37 H8         -4.6756  -40.2007  -29.6664 H         1 8FY         0.0486
     38 H9         -5.3761  -38.8503  -28.7112 H         1 8FY         0.0486
     39 H10        -5.3416  -41.2103  -27.0385 H         1 8FY         0.1839
     40 H11         0.3039  -39.0570  -28.8683 H         1 8FY         0.1895
     41 H12         2.3477  -37.4259  -33.5531 H         1 8FY         0.0720
     42 H13         2.8930  -37.7168  -31.1253 H         1 8FY         0.0920
     43 H14         0.7489  -39.2638  -23.6381 H         1 8FY         0.0960
     44 H15        -1.6557  -40.1598  -23.3729 H         1 8FY         0.2335
     45 H16         4.9082  -38.4253  -26.1055 H         1 8FY         0.0639
     46 H17         3.2191  -34.5344  -30.2018 H         1 8FY         0.0686
     47 H18         0.3457  -37.2799  -27.5652 H         1 8FY         0.0573
@<TRIPOS>BOND
     1   14    1 ar 
     2    1   15 1  
     3    1   20 ar 
     4    2    3 1  
     5   15    2 1  
     6    3   16 ar 
     7    3   19 ar 
     8   16    4 ar 
     9    4   17 ar 
    10    5    6 1  
    11   20    5 1  
    12    5   21 2  
    13    6    7 ar 
    14    6   29 ar 
    15    7   25 ar 
    16   25    8 ar 
    17    8   26 ar 
    18    8   28 ar 
    19   26    9 ar 
    20    9   27 ar 
    21   10   27 ar 
    22   28   10 ar 
    23   12   11 1  
    24   13   12 1  
    25   13   14 ar 
    26   13   24 ar 
    27   17   18 ar 
    28   18   19 ar 
    29   20   23 ar 
    30   21   22 1  
    31   22   23 1  
    32   23   24 ar 
    33   28   29 ar 
    34    2   30 1  
    35    2   31 1  
    36    4   32 1  
    37    7   33 1  
    38    9   34 1  
    39   10   35 1  
    40   11   36 1  
    41   11   37 1  
    42   11   38 1  
    43   12   39 1  
    44   15   40 1  
    45   17   41 1  
    46   18   42 1  
    47   21   43 1  
    48   22   44 1  
    49   25   45 1  
    50   27   46 1  
    51   29   47 1  
@<TRIPOS>SUBSTRUCTURE
     1 8FY         1

