### 
### Created by X-TOOL on Mon Sep 10 21:13:31 2018
### 

@<TRIPOS>MOLECULE
5uoo_ligand
   54    59     1     0     0
SMALL
GAST_HUCK


@<TRIPOS>ATOM
      1 C1         14.4140   -3.3480    5.7420 C.3       1 8FV         0.0117
      2 C2         14.6130   -4.7900    5.6130 C.2       1 8FV         0.1433
      3 C3         15.5760   -5.6430    6.0470 C.2       1 8FV         0.0159
      4 C25        15.1670   -6.9470    5.5650 C.2       1 8FV         0.0217
      5 C26        15.8780   -8.2290    5.7490 C.3       1 8FV        -0.0273
      6 N4         21.8370   -2.5460    8.1300 N.ar      1 8FV        -0.2544
      7 C5         16.9000   -5.9350    8.1160 C.ar      1 8FV         0.0793
      8 C6         16.1950   -7.7020    9.6650 C.3       1 8FV         0.0564
      9 C7         17.9830   -5.5810    8.9460 C.ar      1 8FV        -0.0423
     10 C8         18.8840   -4.6240    8.4800 C.ar      1 8FV        -0.0067
     11 C11        20.0930   -4.0880    9.0220 C.ar      1 8FV         0.0430
     12 C10        20.6360   -3.2120    8.0200 C.ar      1 8FV         0.1430
     13 C9         18.7200   -4.0360    7.1960 C.ar      1 8FV         0.0560
     14 C12        20.8300   -4.2150   10.2190 C.ar      1 8FV         0.0614
     15 C15        18.1390   -3.6580   11.6180 C.ar      1 8FV        -0.0449
     16 C16        16.9280   -3.5420   12.2070 C.ar      1 8FV        -0.0556
     17 C20        20.6170   -6.8080   12.9410 C.ar      1 8FV         0.0138
     18 C19        18.6460   -5.5570   13.0920 C.ar      1 8FV         0.0491
     19 C18        17.3600   -5.3990   13.7080 C.ar      1 8FV        -0.0385
     20 C17        16.5130   -4.4150   13.2600 C.ar      1 8FV        -0.0554
     21 C21        21.1050   -6.0040   11.8530 C.ar      1 8FV        -0.0200
     22 N5         14.0090   -6.8070    4.9050 N.2       1 8FV        -0.1683
     23 O2         13.6630   -5.4950    4.9230 O.3       1 8FV        -0.1755
     24 C4         16.7330   -5.3220    6.8430 C.ar      1 8FV        -0.0156
     25 C24        17.6560   -4.3650    6.3680 C.ar      1 8FV        -0.0469
     26 N1         19.7990   -3.1660    6.9280 N.pl3     1 8FV        -0.2619
     27 C22        22.4830   -2.8190    9.3130 C.ar      1 8FV         0.0824
     28 C23        23.8670   -2.2400    9.4370 C.3       1 8FV        -0.0008
     29 N3         22.0410   -3.5970   10.3690 N.ar      1 8FV        -0.2771
     30 O1         15.9560   -6.8890    8.5220 O.3       1 8FV        -0.3302
     31 C13        20.3330   -4.9630   11.3940 C.ar      1 8FV         0.0264
     32 N2         19.4510   -6.6200   13.5530 N.ar      1 8FV        -0.2931
     33 C14        19.0490   -4.6870   12.0230 C.ar      1 8FV         0.0172
     34 H1         13.4840   -3.0590    5.2305 H         1 8FV         0.0464
     35 H2         15.2632   -2.8184    5.2857 H         1 8FV         0.0464
     36 H3         14.3448   -3.0812    6.8069 H         1 8FV         0.0464
     37 H4         15.3095   -9.0364    5.2643 H         1 8FV         0.0378
     38 H5         15.9755   -8.4433    6.8235 H         1 8FV         0.0378
     39 H6         16.8782   -8.1619    5.2962 H         1 8FV         0.0378
     40 H7         15.3430   -8.3811    9.8165 H         1 8FV         0.0573
     41 H8         16.3159   -7.0620   10.5514 H         1 8FV         0.0573
     42 H9         17.1108   -8.2915    9.5107 H         1 8FV         0.0573
     43 H10        18.1119   -6.0400    9.9196 H         1 8FV         0.0478
     44 H11        18.4236   -2.9668   10.8330 H         1 8FV         0.0652
     45 H12        16.2518   -2.7642   11.8710 H         1 8FV         0.0647
     46 H13        21.2424   -7.6234   13.2861 H         1 8FV         0.0867
     47 H14        17.0593   -6.0508   14.5203 H         1 8FV         0.0648
     48 H15        15.5309   -4.3006   13.7044 H         1 8FV         0.0652
     49 H16        22.0675   -6.2157   11.4014 H         1 8FV         0.0731
     50 H17        17.5380   -3.9048    5.3937 H         1 8FV         0.0455
     51 H18        19.9344   -2.6030    6.0762 H         1 8FV         0.2199
     52 H19        24.0979   -1.6466    8.5400 H         1 8FV         0.0456
     53 H20        24.5983   -3.0558    9.5352 H         1 8FV         0.0456
     54 H21        23.9161   -1.5944   10.3263 H         1 8FV         0.0456
@<TRIPOS>BOND
     1    2    1 1  
     2    3    2 2  
     3    2   23 1  
     4    3    4 1  
     5   24    3 1  
     6    4    5 1  
     7    4   22 2  
     8   12    6 ar 
     9    6   27 ar 
    10    9    7 ar 
    11    7   24 ar 
    12    7   30 1  
    13   30    8 1  
    14   10    9 ar 
    15   11   10 1  
    16   10   13 ar 
    17   11   12 ar 
    18   14   11 ar 
    19   12   26 1  
    20   13   25 ar 
    21   26   13 1  
    22   14   29 ar 
    23   31   14 1  
    24   15   16 ar 
    25   33   15 ar 
    26   20   16 ar 
    27   21   17 ar 
    28   17   32 ar 
    29   18   19 ar 
    30   32   18 ar 
    31   18   33 ar 
    32   19   20 ar 
    33   21   31 ar 
    34   22   23 1  
    35   24   25 ar 
    36   27   28 1  
    37   27   29 ar 
    38   31   33 ar 
    39    1   34 1  
    40    1   35 1  
    41    1   36 1  
    42    5   37 1  
    43    5   38 1  
    44    5   39 1  
    45    8   40 1  
    46    8   41 1  
    47    8   42 1  
    48    9   43 1  
    49   15   44 1  
    50   16   45 1  
    51   17   46 1  
    52   19   47 1  
    53   20   48 1  
    54   21   49 1  
    55   25   50 1  
    56   26   51 1  
    57   28   52 1  
    58   28   53 1  
    59   28   54 1  
@<TRIPOS>SUBSTRUCTURE
     1 8FV         1

