### 
### Created by X-TOOL on Mon Sep 10 21:13:30 2018
### 

@<TRIPOS>MOLECULE
5uov_ligand
   93    97     1     0     0
SMALL
GAST_HUCK


@<TRIPOS>ATOM
      1 C2         20.8710   27.7620   14.8590 C.ar      1 8FP         0.0908
      2 O39        21.4890   28.9480   14.5930 O.3       1 8FP        -0.3212
      3 C40        22.8480   28.9440   14.9780 C.3       1 8FP         0.0594
      4 C3         21.5110   26.6740   15.4400 C.ar      1 8FP        -0.0313
      5 C4         20.7320   25.5210   15.6860 C.ar      1 8FP        -0.0440
      6 C5         19.3640   25.4910   15.4530 C.ar      1 8FP         0.0971
      7 C6         18.7590   26.5670   14.8220 C.ar      1 8FP        -0.0440
      8 C7         19.5380   27.6720   14.5280 C.ar      1 8FP        -0.0313
      9 S8         18.3920   24.0660   15.8510 S.o2      1 8FP         0.0657
     10 O9         17.2910   23.9630   14.8580 O.2       1 8FP        -0.1515
     11 O10        19.2890   22.9180   15.9800 O.2       1 8FP        -0.1515
     12 N11        17.7370   24.3920   17.3460 N.am      1 8FP        -0.2325
     13 C12        18.6760   24.6110   18.4020 C.3       1 8FP         0.0319
     14 C13        18.3570   23.9320   19.7730 C.3       1 8FP        -0.0296
     15 C14        18.4960   22.4230   19.6480 C.3       1 8FP        -0.0612
     16 C15        19.3970   24.4560   20.7850 C.3       1 8FP        -0.0612
     17 C16        16.4180   25.0200   17.3340 C.3       1 8FP         0.0578
     18 C17        15.3670   24.0360   17.9230 C.3       1 8FP         0.0967
     19 O18        14.1980   24.8290   18.2730 O.3       1 8FP        -0.3877
     20 C19        14.9920   22.9280   16.9160 C.3       1 8FP         0.0783
     21 N20        14.1590   21.8950   17.5700 N.am      1 8FP        -0.2785
     22 C21        14.6800   20.7400   18.0180 C.2       1 8FP         0.2065
     23 O22        15.8030   20.3730   18.0610 O.2       1 8FP        -0.3846
     24 C32        14.1930   23.4470   15.7010 C.3       1 8FP         0.0064
     25 C33        12.5480   21.8780   14.6320 C.ar      1 8FP        -0.0603
     26 C34        12.2510   20.7530   13.8310 C.ar      1 8FP        -0.0686
     27 C35        13.2790   20.0600   13.1710 C.ar      1 8FP        -0.0687
     28 C36        14.6030   20.5420   13.2310 C.ar      1 8FP        -0.0686
     29 C37        14.8990   21.6450   14.0530 C.ar      1 8FP        -0.0603
     30 C38        13.8740   22.2810   14.7480 C.ar      1 8FP        -0.0408
     31 C51        13.6500   19.7490   18.5960 C.ar      1 8FP         0.0554
     32 C52        13.8420   19.1370   19.8290 C.ar      1 8FP        -0.0378
     33 C53        12.8790   18.2620   20.3420 C.ar      1 8FP        -0.0507
     34 C54        11.7270   17.9680   19.6280 C.ar      1 8FP        -0.0378
     35 C55        11.5800   18.5570   18.3690 C.ar      1 8FP         0.0558
     36 C56        12.4970   19.4940   17.8690 C.ar      1 8FP        -0.0220
     37 C58        10.2950   18.3960   17.5590 C.2       1 8FP         0.2113
     38 O59         9.2440   18.7610   18.0760 O.2       1 8FP        -0.3842
     39 N60        10.3320   18.1450   16.2730 N.am      1 8FP        -0.2507
     40 C61        11.3870   17.4180   15.5990 C.3       1 8FP         0.0371
     41 C69        10.8180   17.0170   14.2490 C.3       1 8FP        -0.0276
     42 C70         9.3150   17.0760   14.4110 C.3       1 8FP        -0.0107
     43 C62         9.0680   18.0890   15.5230 C.3       1 8FP         0.1140
     44 C63         8.7400   19.4550   14.9970 C.2       1 8FP         0.1143
     45 N64         8.3720   19.8530   13.8120 N.2       1 8FP        -0.3163
     46 C65         8.2150   21.1560   13.6110 C.2       1 8FP        -0.0174
     47 C66         8.3470   21.9580   14.6610 C.2       1 8FP        -0.0054
     48 S67         8.8760   20.9020   15.9520 S.3       1 8FP        -0.0178
     49 C68         7.5940   21.6670   12.2980 C.3       1 8FP        -0.0342
     50 H1         23.2985   29.9196   14.7429 H         1 8FP         0.0577
     51 H2         23.3816   28.1525   14.4315 H         1 8FP         0.0577
     52 H3         22.9222   28.7570   16.0594 H         1 8FP         0.0577
     53 H4         22.5643   26.7083   15.6940 H         1 8FP         0.0542
     54 H5         21.2185   24.6312   16.0690 H         1 8FP         0.0608
     55 H6         17.7059   26.5433   14.5663 H         1 8FP         0.0608
     56 H7         19.0766   28.5065   14.0125 H         1 8FP         0.0542
     57 H8         18.7388   25.6957   18.5733 H         1 8FP         0.0480
     58 H9         19.6530   24.2361   18.0631 H         1 8FP         0.0480
     59 H10        17.3384   24.1885   20.0995 H         1 8FP         0.0311
     60 H11        18.2701   21.9525   20.6163 H         1 8FP         0.0233
     61 H12        19.5249   22.1730   19.3501 H         1 8FP         0.0233
     62 H13        17.7935   22.0518   18.8873 H         1 8FP         0.0233
     63 H14        19.2999   25.5477   20.8785 H         1 8FP         0.0233
     64 H15        20.4090   24.2068   20.4331 H         1 8FP         0.0233
     65 H16        19.2236   23.9873   21.7649 H         1 8FP         0.0233
     66 H17        16.1426   25.2739   16.2997 H         1 8FP         0.0504
     67 H18        16.4430   25.9362   17.9422 H         1 8FP         0.0504
     68 H19        15.7767   23.5636   18.8280 H         1 8FP         0.0634
     69 H20        13.8615   25.2559   17.4939 H         1 8FP         0.2100
     70 H21        15.9235   22.4681   16.5545 H         1 8FP         0.0604
     71 H22        13.1793   22.0611   17.6820 H         1 8FP         0.1851
     72 H23        14.7895   24.2016   15.1674 H         1 8FP         0.0449
     73 H24        13.2536   23.9012   16.0491 H         1 8FP         0.0449
     74 H25        11.7591   22.4158   15.1454 H         1 8FP         0.0557
     75 H26        11.2240   20.4227   13.7251 H         1 8FP         0.0599
     76 H27        13.0551   19.1560   12.6163 H         1 8FP         0.0559
     77 H28        15.3851   20.0674   12.6495 H         1 8FP         0.0599
     78 H29        15.9199   21.9977   14.1446 H         1 8FP         0.0557
     79 H30        14.7433   19.3390   20.3963 H         1 8FP         0.0703
     80 H31        13.0356   17.8064   21.3131 H         1 8FP         0.0640
     81 H32        10.9690   17.3062   20.0312 H         1 8FP         0.0703
     82 H33        12.3080   20.0080   16.9335 H         1 8FP         0.0723
     83 H34        11.6663   16.5249   16.1772 H         1 8FP         0.0524
     84 H35        12.2702   18.0601   15.4666 H         1 8FP         0.0524
     85 H36        11.1365   15.9978   13.9848 H         1 8FP         0.0288
     86 H37        11.1485   17.7184   13.4687 H         1 8FP         0.0288
     87 H38         8.9192   16.0895   14.6941 H         1 8FP         0.0320
     88 H39         8.8397   17.4073   13.4760 H         1 8FP         0.0320
     89 H40         8.2475   17.7451   16.1699 H         1 8FP         0.0819
     90 H41         8.1667   23.0309   14.7080 H         1 8FP         0.0503
     91 H42         7.5474   22.7658   12.3178 H         1 8FP         0.0362
     92 H43         6.5783   21.2589   12.1895 H         1 8FP         0.0362
     93 H44         8.2126   21.3415   11.4487 H         1 8FP         0.0362
@<TRIPOS>BOND
     1    1    2 1  
     2    4    1 ar 
     3    8    1 ar 
     4    2    3 1  
     5    5    4 ar 
     6    6    5 ar 
     7    6    7 ar 
     8    9    6 1  
     9    7    8 ar 
    10    9   10 2  
    11    9   11 2  
    12   12    9 am 
    13   12   13 1  
    14   17   12 1  
    15   13   14 1  
    16   14   15 1  
    17   14   16 1  
    18   18   17 1  
    19   18   19 1  
    20   20   18 1  
    21   20   21 1  
    22   24   20 1  
    23   21   22 am 
    24   22   23 2  
    25   22   31 1  
    26   30   24 1  
    27   25   26 ar 
    28   25   30 ar 
    29   26   27 ar 
    30   27   28 ar 
    31   28   29 ar 
    32   29   30 ar 
    33   31   32 ar 
    34   31   36 ar 
    35   32   33 ar 
    36   33   34 ar 
    37   34   35 ar 
    38   35   36 ar 
    39   35   37 1  
    40   37   38 2  
    41   37   39 am 
    42   39   40 1  
    43   39   43 1  
    44   40   41 1  
    45   41   42 1  
    46   42   43 1  
    47   43   44 1  
    48   44   45 2  
    49   44   48 1  
    50   45   46 1  
    51   46   47 2  
    52   46   49 1  
    53   47   48 1  
    54    3   50 1  
    55    3   51 1  
    56    3   52 1  
    57    4   53 1  
    58    5   54 1  
    59    7   55 1  
    60    8   56 1  
    61   13   57 1  
    62   13   58 1  
    63   14   59 1  
    64   15   60 1  
    65   15   61 1  
    66   15   62 1  
    67   16   63 1  
    68   16   64 1  
    69   16   65 1  
    70   17   66 1  
    71   17   67 1  
    72   18   68 1  
    73   19   69 1  
    74   20   70 1  
    75   21   71 1  
    76   24   72 1  
    77   24   73 1  
    78   25   74 1  
    79   26   75 1  
    80   27   76 1  
    81   28   77 1  
    82   29   78 1  
    83   32   79 1  
    84   33   80 1  
    85   34   81 1  
    86   36   82 1  
    87   40   83 1  
    88   40   84 1  
    89   41   85 1  
    90   41   86 1  
    91   42   87 1  
    92   42   88 1  
    93   43   89 1  
    94   47   90 1  
    95   49   91 1  
    96   49   92 1  
    97   49   93 1  
@<TRIPOS>SUBSTRUCTURE
     1 8FP         1

