### 
### Created by X-TOOL on Mon Sep 10 21:13:32 2018
### 

@<TRIPOS>MOLECULE
5upe_ligand
   53    56     1     0     0
SMALL
GAST_HUCK


@<TRIPOS>ATOM
      1 N1         14.1960    3.0900   -2.5560 N.am      1 8HY        -0.2883
      2 C4         14.1710    5.2170   -1.3920 C.ar      1 8HY         0.0338
      3 C5         13.5470    6.4440   -1.1960 C.ar      1 8HY        -0.0554
      4 C6         13.9260    7.2740   -0.1530 C.ar      1 8HY        -0.0348
      5 C7         13.5590    4.2500   -2.3690 C.2       1 8HY         0.1934
      6 C8         13.7490    2.0470   -3.4770 C.3       1 8HY         0.0318
      7 C10        14.8150    3.3570   -5.4230 C.3       1 8HY        -0.0173
      8 C13        17.1290    3.0630   -8.4260 C.ar      1 8HY        -0.0686
      9 C15        14.8780    2.7800   -9.1840 C.ar      1 8HY        -0.0686
     10 C17        16.0020    8.4700    4.3440 C.2       1 8HY         0.0391
     11 C20        15.3810    9.0470    8.0950 C.ar      1 8HY        -0.0620
     12 C21        14.3390    9.9630    7.9790 C.ar      1 8HY        -0.0620
     13 C22        13.8950   10.3550    6.7270 C.ar      1 8HY        -0.0620
     14 C24        14.2470   10.1680    4.1390 C.2       1 8HY         0.0391
     15 O1         12.5330    4.5380   -2.9860 O.2       1 8HY        -0.3920
     16 C9         13.6310    2.4920   -4.9440 C.3       1 8HY        -0.0231
     17 C11        15.3090    3.1640   -6.8380 C.ar      1 8HY        -0.0430
     18 C16        14.4190    2.9450   -7.8860 C.ar      1 8HY        -0.0603
     19 C14        16.2350    2.8440   -9.4560 C.ar      1 8HY        -0.0687
     20 C12        16.6710    3.2180   -7.1260 C.ar      1 8HY        -0.0603
     21 C3         15.3230    4.9370   -0.6500 C.ar      1 8HY        -0.0554
     22 C2         15.7330    5.7840    0.3700 C.ar      1 8HY        -0.0348
     23 C1         15.0060    6.9390    0.6570 C.ar      1 8HY         0.0758
     24 N          15.3530    7.7480    1.7720 N.am      1 8HY        -0.1907
     25 C          14.6910    8.8470    2.2490 C.2       1 8HY         0.3973
     26 O          13.6930    9.3510    1.7420 O.2       1 8HY        -0.3318
     27 N2         15.1840    9.2800    3.4400 N.am      1 8HY        -0.2125
     28 C23        14.4930    9.8340    5.5800 C.ar      1 8HY        -0.0307
     29 C18        15.5200    8.8990    5.6960 C.ar      1 8HY        -0.0307
     30 C19        15.9690    8.5120    6.9560 C.ar      1 8HY        -0.0620
     31 H1         15.0318    2.9252   -2.0323 H         1 8HY         0.1840
     32 H2         12.7546    6.7551   -1.8671 H         1 8HY         0.0630
     33 H3         13.3773    8.1902    0.0328 H         1 8HY         0.0518
     34 H4         12.7605    1.6972   -3.1447 H         1 8HY         0.0520
     35 H5         14.4677    1.2157   -3.4280 H         1 8HY         0.0520
     36 H6         15.6615    3.1536   -4.7507 H         1 8HY         0.0427
     37 H7         14.5122    4.4098   -5.3233 H         1 8HY         0.0427
     38 H8         18.1916    3.1139   -8.6343 H         1 8HY         0.0599
     39 H9         14.1733    2.6005   -9.9879 H         1 8HY         0.0599
     40 H10        16.7694    7.7382    4.0958 H         1 8HY         0.0372
     41 H11        15.7341    8.7507    9.0761 H         1 8HY         0.0617
     42 H12        13.8745   10.3700    8.8699 H         1 8HY         0.0617
     43 H13        13.0824   11.0670    6.6387 H         1 8HY         0.0615
     44 H14        13.5483   10.8887    3.7168 H         1 8HY         0.0372
     45 H15        12.7055    3.0757   -5.0572 H         1 8HY         0.0307
     46 H16        13.5779    1.5939   -5.5769 H         1 8HY         0.0307
     47 H17        13.3546    2.9030   -7.6849 H         1 8HY         0.0557
     48 H18        16.5933    2.7228  -10.4719 H         1 8HY         0.0559
     49 H19        17.3816    3.3832   -6.3242 H         1 8HY         0.0557
     50 H20        15.9021    4.0485   -0.8741 H         1 8HY         0.0630
     51 H21        16.6208    5.5472    0.9452 H         1 8HY         0.0518
     52 H22        16.1800    7.4828    2.2678 H         1 8HY         0.2323
     53 H23        16.7762    7.7943    7.0478 H         1 8HY         0.0615
@<TRIPOS>BOND
     1    5    1 am 
     2    1    6 1  
     3    3    2 ar 
     4    2    5 1  
     5   21    2 ar 
     6    4    3 ar 
     7   23    4 ar 
     8    5   15 2  
     9    6   16 1  
    10   16    7 1  
    11    7   17 1  
    12    8   19 ar 
    13   20    8 ar 
    14   18    9 ar 
    15    9   19 ar 
    16   27   10 1  
    17   10   29 2  
    18   12   11 ar 
    19   11   30 ar 
    20   13   12 ar 
    21   28   13 ar 
    22   27   14 1  
    23   14   28 2  
    24   17   18 ar 
    25   17   20 ar 
    26   22   21 ar 
    27   23   22 ar 
    28   24   23 1  
    29   25   24 am 
    30   25   26 2  
    31   25   27 am 
    32   28   29 ar 
    33   29   30 ar 
    34    1   31 1  
    35    3   32 1  
    36    4   33 1  
    37    6   34 1  
    38    6   35 1  
    39    7   36 1  
    40    7   37 1  
    41    8   38 1  
    42    9   39 1  
    43   10   40 1  
    44   11   41 1  
    45   12   42 1  
    46   13   43 1  
    47   14   44 1  
    48   16   45 1  
    49   16   46 1  
    50   18   47 1  
    51   19   48 1  
    52   20   49 1  
    53   21   50 1  
    54   22   51 1  
    55   24   52 1  
    56   30   53 1  
@<TRIPOS>SUBSTRUCTURE
     1 8HY         1

