### 
### Created by X-TOOL on Mon Sep 10 21:13:34 2018
### 

@<TRIPOS>MOLECULE
5upf_ligand
   57    60     1     0     0
SMALL
GAST_HUCK


@<TRIPOS>ATOM
      1 N1         15.4800    7.7940    1.7350 N.am      1 8HV        -0.1979
      2 C4         15.2180    2.7730   -4.5380 C.3       1 8HV         0.0358
      3 C5         15.4400    3.9790   -3.6200 C.3       1 8HV        -0.0217
      4 C6         14.8620    3.7170   -2.2250 C.3       1 8HV        -0.0105
      5 C7         13.4020    3.2460   -2.3280 C.3       1 8HV        -0.0217
      6 C8         13.2600    2.0800   -3.3020 C.3       1 8HV         0.0358
      7 C10        16.0670    4.8320   -0.3210 C.ar      1 8HV        -0.0729
      8 C13        14.6600    8.8130    2.1350 C.2       1 8HV         0.3934
      9 C15        15.3500    9.0300    5.6090 C.ar      1 8HV        -0.0349
     10 C17        15.1660    9.1630    8.0180 C.ar      1 8HV        -0.0284
     11 C20        14.2470    9.8710    5.4820 C.ar      1 8HV        -0.0327
     12 C21        14.0160   10.2320    4.0470 C.2       1 8HV         0.0381
     13 C22        14.3390    6.9940   -0.3440 C.ar      1 8HV        -0.0471
     14 F          13.4340   10.4900    8.9490 F         1 8HV        -0.1834
     15 C18        14.0670    9.9890    7.8440 C.ar      1 8HV         0.1322
     16 C16        15.8010    8.6660    6.8800 C.ar      1 8HV        -0.0639
     17 C19        13.5880   10.3470    6.6100 C.ar      1 8HV        -0.0284
     18 C14        15.9110    8.7090    4.2510 C.2       1 8HV         0.0368
     19 N2         14.9600    9.3620    3.3440 N.am      1 8HV        -0.2138
     20 O2         13.6380    9.1340    1.5400 O.2       1 8HV        -0.3337
     21 C12        15.3270    6.9100    0.6390 C.ar      1 8HV         0.0636
     22 C11        16.2210    5.8430    0.6090 C.ar      1 8HV        -0.0471
     23 C23        14.2140    5.9910   -1.2920 C.ar      1 8HV        -0.0729
     24 C9         15.0550    4.8780   -1.2750 C.ar      1 8HV        -0.0543
     25 N          13.7900    2.4450   -4.6250 N.am      1 8HV        -0.2698
     26 C3         13.1030    2.5290   -5.7810 C.2       1 8HV         0.2295
     27 O1         13.6500    2.8870   -6.8090 O.2       1 8HV        -0.3416
     28 C1         11.6200    2.2010   -5.9860 C.3       1 8HV         0.1395
     29 O          11.2140    1.0890   -5.1770 O.3       1 8HV        -0.3841
     30 C2         10.7890    3.4210   -5.6040 C.3       1 8HV        -0.0293
     31 C          11.3870    1.8040   -7.4440 C.3       1 8HV        -0.0293
     32 H1         16.2987    7.6541    2.2920 H         1 8HV         0.2276
     33 H2         15.7638    1.9070   -4.1353 H         1 8HV         0.0525
     34 H3         15.5963    3.0097   -5.5434 H         1 8HV         0.0525
     35 H4         14.9449    4.8594   -4.0556 H         1 8HV         0.0307
     36 H5         16.5195    4.1713   -3.5324 H         1 8HV         0.0307
     37 H6         15.4328    2.8783   -1.8000 H         1 8HV         0.0435
     38 H7         12.7800    4.0828   -2.6786 H         1 8HV         0.0307
     39 H8         13.0585    2.9252   -1.3335 H         1 8HV         0.0307
     40 H9         12.1964    1.8166   -3.3985 H         1 8HV         0.0525
     41 H10        13.8183    1.2150   -2.9147 H         1 8HV         0.0525
     42 H11        16.7470    3.9879   -0.3069 H         1 8HV         0.0520
     43 H12        15.5220    8.9104    9.0102 H         1 8HV         0.0604
     44 H13        13.3203   10.9593    3.6310 H         1 8HV         0.0371
     45 H14        13.6684    7.8454   -0.3656 H         1 8HV         0.0488
     46 H15        16.6467    7.9956    6.9821 H         1 8HV         0.0605
     47 H16        12.7170   10.9854    6.5162 H         1 8HV         0.0601
     48 H17        16.8021    8.1344    4.0024 H         1 8HV         0.0365
     49 H18        17.0406    5.8050    1.3174 H         1 8HV         0.0488
     50 H19        13.4515    6.0724   -2.0581 H         1 8HV         0.0520
     51 H20        11.7276    0.3247   -5.4105 H         1 8HV         0.2080
     52 H21         9.7216    3.1970   -5.7473 H         1 8HV         0.0244
     53 H22        11.0736    4.2722   -6.2399 H         1 8HV         0.0244
     54 H23        10.9722    3.6738   -4.5493 H         1 8HV         0.0244
     55 H24        10.3232    1.5680   -7.5942 H         1 8HV         0.0244
     56 H25        11.9962    0.9205   -7.6853 H         1 8HV         0.0244
     57 H26        11.6739    2.6379   -8.1015 H         1 8HV         0.0244
@<TRIPOS>BOND
     1    1    8 am 
     2   21    1 1  
     3    3    2 1  
     4    2   25 1  
     5    4    3 1  
     6    4    5 1  
     7   24    4 1  
     8    5    6 1  
     9    6   25 1  
    10   22    7 ar 
    11    7   24 ar 
    12    8   19 am 
    13    8   20 2  
    14    9   11 ar 
    15    9   16 ar 
    16   18    9 2  
    17   10   15 ar 
    18   16   10 ar 
    19   12   11 2  
    20   11   17 ar 
    21   19   12 1  
    22   21   13 ar 
    23   13   23 ar 
    24   15   14 1  
    25   17   15 ar 
    26   19   18 1  
    27   21   22 ar 
    28   23   24 ar 
    29   25   26 am 
    30   26   27 2  
    31   26   28 1  
    32   28   29 1  
    33   28   30 1  
    34   28   31 1  
    35    1   32 1  
    36    2   33 1  
    37    2   34 1  
    38    3   35 1  
    39    3   36 1  
    40    4   37 1  
    41    5   38 1  
    42    5   39 1  
    43    6   40 1  
    44    6   41 1  
    45    7   42 1  
    46   10   43 1  
    47   12   44 1  
    48   13   45 1  
    49   16   46 1  
    50   17   47 1  
    51   18   48 1  
    52   22   49 1  
    53   23   50 1  
    54   29   51 1  
    55   30   52 1  
    56   30   53 1  
    57   30   54 1  
    58   31   55 1  
    59   31   56 1  
    60   31   57 1  
@<TRIPOS>SUBSTRUCTURE
     1 8HV         1

