### 
### Created by X-TOOL on Mon Sep 10 21:12:45 2018
### 

@<TRIPOS>MOLECULE
5upj_ligand
   47    49     1     0     0
SMALL
GAST_HUCK


@<TRIPOS>ATOM
      1 CA         -0.3130   18.0280   20.7550 C.2       1 UIN         0.0472
      2 CA2        -1.4450   17.5700   21.4950 C.2       1 UIN         0.2395
      3 OA2        -1.6890   16.3870   21.6060 O.2       1 UIN        -0.4069
      4 OA3        -2.3370   18.4270   22.0680 O.3       1 UIN        -0.2137
      5 CA4        -2.0880   19.7930   21.8820 C.2       1 UIN         0.1251
      6 CA5        -0.9840   20.2990   21.1760 C.2       1 UIN         0.0148
      7 CA6        -0.0940   19.3910   20.6050 C.2       1 UIN         0.0807
      8 OA6         0.9880   19.7760   19.8770 O.3       1 UIN        -0.3393
      9 CB1         0.1850   16.4700   18.8470 C.ar      1 UIN        -0.0369
     10 CB2        -0.1750   17.3160   17.7600 C.ar      1 UIN        -0.0595
     11 CB3        -0.7070   16.7560   16.5960 C.ar      1 UIN        -0.0687
     12 CB4        -0.8770   15.3680   16.4890 C.ar      1 UIN        -0.0690
     13 CB5        -0.5250   14.5230   17.5560 C.ar      1 UIN        -0.0687
     14 CB6         0.0130   15.0530   18.7300 C.ar      1 UIN        -0.0595
     15 CG1         0.7060   17.0670   20.1320 C.3       1 UIN         0.0123
     16 CG2         1.2990   16.0450   21.0860 C.3       1 UIN        -0.0405
     17 CG3         2.3750   16.5950   22.0140 C.3       1 UIN        -0.0623
     18 CD1        -3.1100   20.6730   22.5560 C.3       1 UIN         0.0205
     19 CD2        -4.2070   21.2450   21.6890 C.3       1 UIN        -0.0375
     20 CD3        -3.8210   22.4020   20.7910 C.3       1 UIN        -0.0506
     21 CD4        -2.9190   22.0610   19.6040 C.3       1 UIN        -0.0520
     22 CD5        -1.4330   22.3770   19.7910 C.3       1 UIN        -0.0495
     23 CD6        -0.7770   21.7860   21.0160 C.3       1 UIN        -0.0311
     24 H1          0.6994   20.2803   19.1254 H         1 UIN         0.2481
     25 H2         -0.0371   18.3886   17.8352 H         1 UIN         0.0556
     26 H3         -0.9903   17.3985   15.7701 H         1 UIN         0.0599
     27 H4         -1.2825   14.9439   15.5775 H         1 UIN         0.0557
     28 H5         -0.6723   13.4528   17.4665 H         1 UIN         0.0599
     29 H6          0.2979   14.3982   19.5455 H         1 UIN         0.0556
     30 H7          1.5560   17.7001   19.8375 H         1 UIN         0.0526
     31 H8          1.7422   15.2345   20.4888 H         1 UIN         0.0300
     32 H9          0.4850   15.6409   21.7057 H         1 UIN         0.0300
     33 H10         2.7446   15.7891   22.6650 H         1 UIN         0.0232
     34 H11         1.9500   17.3997   22.6319 H         1 UIN         0.0232
     35 H12         3.2072   16.9932   21.4151 H         1 UIN         0.0232
     36 H13        -2.5716   21.5184   23.0092 H         1 UIN         0.0503
     37 H14        -3.5897   20.0775   23.3467 H         1 UIN         0.0503
     38 H15        -4.5835   20.4346   21.0476 H         1 UIN         0.0294
     39 H16        -5.0125   21.5911   22.3534 H         1 UIN         0.0294
     40 H17        -4.7473   22.8423   20.3935 H         1 UIN         0.0267
     41 H18        -3.2968   23.1462   21.4085 H         1 UIN         0.0267
     42 H19        -3.0136   20.9832   19.4057 H         1 UIN         0.0266
     43 H20        -3.2784   22.6272   18.7321 H         1 UIN         0.0266
     44 H21        -0.8958   22.0011   18.9077 H         1 UIN         0.0277
     45 H22        -1.3265   23.4704   19.8472 H         1 UIN         0.0277
     46 H23         0.3042   21.9786   20.9543 H         1 UIN         0.0335
     47 H24        -1.1890   22.2886   21.9035 H         1 UIN         0.0335
@<TRIPOS>BOND
     1    1   15 1  
     2    1    7 2  
     3    1    2 1  
     4    2    4 1  
     5    2    3 2  
     6    4    5 1  
     7    5   18 1  
     8    5    6 2  
     9    6   23 1  
    10    6    7 1  
    11    7    8 1  
    12   23   22 1  
    13   22   21 1  
    14   21   20 1  
    15   20   19 1  
    16   19   18 1  
    17   15   16 1  
    18   15    9 1  
    19    9   14 ar 
    20    9   10 ar 
    21   10   11 ar 
    22   11   12 ar 
    23   12   13 ar 
    24   13   14 ar 
    25   16   17 1  
    26    8   24 1  
    27   10   25 1  
    28   11   26 1  
    29   12   27 1  
    30   13   28 1  
    31   14   29 1  
    32   15   30 1  
    33   16   31 1  
    34   16   32 1  
    35   17   33 1  
    36   17   34 1  
    37   17   35 1  
    38   18   36 1  
    39   18   37 1  
    40   19   38 1  
    41   19   39 1  
    42   20   40 1  
    43   20   41 1  
    44   21   42 1  
    45   21   43 1  
    46   22   44 1  
    47   22   45 1  
    48   23   46 1  
    49   23   47 1  
@<TRIPOS>SUBSTRUCTURE
     1 UIN         1

