### 
### Created by X-TOOL on Mon Sep 10 21:13:30 2018
### 

@<TRIPOS>MOLECULE
5upz_ligand
   89    92     1     0     0
SMALL
GAST_HUCK


@<TRIPOS>ATOM
      1 C2         21.0010   27.4820   14.4810 C.ar      1 8HD        -0.0177
      2 C39        21.7910   28.6990   13.9340 C.3       1 8HD         0.0782
      3 O40        21.8410   29.6290   15.0540 O.3       1 8HD        -0.3825
      4 C3         21.6320   26.3950   15.0800 C.ar      1 8HD        -0.0563
      5 C4         20.8360   25.3450   15.5600 C.ar      1 8HD        -0.0419
      6 C5         19.4460   25.3940   15.4220 C.ar      1 8HD         0.1013
      7 C6         18.8410   26.4560   14.8010 C.ar      1 8HD        -0.0419
      8 C7         19.6260   27.4950   14.3560 C.ar      1 8HD        -0.0563
      9 S8         18.4840   24.0290   15.9800 S.o2      1 8HD         0.0676
     10 O9         17.3550   23.8600   15.0490 O.2       1 8HD        -0.1510
     11 O10        19.4240   22.9220   16.2070 O.2       1 8HD        -0.1510
     12 N11        17.8130   24.4420   17.4210 N.am      1 8HD        -0.2320
     13 C12        18.7940   24.7620   18.4550 C.3       1 8HD         0.0320
     14 C13        18.4740   24.0970   19.8320 C.3       1 8HD        -0.0296
     15 C14        18.5640   22.5740   19.7810 C.3       1 8HD        -0.0612
     16 C15        19.5040   24.6810   20.8270 C.3       1 8HD        -0.0612
     17 C16        16.5110   25.0770   17.3800 C.3       1 8HD         0.0578
     18 C17        15.4400   24.1240   17.9870 C.3       1 8HD         0.0967
     19 O18        14.2510   24.9140   18.2770 O.3       1 8HD        -0.3877
     20 C19        15.1030   23.0030   16.9830 C.3       1 8HD         0.0783
     21 N20        14.2480   22.0040   17.6700 N.am      1 8HD        -0.2785
     22 C21        14.7850   20.8570   18.1560 C.2       1 8HD         0.2065
     23 O22        15.9150   20.5570   18.2270 O.2       1 8HD        -0.3846
     24 C32        14.3070   23.4820   15.7550 C.3       1 8HD         0.0064
     25 C33        12.6750   21.8760   14.7910 C.ar      1 8HD        -0.0603
     26 C34        12.3780   20.6720   14.0840 C.ar      1 8HD        -0.0686
     27 C35        13.3620   19.9450   13.4160 C.ar      1 8HD        -0.0687
     28 C36        14.6800   20.4010   13.4920 C.ar      1 8HD        -0.0686
     29 C37        15.0050   21.5620   14.2350 C.ar      1 8HD        -0.0603
     30 C38        14.0080   22.2730   14.8910 C.ar      1 8HD        -0.0408
     31 C51        13.7380   19.8450   18.6560 C.ar      1 8HD         0.0554
     32 C52        13.8890   19.1960   19.8710 C.ar      1 8HD        -0.0378
     33 C53        12.8860   18.2970   20.3200 C.ar      1 8HD        -0.0507
     34 C54        11.7890   18.0390   19.5260 C.ar      1 8HD        -0.0378
     35 C55        11.6480   18.6910   18.3020 C.ar      1 8HD         0.0558
     36 C56        12.5600   19.6570   17.9010 C.ar      1 8HD        -0.0220
     37 C58        10.4030   18.5360   17.4540 C.2       1 8HD         0.2107
     38 O59         9.4420   19.1980   17.8150 O.2       1 8HD        -0.3842
     39 N60        10.4530   17.7540   16.3990 N.am      1 8HD        -0.2560
     40 C61        11.6760   17.0440   15.9810 C.3       1 8HD         0.0251
     41 C62         9.1970   17.4930   15.6470 C.3       1 8HD         0.1201
     42 C63         9.0610   18.5220   14.5450 C.2       1 8HD         0.1947
     43 N64         8.8440   19.8130   14.7540 N.2       1 8HD        -0.3135
     44 C65         8.6650   20.3970   13.5640 C.2       1 8HD        -0.0053
     45 C66         8.8460   19.4990   12.6050 C.2       1 8HD         0.0842
     46 O67         8.7740   18.2600   13.2420 O.3       1 8HD        -0.2429
     47 C68         8.7480   21.7610   13.4790 C.3       1 8HD        -0.0377
     48 H1         21.2688   29.1492   13.0769 H         1 8HD         0.0721
     49 H2         22.8051   28.4005   13.6300 H         1 8HD         0.0721
     50 H3         22.3151   30.4103   14.7945 H         1 8HD         0.2126
     51 H4         22.7115   26.3612   15.1730 H         1 8HD         0.0558
     52 H5         21.3008   24.4915   16.0402 H         1 8HD         0.0619
     53 H6         17.7660   26.4769   14.6633 H         1 8HD         0.0619
     54 H7         19.1495   28.3512   13.8924 H         1 8HD         0.0558
     55 H8         18.8163   25.8534   18.5904 H         1 8HD         0.0480
     56 H9         19.7821   24.4138   18.1196 H         1 8HD         0.0480
     57 H10        17.4565   24.3742   20.1449 H         1 8HD         0.0311
     58 H11        18.3303   22.1595   20.7727 H         1 8HD         0.0233
     59 H12        19.5822   22.2764   19.4899 H         1 8HD         0.0233
     60 H13        17.8444   22.1886   19.0437 H         1 8HD         0.0233
     61 H14        19.4170   25.7774   20.8434 H         1 8HD         0.0233
     62 H15        20.5193   24.3984   20.5118 H         1 8HD         0.0233
     63 H16        19.3082   24.2826   21.8335 H         1 8HD         0.0233
     64 H17        16.2481   25.3041   16.3363 H         1 8HD         0.0504
     65 H18        16.5413   26.0100   17.9618 H         1 8HD         0.0504
     66 H19        15.8238   23.6767   18.9158 H         1 8HD         0.0634
     67 H20        13.9275   25.3039   17.4734 H         1 8HD         0.2100
     68 H21        16.0402   22.5362   16.6459 H         1 8HD         0.0604
     69 H22        13.2688   22.1774   17.7756 H         1 8HD         0.1851
     70 H23        14.9024   24.2103   15.1849 H         1 8HD         0.0449
     71 H24        13.3664   23.9510   16.0794 H         1 8HD         0.0449
     72 H25        11.8842   22.4668   15.2389 H         1 8HD         0.0557
     73 H26        11.3557   20.3120   14.0660 H         1 8HD         0.0599
     74 H27        13.1118   19.0523   12.8543 H         1 8HD         0.0559
     75 H28        15.4642   19.8593   12.9756 H         1 8HD         0.0599
     76 H29        16.0344   21.8968   14.2920 H         1 8HD         0.0557
     77 H30        14.7701   19.3741   20.4767 H         1 8HD         0.0703
     78 H31        12.9827   17.8142   21.2857 H         1 8HD         0.0640
     79 H32        11.0370   17.3300   19.8530 H         1 8HD         0.0703
     80 H33        12.3704   20.2592   17.0198 H         1 8HD         0.0723
     81 H34        11.4672   16.4562   15.0750 H         1 8HD         0.0488
     82 H35        12.0031   16.3711   16.7873 H         1 8HD         0.0488
     83 H36        12.4700   17.7751   15.7688 H         1 8HD         0.0488
     84 H37         8.3367   17.5664   16.3286 H         1 8HD         0.0781
     85 H38         9.2323   16.4849   15.2082 H         1 8HD         0.0781
     86 H39         9.0148   19.6885   11.5460 H         1 8HD         0.0792
     87 H40         8.5772   22.0746   12.4386 H         1 8HD         0.0343
     88 H41         9.7475   22.0883   13.8012 H         1 8HD         0.0343
     89 H42         7.9859   22.2160   14.1288 H         1 8HD         0.0343
@<TRIPOS>BOND
     1    1    2 1  
     2    4    1 ar 
     3    8    1 ar 
     4    2    3 1  
     5    5    4 ar 
     6    6    5 ar 
     7    6    7 ar 
     8    9    6 1  
     9    7    8 ar 
    10    9   10 2  
    11    9   11 2  
    12   12    9 am 
    13   12   13 1  
    14   17   12 1  
    15   13   14 1  
    16   14   15 1  
    17   14   16 1  
    18   18   17 1  
    19   18   19 1  
    20   20   18 1  
    21   20   21 1  
    22   24   20 1  
    23   21   22 am 
    24   22   23 2  
    25   22   31 1  
    26   30   24 1  
    27   25   26 ar 
    28   25   30 ar 
    29   26   27 ar 
    30   27   28 ar 
    31   28   29 ar 
    32   29   30 ar 
    33   31   32 ar 
    34   31   36 ar 
    35   32   33 ar 
    36   33   34 ar 
    37   34   35 ar 
    38   35   36 ar 
    39   35   37 1  
    40   37   38 2  
    41   37   39 am 
    42   39   40 1  
    43   39   41 1  
    44   41   42 1  
    45   42   43 2  
    46   42   46 1  
    47   43   44 1  
    48   44   45 2  
    49   44   47 1  
    50   45   46 1  
    51    2   48 1  
    52    2   49 1  
    53    3   50 1  
    54    4   51 1  
    55    5   52 1  
    56    7   53 1  
    57    8   54 1  
    58   13   55 1  
    59   13   56 1  
    60   14   57 1  
    61   15   58 1  
    62   15   59 1  
    63   15   60 1  
    64   16   61 1  
    65   16   62 1  
    66   16   63 1  
    67   17   64 1  
    68   17   65 1  
    69   18   66 1  
    70   19   67 1  
    71   20   68 1  
    72   21   69 1  
    73   24   70 1  
    74   24   71 1  
    75   25   72 1  
    76   26   73 1  
    77   27   74 1  
    78   28   75 1  
    79   29   76 1  
    80   32   77 1  
    81   33   78 1  
    82   34   79 1  
    83   36   80 1  
    84   40   81 1  
    85   40   82 1  
    86   40   83 1  
    87   41   84 1  
    88   41   85 1  
    89   45   86 1  
    90   47   87 1  
    91   47   88 1  
    92   47   89 1  
@<TRIPOS>SUBSTRUCTURE
     1 8HD         1

