### 
### Created by X-TOOL on Mon Sep 10 21:13:34 2018
### 

@<TRIPOS>MOLECULE
5uqv_ligand
   43    46     1     0     0
SMALL
GAST_HUCK


@<TRIPOS>ATOM
      1 C7         40.2110    4.2180  -77.4860 C.ar      1 8JM         0.1087
      2 C9         38.1370    5.6690  -77.4640 C.ar      1 8JM        -0.0305
      3 C2         36.8800    3.6740  -79.3390 C.3       1 8JM        -0.0169
      4 C10        37.7540    6.6790  -78.3720 C.ar      1 8JM        -0.0651
      5 C4         39.0690    2.3570  -79.1760 C.ar      1 8JM        -0.0079
      6 C1         36.8830    4.2530  -80.7630 C.3       1 8JM        -0.0537
      7 C3         38.2990    3.5000  -78.8110 C.ar      1 8JM        -0.0212
      8 C5         40.3810    2.2440  -78.7100 C.ar      1 8JM        -0.0059
      9 N6         40.8860    3.1460  -77.8860 N.ar      1 8JM        -0.2946
     10 C8         38.8840    4.4560  -77.9330 C.ar      1 8JM         0.0241
     11 C11        37.0260    7.7770  -77.9390 C.ar      1 8JM        -0.0339
     12 C12        36.7110    7.8930  -76.5840 C.ar      1 8JM         0.0870
     13 C13        37.1100    6.9130  -75.6700 C.ar      1 8JM        -0.0339
     14 C14        37.8100    5.8000  -76.1030 C.ar      1 8JM        -0.0651
     15 O15        36.0020    8.9610  -76.1500 O.3       1 8JM        -0.3334
     16 N16        40.8580    5.0970  -76.6300 N.pl3     1 8JM        -0.3226
     17 C17        38.5540    1.3170  -80.1150 C.ar      1 8JM        -0.0321
     18 C18        37.5540    0.4050  -79.7120 C.ar      1 8JM        -0.0644
     19 C19        37.0360   -0.4970  -80.6070 C.ar      1 8JM        -0.0353
     20 C20        37.5100   -0.5360  -81.9280 C.ar      1 8JM         0.0872
     21 C21        38.5170    0.3700  -82.3460 C.ar      1 8JM         0.0085
     22 C22        39.0250    1.3030  -81.4270 C.ar      1 8JM        -0.0589
     23 C23        38.7860    0.0780  -83.7550 C.2       1 8JM         0.0214
     24 N24        37.9950   -0.8930  -84.1120 N.2       1 8JM        -0.2056
     25 N25        37.2130   -1.3080  -83.0200 N.pl3     1 8JM        -0.2132
     26 H1         36.3792    2.6947  -79.3510 H         1 8JM         0.0450
     27 H2         36.3316    4.3581  -78.6748 H         1 8JM         0.0450
     28 H3         38.0312    6.5959  -79.4167 H         1 8JM         0.0579
     29 H4         35.8470    4.3664  -81.1149 H         1 8JM         0.0255
     30 H5         37.4259    3.5718  -81.4347 H         1 8JM         0.0255
     31 H6         37.3782    5.2352  -80.7584 H         1 8JM         0.0255
     32 H7         40.9921    1.4070  -79.0277 H         1 8JM         0.0745
     33 H8         36.7056    8.5357  -78.6439 H         1 8JM         0.0542
     34 H9         36.8704    7.0252  -74.6188 H         1 8JM         0.0542
     35 H10        38.1046    5.0330  -75.3959 H         1 8JM         0.0579
     36 H11        35.8088    9.5312  -76.8849 H         1 8JM         0.2482
     37 H12        40.3721    5.9411  -76.2950 H         1 8JM         0.1777
     38 H13        41.8244    4.9056  -76.3294 H         1 8JM         0.1777
     39 H14        37.1935    0.4175  -78.6898 H         1 8JM         0.0575
     40 H15        36.2573   -1.1825  -80.2927 H         1 8JM         0.0560
     41 H16        39.7834    2.0123  -81.7381 H         1 8JM         0.0580
     42 H17        39.5147    0.5810  -84.3890 H         1 8JM         0.0716
     43 H18        36.5240   -2.0734  -83.0381 H         1 8JM         0.2455
@<TRIPOS>BOND
     1    1    9 ar 
     2   10    1 ar 
     3    1   16 1  
     4    2    4 ar 
     5   10    2 1  
     6    2   14 ar 
     7    3    6 1  
     8    7    3 1  
     9    4   11 ar 
    10    7    5 ar 
    11    5    8 ar 
    12    5   17 1  
    13    7   10 ar 
    14    8    9 ar 
    15   11   12 ar 
    16   12   13 ar 
    17   12   15 1  
    18   13   14 ar 
    19   17   18 ar 
    20   17   22 ar 
    21   18   19 ar 
    22   19   20 ar 
    23   20   21 ar 
    24   20   25 1  
    25   21   22 ar 
    26   21   23 1  
    27   23   24 2  
    28   24   25 1  
    29    3   26 1  
    30    3   27 1  
    31    4   28 1  
    32    6   29 1  
    33    6   30 1  
    34    6   31 1  
    35    8   32 1  
    36   11   33 1  
    37   13   34 1  
    38   14   35 1  
    39   15   36 1  
    40   16   37 1  
    41   16   38 1  
    42   18   39 1  
    43   19   40 1  
    44   22   41 1  
    45   23   42 1  
    46   25   43 1  
@<TRIPOS>SUBSTRUCTURE
     1 8JM         1

