### 
### Created by X-TOOL on Mon Sep 10 21:13:32 2018
### 

@<TRIPOS>MOLECULE
5uqx_ligand
   46    48     1     0     0
SMALL
GAST_HUCK


@<TRIPOS>ATOM
      1 C4         32.2440    3.6010   -0.3410 C.ar      1 8JP         0.0079
      2 C14        30.7570    7.8170   -0.0510 C.ar      1 8JP        -0.0651
      3 C5         33.5110    3.5680    0.2620 C.ar      1 8JP        -0.0005
      4 C11        30.0690    8.4550    2.5640 C.ar      1 8JP        -0.0339
      5 C7         33.2070    5.6200    1.2660 C.ar      1 8JP         0.1116
      6 C8         31.9160    5.7400    0.7010 C.ar      1 8JP         0.0269
      7 C9         31.1290    6.9670    0.9910 C.ar      1 8JP        -0.0299
      8 C10        30.7860    7.2910    2.3100 C.ar      1 8JP        -0.0651
      9 C12        29.6870    9.2920    1.5150 C.ar      1 8JP         0.0870
     10 C13        30.0280    8.9660    0.1880 C.ar      1 8JP        -0.0339
     11 C3         31.4160    4.7130   -0.1320 C.ar      1 8JP        -0.0165
     12 C1         30.1140    5.1100   -2.2760 C.3       1 8JP        -0.0533
     13 C2         30.0420    4.7520   -0.7740 C.3       1 8JP        -0.0155
     14 N6         33.9510    4.5540    1.0290 N.ar      1 8JP        -0.2908
     15 O15        28.9580   10.4190    1.7870 O.3       1 8JP        -0.3334
     16 N16        33.7120    6.6200    2.0870 N.pl3     1 8JP        -0.3211
     17 C17        31.8430    2.4510   -1.2000 C.ar      1 8JP         0.0086
     18 C18        32.4670    2.2750   -2.4480 C.ar      1 8JP        -0.0334
     19 C19        32.0840    1.2020   -3.2310 C.ar      1 8JP        -0.0170
     20 C20        31.1060    0.3160   -2.7750 C.ar      1 8JP         0.1189
     21 N21        30.5390    0.5140   -1.6010 N.ar      1 8JP        -0.2788
     22 C22        30.8600    1.5250   -0.8200 C.ar      1 8JP         0.0207
     23 C23        30.7240   -0.8600   -3.6120 C.2       1 8JP         0.2211
     24 O24        30.9630   -0.8820   -4.8010 O.2       1 8JP        -0.3806
     25 N25        30.1740   -1.9290   -3.0010 N.am      1 8JP        -0.2877
     26 C26        29.7640   -3.1710   -3.6820 C.3       1 8JP         0.0192
     27 H1         31.0452    7.5714   -1.0667 H         1 8JP         0.0579
     28 H2         34.1496    2.7082    0.0946 H         1 8JP         0.0774
     29 H3         29.8052    8.7137    3.5831 H         1 8JP         0.0542
     30 H4         31.0772    6.6396    3.1260 H         1 8JP         0.0579
     31 H5         29.7235    9.6060   -0.6322 H         1 8JP         0.0542
     32 H6         29.0983    5.1265   -2.6981 H         1 8JP         0.0256
     33 H7         30.7182    4.3574   -2.8038 H         1 8JP         0.0256
     34 H8         30.5766    6.1008   -2.3950 H         1 8JP         0.0256
     35 H9         29.4303    5.5068   -0.2581 H         1 8JP         0.0456
     36 H10        29.5718    3.7633   -0.6669 H         1 8JP         0.0456
     37 H11        28.1192   10.3669    1.3439 H         1 8JP         0.2482
     38 H12        34.6531    6.5253    2.4947 H         1 8JP         0.1786
     39 H13        33.1454    7.4563    2.2881 H         1 8JP         0.1786
     40 H14        33.2308    2.9649   -2.7882 H         1 8JP         0.0728
     41 H15        32.5437    1.0483   -4.2006 H         1 8JP         0.0751
     42 H16        30.3561    1.6435    0.1324 H         1 8JP         0.0826
     43 H17        30.0337   -1.8754   -2.0123 H         1 8JP         0.1843
     44 H18        29.3475   -3.8731   -2.9447 H         1 8JP         0.0483
     45 H19        30.6379   -3.6274   -4.1698 H         1 8JP         0.0483
     46 H20        29.0007   -2.9391   -4.4394 H         1 8JP         0.0483
@<TRIPOS>BOND
     1    1    3 ar 
     2   11    1 ar 
     3    1   17 1  
     4    7    2 ar 
     5    2   10 ar 
     6   14    3 ar 
     7    8    4 ar 
     8    4    9 ar 
     9    6    5 ar 
    10    5   14 ar 
    11    5   16 1  
    12    7    6 1  
    13    6   11 ar 
    14    7    8 ar 
    15    9   10 ar 
    16    9   15 1  
    17   11   13 1  
    18   13   12 1  
    19   17   18 ar 
    20   17   22 ar 
    21   18   19 ar 
    22   19   20 ar 
    23   20   21 ar 
    24   20   23 1  
    25   21   22 ar 
    26   23   24 2  
    27   23   25 am 
    28   25   26 1  
    29    2   27 1  
    30    3   28 1  
    31    4   29 1  
    32    8   30 1  
    33   10   31 1  
    34   12   32 1  
    35   12   33 1  
    36   12   34 1  
    37   13   35 1  
    38   13   36 1  
    39   15   37 1  
    40   16   38 1  
    41   16   39 1  
    42   18   40 1  
    43   19   41 1  
    44   22   42 1  
    45   25   43 1  
    46   26   44 1  
    47   26   45 1  
    48   26   46 1  
@<TRIPOS>SUBSTRUCTURE
     1 8JP         1

