### 
### Created by X-TOOL on Mon Sep 10 21:13:34 2018
### 

@<TRIPOS>MOLECULE
5ur1_ligand
   67    71     1     0     0
SMALL
GAST_HUCK


@<TRIPOS>ATOM
      1 CAI       -11.1320  -12.6360    6.9720 C.3       1 YY9         0.0592
      2 OAH       -12.3590  -12.6530    7.7290 O.3       1 YY9        -0.3264
      3 CAE       -12.3100  -13.3930    8.8680 C.ar      1 YY9         0.0840
      4 CAD       -13.4920  -13.4750    9.5430 C.ar      1 YY9         0.0750
      5 CLL       -14.8490  -12.7360    9.0130 Cl        1 YY9        -0.1012
      6 CAF       -11.1890  -14.0500    9.3820 C.ar      1 YY9        -0.0187
      7 CAA       -11.3040  -14.7750   10.5810 C.ar      1 YY9         0.0840
      8 OAG       -10.2730  -15.4590   11.1760 O.3       1 YY9        -0.3264
      9 CAJ        -9.0220  -15.4630   10.4590 C.3       1 YY9         0.0592
     10 CAB       -12.5150  -14.8420   11.2610 C.ar      1 YY9         0.0750
     11 CLK       -12.5120  -15.7330   12.7270 Cl        1 YY9        -0.1012
     12 CAC       -13.6240  -14.1930   10.7120 C.ar      1 YY9         0.0835
     13 NAM       -14.9660  -14.1190   11.3460 N.am      1 YY9        -0.1930
     14 CAR       -15.7700  -15.1900   11.4490 C.2       1 YY9         0.3312
     15 OAW       -15.4970  -16.1780   10.7970 O.2       1 YY9        -0.3766
     16 CAN       -14.8300  -13.2410   12.5490 C.3       1 YY9         0.0917
     17 C5        -16.1650  -12.9840   13.0930 C.ar      1 YY9         0.0442
     18 C6        -16.4370  -11.8020   13.7460 C.ar      1 YY9         0.0004
     19 N1        -17.7110  -11.5980   14.2270 N.ar      1 YY9        -0.2826
     20 C2        -18.6510  -12.5400   14.0620 C.ar      1 YY9         0.1831
     21 NAX       -19.9570  -12.2230   14.6280 N.pl3     1 YY9        -0.2489
     22 CAY       -21.1270  -13.1020   14.5460 C.ar      1 YY9         0.0638
     23 CAZ       -21.3800  -13.9610   13.4780 C.ar      1 YY9        -0.0386
     24 CBA       -22.5450  -14.7300   13.4830 C.ar      1 YY9        -0.0716
     25 CBB       -23.4650  -14.6150   14.5240 C.ar      1 YY9        -0.0735
     26 CBC       -23.2240  -13.7360   15.5770 C.ar      1 YY9        -0.0716
     27 CBD       -22.0620  -12.9750   15.5810 C.ar      1 YY9        -0.0386
     28 N3        -18.3710  -13.6900   13.4430 N.ar      1 YY9        -0.2448
     29 C4        -17.1540  -13.9250   12.9420 C.ar      1 YY9         0.1519
     30 NAQ       -16.8450  -15.2200   12.2770 N.am      1 YY9        -0.1776
     31 CBE       -18.1250  -15.8770   11.8360 C.3       1 YY9         0.0761
     32 CBJ       -18.0480  -17.3930   11.7860 C.3       1 YY9        -0.0032
     33 CBI       -19.4630  -17.9150   12.0170 C.3       1 YY9         0.0365
     34 CBF       -18.6830  -15.3950   10.5120 C.3       1 YY9        -0.0032
     35 CBG       -19.9850  -16.1170   10.1890 C.3       1 YY9         0.0365
     36 NBH       -20.4500  -17.1900   11.1610 N.am      1 YY9        -0.2733
     37 CBK       -21.7550  -17.5440   11.2800 C.2       1 YY9         0.1754
     38 OBL       -22.1430  -18.4120   12.0620 O.2       1 YY9        -0.3972
     39 CBM       -22.8090  -16.8240   10.4150 C.3       1 YY9         0.0258
     40 H1        -11.2645  -12.0164    6.0728 H         1 YY9         0.0578
     41 H2        -10.8702  -13.6622    6.6748 H         1 YY9         0.0578
     42 H3        -10.3252  -12.2163    7.5908 H         1 YY9         0.0578
     43 H4        -10.2396  -14.0011    8.8611 H         1 YY9         0.0346
     44 H5         -8.2755  -16.0372   11.0274 H         1 YY9         0.0578
     45 H6         -8.6694  -14.4289   10.3310 H         1 YY9         0.0578
     46 H7         -9.1667  -15.9260    9.4717 H         1 YY9         0.0578
     47 H8        -14.3573  -12.2900   12.2622 H         1 YY9         0.0722
     48 H9        -14.2115  -13.7440   13.3069 H         1 YY9         0.0722
     49 H10       -15.6668  -11.0507   13.8780 H         1 YY9         0.0760
     50 H11       -20.0642  -11.3229   15.1172 H         1 YY9         0.2157
     51 H12       -20.6803  -14.0311   12.6531 H         1 YY9         0.0534
     52 H13       -22.7358  -15.4222   12.6709 H         1 YY9         0.0587
     53 H14       -24.3702  -15.2112   14.5138 H         1 YY9         0.0518
     54 H15       -23.9381  -13.6464   16.3876 H         1 YY9         0.0587
     55 H16       -21.8776  -12.2782   16.3906 H         1 YY9         0.0534
     56 H17       -18.8686  -15.6180   12.6041 H         1 YY9         0.0634
     57 H18       -17.3746  -17.7640   12.5727 H         1 YY9         0.0313
     58 H19       -17.6793  -17.7211   10.8029 H         1 YY9         0.0313
     59 H20       -19.7308  -17.7716   13.0742 H         1 YY9         0.0523
     60 H21       -19.4948  -18.9871   11.7728 H         1 YY9         0.0523
     61 H22       -17.9508  -15.5950    9.7159 H         1 YY9         0.0313
     62 H23       -18.8738  -14.3133   10.5715 H         1 YY9         0.0313
     63 H24       -19.8627  -16.5937    9.2052 H         1 YY9         0.0523
     64 H25       -20.7783  -15.3572   10.1322 H         1 YY9         0.0523
     65 H26       -23.8062  -17.2318   10.6371 H         1 YY9         0.0467
     66 H27       -22.5781  -16.9792    9.3508 H         1 YY9         0.0467
     67 H28       -22.7947  -15.7474   10.6401 H         1 YY9         0.0467
@<TRIPOS>BOND
     1    1    2 1  
     2    2    3 1  
     3    3    4 ar 
     4    3    6 ar 
     5    4    5 1  
     6    4   12 ar 
     7    6    7 ar 
     8    7    8 1  
     9    7   10 ar 
    10    8    9 1  
    11   10   11 1  
    12   10   12 ar 
    13   12   13 1  
    14   13   14 am 
    15   13   16 1  
    16   14   15 2  
    17   14   30 am 
    18   16   17 1  
    19   17   18 ar 
    20   17   29 ar 
    21   18   19 ar 
    22   19   20 ar 
    23   20   21 1  
    24   20   28 ar 
    25   21   22 1  
    26   22   23 ar 
    27   22   27 ar 
    28   23   24 ar 
    29   24   25 ar 
    30   25   26 ar 
    31   26   27 ar 
    32   28   29 ar 
    33   29   30 1  
    34   30   31 1  
    35   31   32 1  
    36   31   34 1  
    37   32   33 1  
    38   33   36 1  
    39   34   35 1  
    40   35   36 1  
    41   36   37 am 
    42   37   38 2  
    43   37   39 1  
    44    1   40 1  
    45    1   41 1  
    46    1   42 1  
    47    6   43 1  
    48    9   44 1  
    49    9   45 1  
    50    9   46 1  
    51   16   47 1  
    52   16   48 1  
    53   18   49 1  
    54   21   50 1  
    55   23   51 1  
    56   24   52 1  
    57   25   53 1  
    58   26   54 1  
    59   27   55 1  
    60   31   56 1  
    61   32   57 1  
    62   32   58 1  
    63   33   59 1  
    64   33   60 1  
    65   34   61 1  
    66   34   62 1  
    67   35   63 1  
    68   35   64 1  
    69   39   65 1  
    70   39   66 1  
    71   39   67 1  
@<TRIPOS>SUBSTRUCTURE
     1 YY9         1

