### 
### Created by X-TOOL on Mon Sep 10 21:13:31 2018
### 

@<TRIPOS>MOLECULE
5ur5_ligand
   43    44     1     0     0
SMALL
GAST_HUCK


@<TRIPOS>ATOM
      1 CAT        -2.9500   -8.2090  -20.4210 C.3       1 8KP        -0.0541
      2 CAS        -1.5660   -8.8350  -20.4190 C.3       1 8KP        -0.0203
      3 CAO        -1.6990  -10.3410  -20.6190 C.ar      1 8KP        -0.0287
      4 CAK        -1.7060  -11.2140  -19.5220 C.ar      1 8KP        -0.0387
      5 CAN        -1.8050  -10.8470  -21.9130 C.ar      1 8KP         0.0801
      6 CAQ        -1.7940   -9.9380  -23.0520 C.1       1 8KP         0.0691
      7 NAR        -1.7910   -9.2010  -23.9790 N.1       1 8KP        -0.3547
      8 CAM        -1.9110  -12.2230  -22.1110 C.ar      1 8KP        -0.0315
      9 CAP        -2.0270  -12.8000  -23.5150 C.3       1 8KP        -0.0294
     10 CAL        -1.9150  -13.0860  -21.0180 C.ar      1 8KP        -0.0390
     11 CAJ        -1.8110  -12.5960  -19.7170 C.ar      1 8KP         0.0606
     12 NAI        -1.8320  -13.5680  -18.6490 N.am      1 8KP        -0.1862
     13 SAH        -1.0030  -13.3730  -17.2150 S.o2      1 8KP         0.0713
     14 OAU        -1.0730  -12.0170  -16.7800 O.2       1 8KP        -0.1472
     15 OAV        -1.4840  -14.3860  -16.3190 O.2       1 8KP        -0.1472
     16 CAG         0.7310  -13.7560  -17.5200 C.3       1 8KP         0.1210
     17 CAE         1.3220  -12.7620  -18.5130 C.ar      1 8KP        -0.0265
     18 CAD         1.3350  -13.0410  -19.8810 C.ar      1 8KP        -0.0652
     19 CAC         1.8720  -12.1190  -20.7780 C.ar      1 8KP        -0.0670
     20 CAB         2.4100  -10.9230  -20.2990 C.ar      1 8KP        -0.0528
     21 CAW         3.0090   -9.8950  -21.2480 C.3       1 8KP        -0.0343
     22 CAA         2.4020  -10.6530  -18.9410 C.ar      1 8KP        -0.0670
     23 CAF         1.8620  -11.5700  -18.0440 C.ar      1 8KP        -0.0652
     24 H1         -2.8610   -7.1221  -20.2771 H         1 8KP         0.0254
     25 H2         -3.5482   -8.6392  -19.6043 H         1 8KP         0.0254
     26 H3         -3.4430   -8.4123  -21.3831 H         1 8KP         0.0254
     27 H4         -1.0720   -8.6335  -19.4571 H         1 8KP         0.0444
     28 H5         -0.9668   -8.4065  -21.2359 H         1 8KP         0.0444
     29 H6         -1.6296  -10.8162  -18.5165 H         1 8KP         0.0394
     30 H7         -2.0997  -13.8960  -23.4561 H         1 8KP         0.0411
     31 H8         -1.1379  -12.5225  -24.1001 H         1 8KP         0.0411
     32 H9         -2.9273  -12.3986  -24.0032 H         1 8KP         0.0411
     33 H10        -2.0002  -14.1543  -21.1812 H         1 8KP         0.0393
     34 H11        -2.3712  -14.4006  -18.7758 H         1 8KP         0.2213
     35 H12         0.8117  -14.7728  -17.9319 H         1 8KP         0.0675
     36 H13         1.2880  -13.6986  -16.5732 H         1 8KP         0.0675
     37 H14         0.9267  -13.9764  -20.2462 H         1 8KP         0.0540
     38 H15         1.8719  -12.3294  -21.8414 H         1 8KP         0.0540
     39 H16         3.3738   -9.0323  -20.6712 H         1 8KP         0.0378
     40 H17         2.2398   -9.5612  -21.9599 H         1 8KP         0.0378
     41 H18         3.8463  -10.3484  -21.7987 H         1 8KP         0.0378
     42 H19         2.8188   -9.7219  -18.5743 H         1 8KP         0.0540
     43 H20         1.8625  -11.3551  -16.9815 H         1 8KP         0.0540
@<TRIPOS>BOND
     1    1    2 1  
     2    2    3 1  
     3    3    4 ar 
     4    3    5 ar 
     5    4   11 ar 
     6    5    6 1  
     7    5    8 ar 
     8    6    7 3  
     9    8    9 1  
    10    8   10 ar 
    11   10   11 ar 
    12   11   12 1  
    13   12   13 am 
    14   13   14 2  
    15   13   15 2  
    16   13   16 1  
    17   16   17 1  
    18   17   18 ar 
    19   17   23 ar 
    20   18   19 ar 
    21   19   20 ar 
    22   20   21 1  
    23   20   22 ar 
    24   22   23 ar 
    25    1   24 1  
    26    1   25 1  
    27    1   26 1  
    28    2   27 1  
    29    2   28 1  
    30    4   29 1  
    31    9   30 1  
    32    9   31 1  
    33    9   32 1  
    34   10   33 1  
    35   12   34 1  
    36   16   35 1  
    37   16   36 1  
    38   18   37 1  
    39   19   38 1  
    40   21   39 1  
    41   21   40 1  
    42   21   41 1  
    43   22   42 1  
    44   23   43 1  
@<TRIPOS>SUBSTRUCTURE
     1 8KP         1

