### 
### Created by X-TOOL on Mon Sep 10 21:13:32 2018
### 

@<TRIPOS>MOLECULE
5ur6_ligand
   41    43     1     0     0
SMALL
GAST_HUCK


@<TRIPOS>ATOM
      1 CAH        81.7470    8.2210   19.8960 C.3       1 8KM        -0.0368
      2 CAI        80.2610    8.4050   20.1230 C.3       1 8KM        -0.0368
      3 CAG        81.2570    9.0510   21.0690 C.3       1 8KM        -0.0041
      4 CAA        81.4360   10.5660   21.0990 C.ar      1 8KM        -0.0199
      5 CAB        81.3810   11.3510   19.9440 C.ar      1 8KM        -0.0320
      6 CAF        81.6700   11.1660   22.3320 C.ar      1 8KM         0.0787
      7 CAJ        81.7270   10.3530   23.4980 C.1       1 8KM         0.0752
      8 NAK        81.7680    9.7130   24.4050 N.1       1 8KM        -0.3491
      9 CAE        81.8410   12.5410   22.4370 C.ar      1 8KM        -0.0480
     10 CAD        81.7840   13.3070   21.2790 C.ar      1 8KM        -0.0392
     11 CAC        81.5640   12.7330   20.0270 C.ar      1 8KM         0.0676
     12 NAL        81.5080   13.6290   18.8890 N.am      1 8KM        -0.1843
     13 SAM        82.2350   13.3080   17.4420 S.o2      1 8KM         0.0715
     14 OAW        81.7110   14.2280   16.4800 O.2       1 8KM        -0.1472
     15 OAV        82.1200   11.9200   17.1490 O.2       1 8KM        -0.1472
     16 CAN        83.9920   13.6740   17.5750 C.3       1 8KM         0.1211
     17 CAO        84.6390   12.7090   18.5330 C.ar      1 8KM        -0.0265
     18 CAT        85.1340   11.5000   18.0630 C.ar      1 8KM        -0.0652
     19 CAS        85.7330   10.6090   18.9380 C.ar      1 8KM        -0.0670
     20 CAR        85.8570   10.9060   20.2850 C.ar      1 8KM        -0.0528
     21 CAU        86.5210    9.8980   21.2150 C.3       1 8KM        -0.0343
     22 CAQ        85.3650   12.1180   20.7610 C.ar      1 8KM        -0.0670
     23 CAP        84.7720   13.0180   19.8830 C.ar      1 8KM        -0.0652
     24 H1         82.2377    8.7115   19.0424 H         1 8KM         0.0294
     25 H2         82.2129    7.2404   20.0730 H         1 8KM         0.0294
     26 H3         79.6480    7.5580   20.4647 H         1 8KM         0.0294
     27 H4         79.6727    9.0290   19.4341 H         1 8KM         0.0294
     28 H5         81.3677    8.6601   22.0912 H         1 8KM         0.0483
     29 H6         81.1960   10.8864   18.9822 H         1 8KM         0.0443
     30 H7         82.0150   13.0057   23.4008 H         1 8KM         0.0657
     31 H8         81.9142   14.3808   21.3507 H         1 8KM         0.0465
     32 H9         81.0025   14.4865   18.9854 H         1 8KM         0.2217
     33 H10        84.1248   14.7013   17.9451 H         1 8KM         0.0675
     34 H11        84.4619   13.5772   16.5851 H         1 8KM         0.0675
     35 H12        85.0516   11.2533   17.0107 H         1 8KM         0.0540
     36 H13        86.1105    9.6647   18.5627 H         1 8KM         0.0540
     37 H14        86.5328   10.2972   22.2400 H         1 8KM         0.0378
     38 H15        87.5529    9.7152   20.8809 H         1 8KM         0.0378
     39 H16        85.9566    8.9540   21.1956 H         1 8KM         0.0378
     40 H17        85.4441   12.3597   21.8147 H         1 8KM         0.0540
     41 H18        84.4096   13.9700   20.2539 H         1 8KM         0.0540
@<TRIPOS>BOND
     1    1    2 1  
     2    1    3 1  
     3    2    3 1  
     4    3    4 1  
     5    4    5 ar 
     6    4    6 ar 
     7    5   11 ar 
     8    6    7 1  
     9    6    9 ar 
    10    7    8 3  
    11    9   10 ar 
    12   10   11 ar 
    13   11   12 1  
    14   12   13 am 
    15   13   14 2  
    16   13   15 2  
    17   13   16 1  
    18   16   17 1  
    19   17   18 ar 
    20   17   23 ar 
    21   18   19 ar 
    22   19   20 ar 
    23   20   21 1  
    24   20   22 ar 
    25   22   23 ar 
    26    1   24 1  
    27    1   25 1  
    28    2   26 1  
    29    2   27 1  
    30    3   28 1  
    31    5   29 1  
    32    9   30 1  
    33   10   31 1  
    34   12   32 1  
    35   16   33 1  
    36   16   34 1  
    37   18   35 1  
    38   19   36 1  
    39   21   37 1  
    40   21   38 1  
    41   21   39 1  
    42   22   40 1  
    43   23   41 1  
@<TRIPOS>SUBSTRUCTURE
     1 8KM         1

