### 
### Created by X-TOOL on Mon Sep 10 21:13:33 2018
### 

@<TRIPOS>MOLECULE
5ur9_ligand
   53    57     1     0     0
SMALL
GAST_HUCK


@<TRIPOS>ATOM
      1 C12        10.5020    4.5960   -8.1560 C.3       1 8KS         0.0931
      2 C11        13.1260    5.5590  -10.6010 C.ar      1 8KS        -0.0598
      3 C10        14.1980    5.1640  -11.3970 C.ar      1 8KS        -0.0685
      4 O15        12.1820    3.0070   -7.3680 O.3       1 8KS        -0.2084
      5 C16        12.6690    1.7260   -7.2740 C.ar      1 8KS         0.1356
      6 O01         7.5110    5.7600  -11.1810 O.co2     1 8KS        -0.5684
      7 C02         8.6600    6.0100  -10.7760 C.2       1 8KS         0.0426
      8 O03         9.2730    7.0690  -10.9860 O.co2     1 8KS        -0.5684
      9 C04         9.3910    4.9290   -9.9670 C.3       1 8KS         0.0418
     10 C05        10.8360    5.3280   -9.5370 C.3       1 8KS         0.0326
     11 C06        11.9540    4.8240  -10.4290 C.ar      1 8KS        -0.0351
     12 C07        11.8940    3.6160  -11.1500 C.ar      1 8KS        -0.0598
     13 C08        12.9710    3.2040  -11.9710 C.ar      1 8KS        -0.0685
     14 C09        14.1210    3.9840  -12.1070 C.ar      1 8KS        -0.0687
     15 C13        10.9620    3.2260   -8.0040 C.2       1 8KS         0.2667
     16 O14        10.4850    2.2730   -8.6280 O.2       1 8KS        -0.3620
     17 C17        12.0620    0.7650   -6.4700 C.ar      1 8KS        -0.0289
     18 C18        12.5930   -0.5370   -6.3730 C.ar      1 8KS        -0.0730
     19 C19        13.7150   -0.8880   -7.0650 C.ar      1 8KS        -0.0675
     20 C20        14.3750    0.0840   -7.9120 C.ar      1 8KS        -0.0250
     21 C21        15.5450   -0.2620   -8.6370 C.ar      1 8KS        -0.0583
     22 C22        16.1850    0.6190   -9.4490 C.ar      1 8KS        -0.0639
     23 C23        15.6980    1.9310   -9.5620 C.ar      1 8KS        -0.0632
     24 C24        14.5690    2.3050   -8.8770 C.ar      1 8KS        -0.0527
     25 C25        13.8630    1.3900   -8.0190 C.ar      1 8KS         0.0222
     26 C26         8.9840    4.8470   -8.4460 C.3       1 8KS         0.0326
     27 C27         8.4370    6.0630   -7.7890 C.ar      1 8KS        -0.0351
     28 C28         7.0950    6.1700   -7.3890 C.ar      1 8KS        -0.0598
     29 C29         6.6250    7.3340   -6.7690 C.ar      1 8KS        -0.0685
     30 C30         7.4780    8.4250   -6.5080 C.ar      1 8KS        -0.0687
     31 C31         8.8230    8.3340   -6.8820 C.ar      1 8KS        -0.0685
     32 C32         9.2640    7.1650   -7.5050 C.ar      1 8KS        -0.0598
     33 H1         10.8603    5.1561   -7.2797 H         1 8KS         0.0610
     34 H2         13.2086    6.5049  -10.0781 H         1 8KS         0.0557
     35 H3         15.0877    5.7802  -11.4583 H         1 8KS         0.0599
     36 H4          9.3267    3.9691  -10.5004 H         1 8KS         0.0519
     37 H5         10.9798    6.4120   -9.4174 H         1 8KS         0.0514
     38 H6         11.0104    2.9926  -11.0753 H         1 8KS         0.0557
     39 H7         12.9015    2.2634  -12.5052 H         1 8KS         0.0599
     40 H8         14.9323    3.6703  -12.7538 H         1 8KS         0.0559
     41 H9         11.1692    1.0215   -5.9112 H         1 8KS         0.0512
     42 H10        12.1036   -1.2687   -5.7405 H         1 8KS         0.0584
     43 H11        14.1121   -1.8931   -6.9811 H         1 8KS         0.0502
     44 H12        15.9423   -1.2658   -8.5392 H         1 8KS         0.0601
     45 H13        17.0637    0.3119  -10.0046 H         1 8KS         0.0614
     46 H14        16.2136    2.6484  -10.1901 H         1 8KS         0.0592
     47 H15        14.1986    3.3180   -8.9852 H         1 8KS         0.0631
     48 H16         8.3250    3.9979   -8.2121 H         1 8KS         0.0514
     49 H17         6.4161    5.3428   -7.5621 H         1 8KS         0.0557
     50 H18         5.5813    7.3975   -6.4832 H         1 8KS         0.0599
     51 H19         7.0987    9.3188   -6.0260 H         1 8KS         0.0559
     52 H20         9.5075    9.1529   -6.6923 H         1 8KS         0.0599
     53 H21        10.3087    7.1026   -7.7875 H         1 8KS         0.0557
@<TRIPOS>BOND
     1   10    1 1  
     2    1   15 1  
     3    1   26 1  
     4    2    3 ar 
     5   11    2 ar 
     6    3   14 ar 
     7    4    5 1  
     8   15    4 1  
     9    5   17 ar 
    10    5   25 ar 
    11    7    6 ar 
    12    7    8 ar 
    13    9    7 1  
    14   10    9 1  
    15    9   26 1  
    16   10   11 1  
    17   11   12 ar 
    18   12   13 ar 
    19   13   14 ar 
    20   15   16 2  
    21   17   18 ar 
    22   18   19 ar 
    23   19   20 ar 
    24   20   21 ar 
    25   20   25 ar 
    26   21   22 ar 
    27   22   23 ar 
    28   23   24 ar 
    29   24   25 ar 
    30   26   27 1  
    31   27   28 ar 
    32   27   32 ar 
    33   28   29 ar 
    34   29   30 ar 
    35   30   31 ar 
    36   31   32 ar 
    37    1   33 1  
    38    2   34 1  
    39    3   35 1  
    40    9   36 1  
    41   10   37 1  
    42   12   38 1  
    43   13   39 1  
    44   14   40 1  
    45   17   41 1  
    46   18   42 1  
    47   19   43 1  
    48   21   44 1  
    49   22   45 1  
    50   23   46 1  
    51   24   47 1  
    52   26   48 1  
    53   28   49 1  
    54   29   50 1  
    55   30   51 1  
    56   31   52 1  
    57   32   53 1  
@<TRIPOS>SUBSTRUCTURE
     1 8KS         1

