### 
### Created by X-TOOL on Mon Sep 10 21:13:32 2018
### 

@<TRIPOS>MOLECULE
5ura_ligand
   53    57     1     0     0
SMALL
GAST_HUCK


@<TRIPOS>ATOM
      1 C12         9.1630   -9.2520    2.4830 C.3       1 8KS         0.0931
      2 C11        12.5600   -9.0510    3.2310 C.ar      1 8KS        -0.0598
      3 C10        13.6540   -8.2770    3.5660 C.ar      1 8KS        -0.0685
      4 O15         9.6640   -7.2370    3.8250 O.3       1 8KS        -0.2084
      5 C16         9.4380   -5.9230    4.0760 C.ar      1 8KS         0.1356
      6 O01         9.1200  -11.8750    0.8310 O.co2     1 8KS        -0.5684
      7 C02         9.6680  -12.1470    1.9330 C.2       1 8KS         0.0426
      8 O03         9.6920  -13.2840    2.4770 O.co2     1 8KS        -0.5684
      9 C04        10.3880  -11.0090    2.6870 C.3       1 8KS         0.0418
     10 C05        10.5240   -9.6720    1.8730 C.3       1 8KS         0.0326
     11 C06        11.6900   -8.7790    2.1800 C.ar      1 8KS        -0.0351
     12 C07        11.9800   -7.6280    1.4470 C.ar      1 8KS        -0.0598
     13 C08        13.0770   -6.8300    1.7710 C.ar      1 8KS        -0.0685
     14 C09        13.9220   -7.1420    2.8260 C.ar      1 8KS        -0.0687
     15 C13         9.0120   -7.8030    2.7410 C.2       1 8KS         0.2667
     16 O14         8.6710   -6.9810    1.8960 O.2       1 8KS        -0.3620
     17 C17        10.2530   -4.9550    3.5350 C.ar      1 8KS        -0.0289
     18 C18        10.0190   -3.5930    3.7920 C.ar      1 8KS        -0.0730
     19 C19         8.9760   -3.2110    4.5840 C.ar      1 8KS        -0.0675
     20 C20         8.1110   -4.1890    5.1610 C.ar      1 8KS        -0.0250
     21 C21         7.0180   -3.7920    5.9910 C.ar      1 8KS        -0.0583
     22 C22         6.1770   -4.7130    6.5590 C.ar      1 8KS        -0.0639
     23 C23         6.4000   -6.0870    6.3080 C.ar      1 8KS        -0.0632
     24 C24         7.4440   -6.4800    5.5110 C.ar      1 8KS        -0.0527
     25 C25         8.3340   -5.5500    4.9100 C.ar      1 8KS         0.0222
     26 C26         9.4660  -10.2460    3.6810 C.3       1 8KS         0.0326
     27 C27         8.3210  -11.0010    4.3070 C.ar      1 8KS        -0.0351
     28 C28         8.5000  -12.0240    5.2340 C.ar      1 8KS        -0.0598
     29 C29         7.4150  -12.6910    5.8020 C.ar      1 8KS        -0.0685
     30 C30         6.1080  -12.3520    5.4700 C.ar      1 8KS        -0.0687
     31 C31         5.9100  -11.3310    4.5560 C.ar      1 8KS        -0.0685
     32 C32         6.9980  -10.6910    4.0110 C.ar      1 8KS        -0.0598
     33 H1          8.2966   -9.5703    1.8846 H         1 8KS         0.0610
     34 H2         12.3655   -9.9334    3.8298 H         1 8KS         0.0557
     35 H3         14.2922   -8.5560    4.3966 H         1 8KS         0.0599
     36 H4         11.3282  -11.3826    3.1187 H         1 8KS         0.0519
     37 H5         10.4920   -9.8219    0.7837 H         1 8KS         0.0514
     38 H6         11.3441   -7.3501    0.6143 H         1 8KS         0.0557
     39 H7         13.2748   -5.9416    1.1822 H         1 8KS         0.0599
     40 H8         14.7709   -6.5111    3.0635 H         1 8KS         0.0559
     41 H9         11.0847   -5.2461    2.9036 H         1 8KS         0.0512
     42 H10        10.6704   -2.8426    3.3588 H         1 8KS         0.0584
     43 H11         8.8030   -2.1583    4.7763 H         1 8KS         0.0502
     44 H12         6.8499   -2.7372    6.1759 H         1 8KS         0.0601
     45 H13         5.3551   -4.3940    7.1897 H         1 8KS         0.0614
     46 H14         5.7443   -6.8305    6.7465 H         1 8KS         0.0592
     47 H15         7.5958   -7.5385    5.3330 H         1 8KS         0.0631
     48 H16        10.0213   -9.7679    4.5014 H         1 8KS         0.0514
     49 H17         9.5058  -12.3087    5.5209 H         1 8KS         0.0557
     50 H18         7.5937  -13.4878    6.5149 H         1 8KS         0.0599
     51 H19         5.2674  -12.8726    5.9144 H         1 8KS         0.0559
     52 H20         4.9054  -11.0386    4.2724 H         1 8KS         0.0599
     53 H21         6.8121   -9.8913    3.3032 H         1 8KS         0.0557
@<TRIPOS>BOND
     1   10    1 1  
     2    1   15 1  
     3    1   26 1  
     4    2    3 ar 
     5   11    2 ar 
     6    3   14 ar 
     7    4    5 1  
     8   15    4 1  
     9    5   17 ar 
    10    5   25 ar 
    11    7    6 ar 
    12    7    8 ar 
    13    9    7 1  
    14   10    9 1  
    15    9   26 1  
    16   10   11 1  
    17   11   12 ar 
    18   12   13 ar 
    19   13   14 ar 
    20   15   16 2  
    21   17   18 ar 
    22   18   19 ar 
    23   19   20 ar 
    24   20   21 ar 
    25   20   25 ar 
    26   21   22 ar 
    27   22   23 ar 
    28   23   24 ar 
    29   24   25 ar 
    30   26   27 1  
    31   27   28 ar 
    32   27   32 ar 
    33   28   29 ar 
    34   29   30 ar 
    35   30   31 ar 
    36   31   32 ar 
    37    1   33 1  
    38    2   34 1  
    39    3   35 1  
    40    9   36 1  
    41   10   37 1  
    42   12   38 1  
    43   13   39 1  
    44   14   40 1  
    45   17   41 1  
    46   18   42 1  
    47   19   43 1  
    48   21   44 1  
    49   22   45 1  
    50   23   46 1  
    51   24   47 1  
    52   26   48 1  
    53   28   49 1  
    54   29   50 1  
    55   30   51 1  
    56   31   52 1  
    57   32   53 1  
@<TRIPOS>SUBSTRUCTURE
     1 8KS         1

