### 
### Created by X-TOOL on Mon Sep 10 21:13:34 2018
### 

@<TRIPOS>MOLECULE
5urj_ligand
   62    67     1     0     0
SMALL
GAST_HUCK


@<TRIPOS>ATOM
      1 C4        -88.7800  -15.3510  162.1700 C.ar      1 8LS        -0.0344
      2 C5        -87.6330  -15.9600  162.9300 C.3       1 8LS        -0.0247
      3 C6        -87.3970  -17.3780  162.3720 C.3       1 8LS        -0.0047
      4 C7        -88.7190  -18.1170  162.5900 C.3       1 8LS         0.1290
      5 C10       -90.7510  -15.6650  160.8810 C.ar      1 8LS        -0.0249
      6 N12       -92.0130  -13.9960  159.9630 N.am      1 8LS        -0.2036
      7 C13       -93.3710  -14.2710  160.4610 C.3       1 8LS         0.0775
      8 C15       -95.7500  -14.4450  159.7610 C.2       1 8LS         0.0646
      9 C17       -98.1050  -14.7410  159.1610 C.3       1 8LS         0.0980
     10 C20       -99.6750  -17.9830  157.9830 C.ar      1 8LS        -0.0685
     11 C21       -98.6420  -18.8820  158.1550 C.ar      1 8LS        -0.0687
     12 C22       -97.4300  -18.4480  158.6430 C.ar      1 8LS        -0.0685
     13 C24       -96.4840  -13.8410  157.5940 C.2       1 8LS         0.1692
     14 C26       -95.1790  -13.4670  157.2390 C.2       1 8LS        -0.0115
     15 C1        -90.1160  -11.9370  161.1640 C.3       1 8LS        -0.0416
     16 C2        -89.9730  -13.4320  161.3130 C.ar      1 8LS        -0.0409
     17 C3        -88.9140  -13.9720  162.0350 C.ar      1 8LS        -0.0795
     18 O8        -89.6460  -17.5460  161.6750 O.3       1 8LS        -0.3120
     19 C9        -89.7040  -16.1940  161.5920 C.ar      1 8LS         0.0763
     20 C11       -90.9040  -14.3050  160.7460 C.ar      1 8LS         0.0585
     21 C14       -94.4860  -14.1120  159.4540 C.2       1 8LS         0.0308
     22 N16       -96.7410  -14.3220  158.8300 N.am      1 8LS        -0.2128
     23 C18       -98.2920  -16.2050  158.8020 C.ar      1 8LS        -0.0117
     24 C19       -99.5020  -16.6520  158.3060 C.ar      1 8LS        -0.0576
     25 C23       -97.2650  -17.1150  158.9620 C.ar      1 8LS        -0.0576
     26 O25       -97.3940  -13.7440  156.7790 O.2       1 8LS        -0.4406
     27 C27       -94.1630  -13.5990  158.1710 C.2       1 8LS         0.0582
     28 N28       -92.8490  -13.2880  157.8610 N.am      1 8LS        -0.2142
     29 C29       -91.8360  -13.5390  158.7030 C.2       1 8LS         0.3209
     30 O30       -90.7040  -13.3140  158.3200 O.2       1 8LS        -0.3796
     31 C31       -88.6750  -19.6080  162.3680 C.ar      1 8LS         0.0948
     32 N32       -88.0770  -20.1320  161.3190 N.ar      1 8LS        -0.2974
     33 C33       -88.0560  -21.4390  161.1110 C.ar      1 8LS        -0.0015
     34 C34       -88.6650  -22.3160  161.9850 C.ar      1 8LS        -0.0432
     35 C35       -89.3110  -21.8020  163.0960 C.ar      1 8LS        -0.0150
     36 C36       -89.3170  -20.4250  163.2790 C.ar      1 8LS         0.1642
     37 F37       -89.9400  -19.8830  164.3490 F         1 8LS        -0.1794
     38 H1        -87.8809  -16.0157  164.0002 H         1 8LS         0.0378
     39 H2        -86.7282  -15.3493  162.7945 H         1 8LS         0.0378
     40 H3        -86.5816  -17.8766  162.9165 H         1 8LS         0.0335
     41 H4        -87.1504  -17.3355  161.3008 H         1 8LS         0.0335
     42 H5        -89.0532  -17.9370  163.6224 H         1 8LS         0.0833
     43 H6        -91.4703  -16.3305  160.4175 H         1 8LS         0.0387
     44 H7        -93.5699  -13.5831  161.2960 H         1 8LS         0.0658
     45 H8        -93.3925  -15.3080  160.8272 H         1 8LS         0.0658
     46 H9        -95.9859  -14.8151  160.7577 H         1 8LS         0.1097
     47 H10       -98.8229  -14.1308  158.5934 H         1 8LS         0.0795
     48 H11       -98.2784  -14.6037  160.2385 H         1 8LS         0.0795
     49 H12      -100.6270  -18.3238  157.5923 H         1 8LS         0.0599
     50 H13       -98.7846  -19.9274  157.9064 H         1 8LS         0.0559
     51 H14       -96.6122  -19.1470  158.7756 H         1 8LS         0.0599
     52 H15       -94.9679  -13.0781  156.2439 H         1 8LS         0.0126
     53 H16       -89.2844  -11.4358  161.6810 H         1 8LS         0.0341
     54 H17       -91.0702  -11.6141  161.6057 H         1 8LS         0.0341
     55 H18       -90.0975  -11.6714  160.0967 H         1 8LS         0.0341
     56 H19       -88.1869  -13.3136  162.4964 H         1 8LS         0.0431
     57 H20      -100.3198  -15.9536  158.1698 H         1 8LS         0.0558
     58 H21       -96.3099  -16.7754  159.3460 H         1 8LS         0.0558
     59 H22       -92.6491  -12.8616  156.9788 H         1 8LS         0.2310
     60 H23       -87.5496  -21.8287  160.2354 H         1 8LS         0.0765
     61 H24       -88.6381  -23.3847  161.8054 H         1 8LS         0.0641
     62 H25       -89.8006  -22.4583  163.8063 H         1 8LS         0.0703
@<TRIPOS>BOND
     1    1    2 1  
     2   17    1 ar 
     3   19    1 ar 
     4    2    3 1  
     5    4    3 1  
     6   18    4 1  
     7    4   31 1  
     8    5   19 ar 
     9   20    5 ar 
    10    7    6 1  
    11    6   20 1  
    12    6   29 am 
    13   21    7 1  
    14    8   21 2  
    15   22    8 1  
    16    9   22 1  
    17   23    9 1  
    18   10   11 ar 
    19   24   10 ar 
    20   11   12 ar 
    21   12   25 ar 
    22   13   14 1  
    23   22   13 am 
    24   13   26 2  
    25   14   27 2  
    26   16   15 1  
    27   16   17 ar 
    28   20   16 ar 
    29   19   18 1  
    30   21   27 1  
    31   23   24 ar 
    32   23   25 ar 
    33   27   28 1  
    34   28   29 am 
    35   29   30 2  
    36   31   32 ar 
    37   31   36 ar 
    38   32   33 ar 
    39   33   34 ar 
    40   34   35 ar 
    41   35   36 ar 
    42   36   37 1  
    43    2   38 1  
    44    2   39 1  
    45    3   40 1  
    46    3   41 1  
    47    4   42 1  
    48    5   43 1  
    49    7   44 1  
    50    7   45 1  
    51    8   46 1  
    52    9   47 1  
    53    9   48 1  
    54   10   49 1  
    55   11   50 1  
    56   12   51 1  
    57   14   52 1  
    58   15   53 1  
    59   15   54 1  
    60   15   55 1  
    61   17   56 1  
    62   24   57 1  
    63   25   58 1  
    64   28   59 1  
    65   33   60 1  
    66   34   61 1  
    67   35   62 1  
@<TRIPOS>SUBSTRUCTURE
     1 8LS         1

