### 
### Created by X-TOOL on Mon Sep 10 21:13:34 2018
### 

@<TRIPOS>MOLECULE
5urk_ligand
   56    60     1     0     0
SMALL
GAST_HUCK


@<TRIPOS>ATOM
      1 N1        238.1220    9.1390  158.6190 N.2       1 8LP        -0.2903
      2 N3        241.8740   10.2890  159.7650 N.am      1 8LP        -0.1880
      3 C4        242.5530   14.3180  159.2020 C.ar      1 8LP        -0.0685
      4 C5        232.1430   16.0620  163.8020 C.ar      1 8LP        -0.0685
      5 C6        234.1870   17.2280  163.4050 C.ar      1 8LP        -0.0685
      6 C7        234.3420    8.9250  162.6430 C.ar      1 8LP        -0.0838
      7 C8        244.6610   12.5730  159.3470 C.ar      1 8LP        -0.0576
      8 C10       232.7580   14.8680  163.4930 C.ar      1 8LP        -0.0578
      9 C13       233.8630   10.1390  163.0680 C.ar      1 8LP        -0.0483
     10 C15       243.4070   12.1300  159.6920 C.ar      1 8LP        -0.0117
     11 C17       236.0300   10.0570  161.4280 C.ar      1 8LP         0.0604
     12 C20       240.8270   10.3470  160.6440 C.2       1 8LP         0.0778
     13 C21       239.6040    9.9760  160.2720 C.2       1 8LP         0.0363
     14 C22       239.3890    9.5080  158.9470 C.2       1 8LP         0.0312
     15 C24       236.9780    9.4500  159.3060 C.2       1 8LP         0.2435
     16 C26       243.1890   10.7160  160.1500 C.3       1 8LP         0.1017
     17 C1        243.8120   14.7520  158.8640 C.ar      1 8LP        -0.0687
     18 C2        232.8590   17.2380  163.7560 C.ar      1 8LP        -0.0687
     19 C3        244.8620   13.8710  158.9380 C.ar      1 8LP        -0.0685
     20 C9        242.3600   13.0190  159.6100 C.ar      1 8LP        -0.0576
     21 C11       234.7870   16.0280  163.1020 C.ar      1 8LP        -0.0578
     22 C12       235.4310    8.8810  161.8130 C.ar      1 8LP        -0.0521
     23 C14       235.5610   11.2810  161.8490 C.ar      1 8LP        -0.0137
     24 C16       234.0860   14.8420  163.1410 C.ar      1 8LP        -0.0129
     25 C18       234.4670   11.3090  162.6800 C.ar      1 8LP         0.0803
     26 C19       240.4000    9.4380  158.0810 C.3       1 8LP         0.0999
     27 C23       241.7540    9.8480  158.4850 C.2       1 8LP         0.2415
     28 C25       238.4370   10.0240  161.1780 C.3       1 8LP         0.0798
     29 C27       234.7620   13.5520  162.7980 C.3       1 8LP         0.1039
     30 N2        237.1220    9.9360  160.5750 N.am      1 8LP        -0.2167
     31 O1        242.7040    9.7950  157.7240 O.2       1 8LP        -0.3752
     32 O2        235.8600    9.2920  158.8280 O.2       1 8LP        -0.3881
     33 O3        233.9110   12.4830  163.1580 O.3       1 8LP        -0.3095
     34 H1        241.7118   14.9995  159.1471 H         1 8LP         0.0599
     35 H2        231.0957   16.0758  164.0813 H         1 8LP         0.0599
     36 H3        234.7533   18.1515  163.3674 H         1 8LP         0.0599
     37 H4        233.8618    8.0070  162.9620 H         1 8LP         0.0551
     38 H5        245.5023   11.8913  159.3977 H         1 8LP         0.0558
     39 H6        232.1912   13.9446  163.5278 H         1 8LP         0.0557
     40 H7        232.9965   10.1743  163.7184 H         1 8LP         0.0418
     41 H8        240.9963   10.7009  161.6599 H         1 8LP         0.1233
     42 H9        243.9392   10.0596  159.6849 H         1 8LP         0.0793
     43 H10       243.2858   10.6655  161.2446 H         1 8LP         0.0793
     44 H11       243.9737   15.7749  158.5437 H         1 8LP         0.0559
     45 H12       232.3721   18.1758  163.9980 H         1 8LP         0.0559
     46 H13       245.8595   14.2013  158.6715 H         1 8LP         0.0599
     47 H14       241.3616   12.6883  159.8726 H         1 8LP         0.0558
     48 H15       235.8352   16.0148  162.8262 H         1 8LP         0.0557
     49 H16       235.8160    7.9297  161.4638 H         1 8LP         0.0413
     50 H17       236.0425   12.1993  161.5330 H         1 8LP         0.0419
     51 H18       240.1234   10.0654  157.2209 H         1 8LP         0.0760
     52 H19       240.4701    8.3878  157.7613 H         1 8LP         0.0760
     53 H20       238.4849   10.9753  161.7281 H         1 8LP         0.0659
     54 H21       238.5329    9.1865  161.8847 H         1 8LP         0.0659
     55 H22       235.7096   13.4726  163.3509 H         1 8LP         0.0778
     56 H23       234.9639   13.5161  161.7173 H         1 8LP         0.0778
@<TRIPOS>BOND
     1    1   14 2  
     2   15    1 1  
     3   12    2 1  
     4    2   16 1  
     5    2   27 am 
     6    3   17 ar 
     7   20    3 ar 
     8    8    4 ar 
     9    4   18 ar 
    10    5   18 ar 
    11   21    5 ar 
    12    9    6 ar 
    13    6   22 ar 
    14   10    7 ar 
    15    7   19 ar 
    16   24    8 ar 
    17   25    9 ar 
    18   16   10 1  
    19   10   20 ar 
    20   11   22 ar 
    21   23   11 ar 
    22   11   30 1  
    23   13   12 2  
    24   13   14 1  
    25   28   13 1  
    26   14   26 1  
    27   30   15 am 
    28   15   32 2  
    29   19   17 ar 
    30   24   21 ar 
    31   25   23 ar 
    32   29   24 1  
    33   33   25 1  
    34   26   27 1  
    35   27   31 2  
    36   30   28 1  
    37   29   33 1  
    38    3   34 1  
    39    4   35 1  
    40    5   36 1  
    41    6   37 1  
    42    7   38 1  
    43    8   39 1  
    44    9   40 1  
    45   12   41 1  
    46   16   42 1  
    47   16   43 1  
    48   17   44 1  
    49   18   45 1  
    50   19   46 1  
    51   20   47 1  
    52   21   48 1  
    53   22   49 1  
    54   23   50 1  
    55   26   51 1  
    56   26   52 1  
    57   28   53 1  
    58   28   54 1  
    59   29   55 1  
    60   29   56 1  
@<TRIPOS>SUBSTRUCTURE
     1 8LP         1

