### 
### Created by X-TOOL on Mon Sep 10 21:13:33 2018
### 

@<TRIPOS>MOLECULE
5urm_ligand
   54    58     1     0     0
SMALL
GAST_HUCK


@<TRIPOS>ATOM
      1 C4         11.6830   -9.3270   37.2250 C.ar      1 8LV         0.0258
      2 C5         10.3770   -9.7530   37.1410 C.ar      1 8LV        -0.0337
      3 C6         10.1080  -11.0770   36.8900 C.ar      1 8LV        -0.0428
      4 C7         11.1440  -11.9680   36.7270 C.ar      1 8LV        -0.0292
      5 C8         12.4540  -11.5500   36.8100 C.ar      1 8LV         0.0593
      6 C10        13.4820  -12.5520   36.6240 C.2       1 8LV         0.1884
      7 C13        15.4650  -13.4780   36.7860 C.2       1 8LV         0.1884
      8 C15        17.9230  -12.7340   37.6660 C.2       1 8LV         0.1149
      9 C21        21.7320  -11.8450   39.9870 C.3       1 8LV         0.1461
     10 C24        19.0620  -13.2460   38.1530 C.2       1 8LV         0.1913
     11 C26        23.2310  -12.0130   40.0790 C.3       1 8LV        -0.0034
     12 C28        24.9470  -12.4550   41.8970 C.3       1 8LV        -0.0527
     13 O1         11.0160   -7.2740   38.0760 O.co2     1 8LV        -0.5602
     14 C2         11.9450   -7.9020   37.4920 C.2       1 8LV         0.0666
     15 O3         13.0560   -7.4470   37.0970 O.co2     1 8LV        -0.5602
     16 C9         12.7210  -10.2210   37.0610 C.ar      1 8LV        -0.0172
     17 C11        13.3630  -13.8040   36.0690 C.2       1 8LV         0.0097
     18 C12        14.6410  -14.3950   36.1710 C.2       1 8LV         0.0173
     19 C14        16.9000  -13.6760   37.1150 C.3       1 8LV         0.0958
     20 C16        17.7360  -11.2540   37.6870 C.2       1 8LV         0.2120
     21 O17        16.6970  -10.7730   37.2480 O.2       1 8LV        -0.3617
     22 N18        18.7690  -10.4850   38.2160 N.2       1 8LV        -0.2161
     23 C19        19.8280  -11.0880   38.6580 C.2       1 8LV         0.2126
     24 S20        21.2110  -10.2410   39.3570 S.3       1 8LV        -0.0002
     25 N22        21.1210  -12.8630   39.1360 N.2       1 8LV        -0.1690
     26 N23        20.0310  -12.4340   38.6550 N.2       1 8LV        -0.1509
     27 N25        19.2430  -14.6060   38.1400 N.pl3     1 8LV        -0.3026
     28 C27        23.5700  -11.9320   41.5530 C.3       1 8LV        -0.0471
     29 C29        25.0970  -13.8680   41.4010 C.3       1 8LV        -0.0530
     30 C30        24.9650  -13.8340   39.9000 C.3       1 8LV        -0.0527
     31 C31        23.5730  -13.3790   39.5240 C.3       1 8LV        -0.0471
     32 O32        14.7660  -12.3330   37.0590 O.3       1 8LV        -0.1842
     33 H1          9.5645   -9.0475   37.2722 H         1 8LV         0.0768
     34 H2          9.0817  -11.4189   36.8205 H         1 8LV         0.0666
     35 H3         10.9266  -13.0117   36.5309 H         1 8LV         0.0752
     36 H4         21.3311  -11.9567   41.0052 H         1 8LV         0.0732
     37 H5         23.7571  -11.2283   39.5156 H         1 8LV         0.0334
     38 H6         25.0825  -12.4353   42.9884 H         1 8LV         0.0265
     39 H7         25.7081  -11.8189   41.4215 H         1 8LV         0.0265
     40 H8         13.7471   -9.8782   37.1296 H         1 8LV         0.0770
     41 H9         12.4668  -14.2487   35.6389 H         1 8LV         0.0700
     42 H10        14.9227  -15.3894   35.8279 H         1 8LV         0.0648
     43 H11        17.3418  -14.0183   36.1676 H         1 8LV         0.0877
     44 H12        16.8918  -14.5060   37.8368 H         1 8LV         0.0877
     45 H13        18.5084  -15.2197   37.7596 H         1 8LV         0.1884
     46 H14        20.1134  -15.0133   38.5107 H         1 8LV         0.1884
     47 H15        22.8271  -12.5202   42.1117 H         1 8LV         0.0269
     48 H16        23.5126  -10.8784   41.8638 H         1 8LV         0.0269
     49 H17        24.3105  -14.5040   41.8334 H         1 8LV         0.0265
     50 H18        26.0842  -14.2629   41.6829 H         1 8LV         0.0265
     51 H19        25.1434  -14.8406   39.4938 H         1 8LV         0.0265
     52 H20        25.7041  -13.1340   39.4831 H         1 8LV         0.0265
     53 H21        23.5004  -13.3407   38.4271 H         1 8LV         0.0269
     54 H22        22.8478  -14.1083   39.9142 H         1 8LV         0.0269
@<TRIPOS>BOND
     1    1    2 ar 
     2    1   14 1  
     3   16    1 ar 
     4    3    2 ar 
     5    4    3 ar 
     6    5    4 ar 
     7    6    5 1  
     8    5   16 ar 
     9    6   17 2  
    10   32    6 1  
    11    7   18 2  
    12   19    7 1  
    13    7   32 1  
    14    8   10 2  
    15    8   19 1  
    16   20    8 1  
    17    9   11 1  
    18   24    9 1  
    19    9   25 1  
    20   10   26 1  
    21   10   27 1  
    22   11   28 1  
    23   11   31 1  
    24   28   12 1  
    25   12   29 1  
    26   14   13 ar 
    27   14   15 ar 
    28   18   17 1  
    29   20   21 2  
    30   22   20 1  
    31   23   22 2  
    32   23   24 1  
    33   23   26 1  
    34   25   26 2  
    35   29   30 1  
    36   30   31 1  
    37    2   33 1  
    38    3   34 1  
    39    4   35 1  
    40    9   36 1  
    41   11   37 1  
    42   12   38 1  
    43   12   39 1  
    44   16   40 1  
    45   17   41 1  
    46   18   42 1  
    47   19   43 1  
    48   19   44 1  
    49   27   45 1  
    50   27   46 1  
    51   28   47 1  
    52   28   48 1  
    53   29   49 1  
    54   29   50 1  
    55   30   51 1  
    56   30   52 1  
    57   31   53 1  
    58   31   54 1  
@<TRIPOS>SUBSTRUCTURE
     1 8LV         1

