### 
### Created by X-TOOL on Mon Sep 10 21:13:32 2018
### 

@<TRIPOS>MOLECULE
5usf_ligand
   59    62     1     0     0
SMALL
GAST_HUCK


@<TRIPOS>ATOM
      1 CD1       -33.7270  115.3160  -30.6300 C.ar      1 YSA        -0.0684
      2 CE1       -34.3760  115.4460  -31.8410 C.ar      1 YSA        -0.0398
      3 CZ        -35.1300  114.4030  -32.3320 C.ar      1 YSA         0.0805
      4 OH        -35.8530  114.5510  -33.4800 O.3       1 YSA        -0.3376
      5 CE2       -35.2100  113.2300  -31.6160 C.ar      1 YSA        -0.0398
      6 CD2       -34.5590  113.1180  -30.4050 C.ar      1 YSA        -0.0684
      7 CG        -33.8120  114.1550  -29.8960 C.ar      1 YSA        -0.0460
      8 CB        -33.0970  114.0150  -28.5780 C.3       1 YSA         0.0366
      9 CA        -34.0210  113.7570  -27.3940 C.3       1 YSA         0.0745
     10 N         -34.5010  115.0210  -26.8370 N.4       1 YSA         0.2393
     11 C         -33.4270  113.1730  -26.1450 C.2       1 YSA         0.2478
     12 O         -34.1700  113.0530  -25.1930 O.2       1 YSA        -0.3890
     13 NAT       -32.1380  112.7740  -26.0490 N.am      1 YSA        -0.1293
     14 SBI       -31.6320  111.9820  -24.7710 S.o2      1 YSA         0.1859
     15 OAD       -30.2640  111.7010  -24.9310 O.2       1 YSA        -0.1218
     16 OAE       -32.1070  112.6640  -23.6350 O.2       1 YSA        -0.1218
     17 O5'       -32.3590  110.5680  -24.7610 O.3       1 YSA        -0.2161
     18 C5'       -32.1220  109.7220  -25.8970 C.3       1 YSA         0.1073
     19 C4'       -33.2690  108.7600  -26.0650 C.3       1 YSA         0.1161
     20 O4'       -33.2090  107.7340  -25.0640 O.3       1 YSA        -0.3367
     21 C3'       -34.6630  109.3360  -25.9690 C.3       1 YSA         0.1146
     22 O3'       -35.5090  108.4910  -26.7190 O.3       1 YSA        -0.3864
     23 C2'       -35.0050  109.1050  -24.5170 C.3       1 YSA         0.1385
     24 O2'       -36.3960  108.9330  -24.3480 O.3       1 YSA        -0.3836
     25 C1'       -34.3930  107.7460  -24.3070 C.3       1 YSA         0.2010
     26 N9        -34.0510  107.5060  -22.9200 N.pl3     1 YSA        -0.1919
     27 C8        -33.4700  108.3850  -22.0510 C.2       1 YSA         0.1123
     28 N7        -33.3840  107.9410  -20.8240 N.2       1 YSA        -0.2958
     29 C5        -33.9390  106.6750  -20.8950 C.ar      1 YSA         0.1045
     30 C4        -34.3460  106.3920  -22.1810 C.ar      1 YSA         0.1613
     31 N3        -34.9320  105.2760  -22.6050 N.ar      1 YSA        -0.2714
     32 C2        -35.0910  104.4170  -21.6050 C.ar      1 YSA         0.0533
     33 N1        -34.7520  104.5500  -20.3280 N.ar      1 YSA        -0.2698
     34 C6        -34.1670  105.6880  -19.9270 C.ar      1 YSA         0.1298
     35 N6        -33.8700  105.8270  -18.6410 N.pl3     1 YSA        -0.3152
     36 H1        -33.1393  116.1438  -30.2499 H         1 YSA         0.0530
     37 H2        -34.2925  116.3679  -32.4052 H         1 YSA         0.0525
     38 H3        -36.3097  113.7404  -33.6720 H         1 YSA         0.2458
     39 H4        -35.7836  112.3957  -32.0032 H         1 YSA         0.0525
     40 H5        -34.6376  112.1943  -29.8432 H         1 YSA         0.0530
     41 H6        -32.5408  114.9444  -28.3861 H         1 YSA         0.0486
     42 H7        -32.3914  113.1747  -28.6552 H         1 YSA         0.0486
     43 H8        -34.8509  113.1268  -27.7463 H         1 YSA         0.1120
     44 H9        -35.1101  114.8342  -26.0559 H         1 YSA         0.2017
     45 H10       -35.0083  115.5289  -27.5446 H         1 YSA         0.2017
     46 H11       -33.7156  115.5712  -26.5265 H         1 YSA         0.2017
     47 H12       -31.4987  112.9800  -26.7899 H         1 YSA         0.2167
     48 H13       -31.1909  109.1568  -25.7435 H         1 YSA         0.0611
     49 H14       -32.0299  110.3418  -26.8011 H         1 YSA         0.0611
     50 H15       -33.1607  108.3024  -27.0594 H         1 YSA         0.0648
     51 H16       -34.7286  110.3896  -26.2783 H         1 YSA         0.0648
     52 H17       -35.2145  108.4705  -27.6219 H         1 YSA         0.2100
     53 H18       -34.6045  109.8846  -23.8523 H         1 YSA         0.0676
     54 H19       -36.6848  108.1822  -24.8534 H         1 YSA         0.2101
     55 H20       -35.0854  106.9650  -24.6543 H         1 YSA         0.0996
     56 H21       -33.1105  109.3676  -22.3529 H         1 YSA         0.1349
     57 H22       -35.5629  103.4770  -21.8674 H         1 YSA         0.0996
     58 H23       -34.0645  105.0599  -17.9817 H         1 YSA         0.1820
     59 H24       -33.4450  106.7019  -18.3022 H         1 YSA         0.1820
@<TRIPOS>BOND
     1    1    2 ar 
     2    1    7 ar 
     3    2    3 ar 
     4    3    4 1  
     5    3    5 ar 
     6    5    6 ar 
     7    6    7 ar 
     8    7    8 1  
     9    8    9 1  
    10    9   10 1  
    11    9   11 1  
    12   11   12 2  
    13   11   13 am 
    14   13   14 am 
    15   14   15 2  
    16   14   16 2  
    17   14   17 1  
    18   17   18 1  
    19   18   19 1  
    20   19   20 1  
    21   19   21 1  
    22   20   25 1  
    23   21   22 1  
    24   21   23 1  
    25   23   24 1  
    26   23   25 1  
    27   25   26 1  
    28   26   27 1  
    29   26   30 1  
    30   27   28 2  
    31   28   29 1  
    32   29   30 ar 
    33   29   34 ar 
    34   30   31 ar 
    35   31   32 ar 
    36   32   33 ar 
    37   33   34 ar 
    38   34   35 1  
    39    1   36 1  
    40    2   37 1  
    41    4   38 1  
    42    5   39 1  
    43    6   40 1  
    44    8   41 1  
    45    8   42 1  
    46    9   43 1  
    47   10   44 1  
    48   10   45 1  
    49   10   46 1  
    50   13   47 1  
    51   18   48 1  
    52   18   49 1  
    53   19   50 1  
    54   21   51 1  
    55   22   52 1  
    56   23   53 1  
    57   24   54 1  
    58   25   55 1  
    59   27   56 1  
    60   32   57 1  
    61   35   58 1  
    62   35   59 1  
@<TRIPOS>SUBSTRUCTURE
     1 YSA         1

