### 
### Created by X-TOOL on Mon Sep 10 21:13:32 2018
### 

@<TRIPOS>MOLECULE
5usq_ligand
   54    58     1     0     0
SMALL
GAST_HUCK


@<TRIPOS>ATOM
      1 C4         11.8190   65.4710    3.8960 C.ar      1 8LY        -0.0479
      2 C5         11.3540   66.2900    4.9230 C.ar      1 8LY         0.0386
      3 C7         12.2170   67.1150    5.6180 C.ar      1 8LY        -0.0385
      4 C8         13.5800   67.1260    5.3000 C.ar      1 8LY         0.0306
      5 C10        15.5310   68.6650    5.4250 C.ar      1 8LY        -0.0067
      6 N12        17.4330   70.1680    5.4910 N.pl3     1 8LY        -0.2592
      7 C13        17.4510   70.7210    4.2080 C.ar      1 8LY         0.0839
      8 C15        16.4930   71.4200    2.0940 C.ar      1 8LY        -0.0007
      9 C17        18.7860   71.8210    2.3700 C.ar      1 8LY         0.0923
     10 C20        22.2270   72.1270    3.5120 C.3       1 8LY         0.0855
     11 C21        22.5970   72.1260    5.0100 C.3       1 8LY         0.0045
     12 C22        24.1270   72.2080    5.1710 C.3       1 8LY        -0.0062
     13 C26        21.9020   73.2520    5.8040 C.3       1 8LY        -0.0062
     14 C28        18.7300   71.2270    3.7150 C.ar      1 8LY         0.0357
     15 F1         15.3440   66.2720    3.8950 F         1 8LY        -0.1796
     16 C2         14.0440   66.2990    4.2480 C.ar      1 8LY         0.1448
     17 C3         13.1630   65.4750    3.5540 C.ar      1 8LY        -0.0246
     18 CL6         9.6800   66.2890    5.3540 Cl        1 8LY        -0.0739
     19 C9         14.4610   68.0480    6.0670 C.ar      1 8LY         0.0391
     20 C11        16.3500   69.5550    6.1220 C.ar      1 8LY         0.0798
     21 C14        16.3520   70.8420    3.3560 C.ar      1 8LY        -0.0116
     22 N16        17.6450   71.8740    1.6420 N.ar      1 8LY        -0.2987
     23 C18        20.1030   72.2040    2.1830 C.2       1 8LY         0.1248
     24 N19        20.7940   71.8830    3.2940 N.pl3     1 8LY        -0.2288
     25 C23        24.5190   72.2140    6.6590 C.3       1 8LY        -0.0333
     26 N24        23.7660   73.2370    7.4220 N.4       1 8LY         0.2270
     27 C25        22.2970   73.1190    7.2850 C.3       1 8LY        -0.0333
     28 N27        19.9340   71.2840    4.2210 N.2       1 8LY        -0.3291
     29 C29        16.0700   69.8030    7.4770 C.ar      1 8LY        -0.0131
     30 C30        14.9840   69.1630    8.0620 C.ar      1 8LY        -0.0039
     31 N31        14.2260   68.3250    7.3560 N.ar      1 8LY        -0.3110
     32 H1         11.1278   64.8285    3.3625 H         1 8LY         0.0628
     33 H2         11.8390   67.7530    6.4086 H         1 8LY         0.0635
     34 H3         15.7289   68.4537    4.3804 H         1 8LY         0.0618
     35 H4         18.3111   70.2181    6.0271 H         1 8LY         0.2157
     36 H5         15.6184   71.4990    1.4585 H         1 8LY         0.0784
     37 H6         22.8018   71.3383    3.0046 H         1 8LY         0.0725
     38 H7         22.4890   73.1054    3.0830 H         1 8LY         0.0725
     39 H8         22.2609   71.1685    5.4346 H         1 8LY         0.0340
     40 H9         24.4906   73.1323    4.6984 H         1 8LY         0.0321
     41 H10        24.5887   71.3388    4.6797 H         1 8LY         0.0321
     42 H11        20.8107   73.1598    5.7012 H         1 8LY         0.0321
     43 H12        22.2251   74.2309    5.4201 H         1 8LY         0.0321
     44 H13        13.5245   64.8412    2.7523 H         1 8LY         0.0609
     45 H14        15.3807   70.4839    3.6776 H         1 8LY         0.0626
     46 H15        20.5097   72.6816    1.2928 H         1 8LY         0.1389
     47 H16        25.5948   72.4275    6.7430 H         1 8LY         0.0814
     48 H17        24.3072   71.2231    7.0871 H         1 8LY         0.0814
     49 H18        24.0442   74.1483    7.0930 H         1 8LY         0.2013
     50 H19        24.0031   73.1451    8.3974 H         1 8LY         0.2013
     51 H20        21.9721   72.1386    7.6635 H         1 8LY         0.0814
     52 H21        21.8104   73.9161    7.8662 H         1 8LY         0.0814
     53 H22        16.6891   70.4802    8.0543 H         1 8LY         0.0616
     54 H23        14.7510   69.3476    9.1044 H         1 8LY         0.0782
@<TRIPOS>BOND
     1    2    1 ar 
     2   17    1 ar 
     3    3    2 ar 
     4    2   18 1  
     5    4    3 ar 
     6    4   16 ar 
     7   19    4 1  
     8    5   19 ar 
     9   20    5 ar 
    10    7    6 1  
    11    6   20 1  
    12   14    7 ar 
    13    7   21 ar 
    14    8   21 ar 
    15   22    8 ar 
    16    9   14 ar 
    17    9   22 ar 
    18   23    9 2  
    19   10   11 1  
    20   24   10 1  
    21   11   12 1  
    22   11   13 1  
    23   12   25 1  
    24   13   27 1  
    25   14   28 2  
    26   16   15 1  
    27   16   17 ar 
    28   19   31 ar 
    29   20   29 ar 
    30   23   24 1  
    31   24   28 1  
    32   25   26 1  
    33   26   27 1  
    34   29   30 ar 
    35   30   31 ar 
    36    1   32 1  
    37    3   33 1  
    38    5   34 1  
    39    6   35 1  
    40    8   36 1  
    41   10   37 1  
    42   10   38 1  
    43   11   39 1  
    44   12   40 1  
    45   12   41 1  
    46   13   42 1  
    47   13   43 1  
    48   17   44 1  
    49   21   45 1  
    50   23   46 1  
    51   25   47 1  
    52   25   48 1  
    53   26   49 1  
    54   26   50 1  
    55   27   51 1  
    56   27   52 1  
    57   29   53 1  
    58   30   54 1  
@<TRIPOS>SUBSTRUCTURE
     1 8LY         1

