### 
### Created by X-TOOL on Mon Sep 10 21:13:31 2018
### 

@<TRIPOS>MOLECULE
5usy_ligand
   39    41     1     0     0
SMALL
GAST_HUCK


@<TRIPOS>ATOM
      1 S         -11.9620   18.7230  100.2490 S.o2      1 SKE         0.0603
      2 C1        -17.5060   24.7990   97.0030 C.2       1 SKE         0.2527
      3 F1        -20.0350   21.0430   95.1480 F         1 SKE        -0.1782
      4 N1        -18.2380   25.8840   96.3740 N.pl3     1 SKE        -0.2893
      5 O1        -11.0420   19.0800  101.3390 O.2       1 SKE        -0.1521
      6 C2        -16.2390   23.7390   98.3790 C.2       1 SKE         0.1508
      7 F2        -15.4190   21.8220   95.2660 F         1 SKE        -0.1782
      8 N2        -16.7570   24.9370   98.1080 N.2       1 SKE        -0.2739
      9 O2        -12.7500   17.6560  100.8050 O.2       1 SKE        -0.1521
     10 C3        -14.6250   22.2990   99.6460 C.ar      1 SKE         0.0575
     11 N3        -15.4420   23.4710   99.5160 N.pl3     1 SKE        -0.2669
     12 O3        -18.7250   23.5330   94.7430 O.2       1 SKE        -0.3518
     13 C4        -14.6380   21.2960   98.6890 C.ar      1 SKE        -0.0385
     14 N4        -11.1330   18.4200   98.7990 N.am      1 SKE        -0.2623
     15 C5        -13.8240   20.2010   98.8640 C.ar      1 SKE        -0.0460
     16 N5        -16.6510   22.8640   97.4910 N.2       1 SKE        -0.1813
     17 C6        -13.0410   20.1490   99.9910 C.ar      1 SKE         0.0952
     18 N6        -17.4220   23.5400   96.6270 N.am      1 SKE        -0.0829
     19 C7        -13.0320   21.1390  100.9400 C.ar      1 SKE        -0.0460
     20 C8        -13.8310   22.2500  100.7610 C.ar      1 SKE        -0.0385
     21 C9        -18.0190   22.9110   95.4660 C.2       1 SKE         0.2888
     22 C10       -17.7550   21.4310   95.2300 C.ar      1 SKE         0.1350
     23 C11       -18.7860   20.5580   95.0520 C.ar      1 SKE         0.1536
     24 C12       -18.5650   19.2170   94.8270 C.ar      1 SKE        -0.0261
     25 C13       -17.2730   18.7490   94.7220 C.ar      1 SKE        -0.0610
     26 C14       -16.2090   19.6260   94.8770 C.ar      1 SKE        -0.0261
     27 C15       -16.4650   20.9670   95.1170 C.ar      1 SKE         0.1536
     28 H1        -18.2123   26.8284   96.7842 H         1 SKE         0.1819
     29 H2        -18.7829   25.7092   95.5176 H         1 SKE         0.1819
     30 H3        -15.4484   24.1512  100.2894 H         1 SKE         0.2073
     31 H4        -15.2785   21.3733   97.8179 H         1 SKE         0.0527
     32 H5        -10.5751   19.1379   98.3826 H         1 SKE         0.1633
     33 H6        -11.2025   17.5236   98.3612 H         1 SKE         0.1633
     34 H7        -13.8012   19.4013   98.1326 H         1 SKE         0.0604
     35 H8        -12.4051   21.0500  101.8198 H         1 SKE         0.0604
     36 H9        -13.8302   23.0599  101.4815 H         1 SKE         0.0527
     37 H10       -19.4018   18.5344   94.7332 H         1 SKE         0.0582
     38 H11       -17.0888   17.7002   94.5192 H         1 SKE         0.0633
     39 H12       -15.1885   19.2663   94.8111 H         1 SKE         0.0582
@<TRIPOS>BOND
     1    1    5 2  
     2    1    9 2  
     3    1   14 am 
     4   17    1 1  
     5    2    4 1  
     6    2    8 2  
     7   18    2 1  
     8   23    3 1  
     9    6    8 1  
    10    6   11 1  
    11   16    6 2  
    12   27    7 1  
    13   11   10 1  
    14   10   13 ar 
    15   10   20 ar 
    16   21   12 2  
    17   13   15 ar 
    18   15   17 ar 
    19   18   16 1  
    20   19   17 ar 
    21   21   18 am 
    22   20   19 ar 
    23   22   21 1  
    24   22   23 ar 
    25   22   27 ar 
    26   23   24 ar 
    27   24   25 ar 
    28   25   26 ar 
    29   26   27 ar 
    30    4   28 1  
    31    4   29 1  
    32   11   30 1  
    33   13   31 1  
    34   14   32 1  
    35   14   33 1  
    36   15   34 1  
    37   19   35 1  
    38   20   36 1  
    39   24   37 1  
    40   25   38 1  
    41   26   39 1  
@<TRIPOS>SUBSTRUCTURE
     1 SKE         1

