### 
### Created by X-TOOL on Mon Sep 10 21:13:31 2018
### 

@<TRIPOS>MOLECULE
5usz_ligand
   39    41     1     0     0
SMALL
GAST_HUCK


@<TRIPOS>ATOM
      1 S         -15.1840   12.8370   21.9170 S.o2      1 SKE         0.0603
      2 C1         -7.4610   16.2360   18.6320 C.2       1 SKE         0.2527
      3 F1         -5.6000   11.7250   18.4580 F         1 SKE        -0.1782
      4 N1         -6.2230   16.8220   18.1590 N.pl3     1 SKE        -0.2893
      5 O1        -15.7250   11.8310   20.9970 O.2       1 SKE        -0.1521
      6 C2         -9.5600   15.9450   19.1000 C.2       1 SKE         0.1508
      7 F2         -7.9450   13.9200   21.9690 F         1 SKE        -0.1782
      8 N2         -8.6740   16.7900   18.5470 N.2       1 SKE        -0.2739
      9 O2        -14.5950   11.9940   22.9610 O.2       1 SKE        -0.1521
     10 C3        -11.9690   15.3800   19.8570 C.ar      1 SKE         0.0575
     11 N3        -10.9850   16.2160   19.1880 N.pl3     1 SKE        -0.2669
     12 O3         -5.3990   14.4550   19.1900 O.2       1 SKE        -0.3518
     13 C4        -11.6030   14.2950   20.6370 C.ar      1 SKE        -0.0385
     14 N4        -16.4160   13.8400   22.5390 N.am      1 SKE        -0.2623
     15 C5        -12.5720   13.5260   21.2570 C.ar      1 SKE        -0.0460
     16 N5         -8.8880   14.8840   19.5170 N.2       1 SKE        -0.1813
     17 C6        -13.9090   13.8420   21.1020 C.ar      1 SKE         0.0952
     18 N6         -7.5930   15.0750   19.2250 N.am      1 SKE        -0.0829
     19 C7        -14.2820   14.9240   20.3260 C.ar      1 SKE        -0.0460
     20 C8        -13.3110   15.6930   19.7080 C.ar      1 SKE        -0.0385
     21 C9         -6.5070   14.1630   19.5090 C.2       1 SKE         0.2888
     22 C10        -6.7690   12.8290   20.2050 C.ar      1 SKE         0.1350
     23 C11        -6.2930   11.6600   19.6310 C.ar      1 SKE         0.1536
     24 C12        -6.5180   10.4380   20.2450 C.ar      1 SKE        -0.0261
     25 C13        -7.2230   10.3830   21.4360 C.ar      1 SKE        -0.0610
     26 C14        -7.6980   11.5520   22.0090 C.ar      1 SKE        -0.0261
     27 C15        -7.4710   12.7750   21.3960 C.ar      1 SKE         0.1536
     28 H1         -6.2314   17.7460   17.7039 H         1 SKE         0.1819
     29 H2         -5.3346   16.3146   18.2779 H         1 SKE         0.1819
     30 H3        -11.3283   17.0759   18.7368 H         1 SKE         0.2073
     31 H4        -10.5549   14.0479   20.7619 H         1 SKE         0.0527
     32 H5        -16.9035   14.4679   21.9323 H         1 SKE         0.1633
     33 H6        -16.6507   13.8000   23.5103 H         1 SKE         0.1633
     34 H7        -12.2828   12.6759   21.8642 H         1 SKE         0.0604
     35 H8        -15.3307   15.1690   20.2021 H         1 SKE         0.0604
     36 H9        -13.6018   16.5449   19.1040 H         1 SKE         0.0527
     37 H10        -6.1428    9.5266   19.7938 H         1 SKE         0.0582
     38 H11        -7.4026    9.4289   21.9182 H         1 SKE         0.0633
     39 H12        -8.2498   11.5102   22.9411 H         1 SKE         0.0582
@<TRIPOS>BOND
     1    1    5 2  
     2    1    9 2  
     3    1   14 am 
     4   17    1 1  
     5    2    4 1  
     6    2    8 2  
     7   18    2 1  
     8   23    3 1  
     9    6    8 1  
    10    6   11 1  
    11   16    6 2  
    12   27    7 1  
    13   11   10 1  
    14   10   13 ar 
    15   10   20 ar 
    16   21   12 2  
    17   13   15 ar 
    18   15   17 ar 
    19   18   16 1  
    20   19   17 ar 
    21   21   18 am 
    22   20   19 ar 
    23   22   21 1  
    24   22   23 ar 
    25   22   27 ar 
    26   23   24 ar 
    27   24   25 ar 
    28   25   26 ar 
    29   26   27 ar 
    30    4   28 1  
    31    4   29 1  
    32   11   30 1  
    33   13   31 1  
    34   14   32 1  
    35   14   33 1  
    36   15   34 1  
    37   19   35 1  
    38   20   36 1  
    39   24   37 1  
    40   25   38 1  
    41   26   39 1  
@<TRIPOS>SUBSTRUCTURE
     1 SKE         1

