### 
### Created by X-TOOL on Mon Sep 10 21:13:31 2018
### 

@<TRIPOS>MOLECULE
5ut0_ligand
   52    56     1     0     0
SMALL
GAST_HUCK


@<TRIPOS>ATOM
      1 O1         -5.7280   12.9270   19.9080 O.2       1 35R        -0.3915
      2 C2         -6.7650   12.6020   20.3930 C.2       1 35R         0.2843
      3 N3         -6.9090   11.3140   21.0790 N.am      1 35R        -0.2653
      4 C4         -8.2210   10.9720   21.6520 C.3       1 35R         0.0430
      5 C5         -8.5510   11.5600   23.0270 C.3       1 35R        -0.0280
      6 C6         -8.2240   10.0710   22.8940 C.3       1 35R        -0.0280
      7 N7         -7.9400   13.4720   20.3330 N.am      1 35R        -0.2257
      8 C8         -7.9500   14.7860   19.6780 C.2       1 35R         0.1060
      9 C9         -6.9200   15.4530   19.0530 C.2       1 35R         0.0388
     10 N10        -7.4080   16.6010   18.6150 N.2       1 35R        -0.2119
     11 N12        -8.7430   16.7210   18.9330 N.pl3     1 35R        -0.2181
     12 C13        -9.0790   15.5970   19.5900 C.2       1 35R         0.1538
     13 C14       -10.4500   15.2230   20.1590 C.2       1 35R         0.1465
     14 N15       -10.6940   14.1940   20.9830 N.pl3     1 35R        -0.2572
     15 C16       -12.0260   14.1840   21.2740 C.ar      1 35R         0.0710
     16 C17       -12.8310   13.3290   22.0930 C.ar      1 35R        -0.0466
     17 C18       -14.2040   13.5670   22.2060 C.ar      1 35R        -0.0686
     18 C19       -14.7910   14.6360   21.5200 C.ar      1 35R        -0.0151
     19 C20       -16.3210   14.8790   21.6560 C.3       1 35R        -0.0038
     20 N21       -16.9650   13.9210   21.0980 N.4       1 35R         0.2490
     21 C23       -18.3100   14.0280   21.4260 C.3       1 35R        -0.0066
     22 C24       -19.1890   13.0200   20.6720 C.3       1 35R         0.0878
     23 O25       -18.9850   13.0820   19.3030 O.3       1 35R        -0.3693
     24 C26       -17.6500   12.9120   18.9730 C.3       1 35R         0.0878
     25 C27       -16.7470   13.9070   19.7210 C.3       1 35R        -0.0066
     26 C28       -14.0080   15.4810   20.7220 C.ar      1 35R        -0.0592
     27 C29       -12.6010   15.2330   20.6060 C.ar      1 35R         0.0155
     28 N30       -11.6020   15.8640   19.9190 N.2       1 35R        -0.3235
     29 H1         -6.1359   10.6843   21.1556 H         1 35R         0.1854
     30 H2         -8.9870   10.8745   20.8687 H         1 35R         0.0553
     31 H3         -9.5786   11.8786   23.2562 H         1 35R         0.0288
     32 H4         -7.8384   12.2372   23.5205 H         1 35R         0.0288
     33 H5         -7.2763    9.6783   23.2911 H         1 35R         0.0288
     34 H6         -9.0165    9.3198   23.0267 H         1 35R         0.0288
     35 H7         -8.7848   13.1533   20.7628 H         1 35R         0.2217
     36 H8         -5.8956   15.1009   18.9406 H         1 35R         0.0666
     37 H9         -9.3612   17.5145   18.7114 H         1 35R         0.2474
     38 H10        -9.9947   13.5252   21.3359 H         1 35R         0.2256
     39 H11       -12.3774   12.4998   22.6238 H         1 35R         0.0526
     40 H12       -14.8153   12.9218   22.8266 H         1 35R         0.0485
     41 H13       -16.5845   15.8289   21.1679 H         1 35R         0.0959
     42 H14       -16.5896   14.9274   22.7216 H         1 35R         0.0959
     43 H15       -16.6219   13.0492   21.4700 H         1 35R         0.2048
     44 H16       -18.6517   15.0444   21.1808 H         1 35R         0.0837
     45 H17       -18.4232   13.8537   22.5062 H         1 35R         0.0837
     46 H18       -20.2456   13.2399   20.8848 H         1 35R         0.0613
     47 H19       -18.9479   12.0055   21.0222 H         1 35R         0.0613
     48 H20       -17.5283   13.0647   17.8905 H         1 35R         0.0613
     49 H21       -17.3457   11.8880   19.2354 H         1 35R         0.0613
     50 H22       -15.6977   13.6334   19.5362 H         1 35R         0.0837
     51 H23       -16.9377   14.9161   19.3269 H         1 35R         0.0837
     52 H24       -14.4620   16.3140   20.1976 H         1 35R         0.0462
@<TRIPOS>BOND
     1    1    2 2  
     2    2    3 am 
     3    2    7 am 
     4    3    4 1  
     5    4    5 1  
     6    4    6 1  
     7    5    6 1  
     8    7    8 1  
     9    8    9 1  
    10    8   12 2  
    11    9   10 2  
    12   10   11 1  
    13   11   12 1  
    14   12   13 1  
    15   13   14 1  
    16   13   28 2  
    17   14   15 1  
    18   15   16 ar 
    19   15   27 ar 
    20   16   17 ar 
    21   17   18 ar 
    22   18   19 1  
    23   18   26 ar 
    24   19   20 1  
    25   20   21 1  
    26   20   25 1  
    27   21   22 1  
    28   22   23 1  
    29   23   24 1  
    30   24   25 1  
    31   26   27 ar 
    32   27   28 1  
    33    3   29 1  
    34    4   30 1  
    35    5   31 1  
    36    5   32 1  
    37    6   33 1  
    38    6   34 1  
    39    7   35 1  
    40    9   36 1  
    41   11   37 1  
    42   14   38 1  
    43   16   39 1  
    44   17   40 1  
    45   19   41 1  
    46   19   42 1  
    47   20   43 1  
    48   21   44 1  
    49   21   45 1  
    50   22   46 1  
    51   22   47 1  
    52   24   48 1  
    53   24   49 1  
    54   25   50 1  
    55   25   51 1  
    56   26   52 1  
@<TRIPOS>SUBSTRUCTURE
     1 35R         1

