### 
### Created by X-TOOL on Mon Sep 10 21:13:32 2018
### 

@<TRIPOS>MOLECULE
5ut4_ligand
   66    71     1     0     0
SMALL
GAST_HUCK


@<TRIPOS>ATOM
      1 F1         -8.3330   11.7960   24.0670 F         1 DQX        -0.1896
      2 C2         -7.7250   11.6760   22.8450 C.ar      1 DQX         0.1386
      3 C3         -7.2680   10.4110   22.3940 C.ar      1 DQX         0.0701
      4 C4         -6.6380   10.3290   21.1430 C.ar      1 DQX         0.1386
      5 C5         -6.4820   11.4780   20.3350 C.ar      1 DQX        -0.0296
      6 C7         -6.9500   12.7200   20.7780 C.ar      1 DQX        -0.0242
      7 C8         -7.5610   12.8050   22.0440 C.ar      1 DQX        -0.0296
      8 C10        -6.7820   14.0240   19.9380 C.ar      1 DQX         0.0031
      9 C11        -7.8890   14.9000   19.7120 C.ar      1 DQX         0.0693
     10 N12        -9.1450   14.5990   20.1990 N.ar      1 DQX        -0.2812
     11 C13       -10.1660   15.4180   19.9870 C.ar      1 DQX         0.0642
     12 C14        -9.9690   16.6000   19.2340 C.ar      1 DQX         0.0427
     13 N16        -8.7510   16.8950   18.7590 N.ar      1 DQX        -0.2736
     14 C17        -7.7060   16.0630   18.9820 C.ar      1 DQX         0.0689
     15 C18        -6.3860   16.3970   18.4520 C.ar      1 DQX        -0.0354
     16 C20        -5.3040   15.5490   18.6790 C.ar      1 DQX        -0.0546
     17 C22        -5.4920   14.3610   19.4290 C.ar      1 DQX        -0.0480
     18 C24       -11.5990   15.0690   20.5200 C.2       1 DQX         0.0297
     19 C25       -12.7900   15.6150   20.0220 C.2       1 DQX         0.0743
     20 N27       -13.8000   15.0550   20.7020 N.pl3     1 DQX        -0.1939
     21 N28       -13.3090   14.1470   21.6460 N.2       1 DQX        -0.2093
     22 C29       -11.9460   14.1440   21.5420 C.2       1 DQX         0.0123
     23 C31       -15.2220   15.3790   20.4520 C.3       1 DQX         0.0943
     24 C33       -16.1090   14.3080   19.8890 C.3       1 DQX         0.0207
     25 C36       -17.4190   13.9880   20.6250 C.3       1 DQX        -0.0306
     26 N39       -17.8420   15.0760   21.5230 N.4       1 DQX         0.2271
     27 C41       -16.7590   15.3670   22.4950 C.3       1 DQX        -0.0306
     28 C44       -15.5420   15.9660   21.7900 C.3       1 DQX         0.0207
     29 F47        -6.1920    9.1470   20.6980 F         1 DQX        -0.1896
     30 C48        -7.4420    9.1480   23.3040 C.3       1 DQX         0.0048
     31 N51        -8.5510    8.4670   23.1320 N.4       1 DQX         0.2498
     32 C52        -8.7930    8.0490   21.8270 C.3       1 DQX        -0.0065
     33 C55       -10.0660    7.2040   21.6950 C.3       1 DQX         0.0878
     34 O58       -11.1440    7.8160   22.2920 O.3       1 DQX        -0.3693
     35 C59       -10.8900    8.1440   23.6250 C.3       1 DQX         0.0878
     36 C62        -9.6430    9.0170   23.7720 C.3       1 DQX        -0.0065
     37 H1         -5.9980   11.3968   19.3685 H         1 DQX         0.0563
     38 H2         -7.9104   13.7666   22.4024 H         1 DQX         0.0563
     39 H3        -10.8024   17.2660   19.0416 H         1 DQX         0.0930
     40 H4         -6.2480   17.3076   17.8803 H         1 DQX         0.0652
     41 H5         -4.3250   15.7961   18.2847 H         1 DQX         0.0649
     42 H6         -4.6504   13.7042   19.6172 H         1 DQX         0.0656
     43 H7        -12.8783   16.3567   19.2295 H         1 DQX         0.1108
     44 H8        -11.2546   13.5445   22.1323 H         1 DQX         0.0693
     45 H9        -15.2654   16.1865   19.7063 H         1 DQX         0.0687
     46 H10       -15.5190   13.3803   19.8555 H         1 DQX         0.0349
     47 H11       -16.3756   14.6102   18.8655 H         1 DQX         0.0349
     48 H12       -17.2747   13.0748   21.2210 H         1 DQX         0.0815
     49 H13       -18.2100   13.8183   19.8796 H         1 DQX         0.0815
     50 H14       -18.6732   14.7969   22.0202 H         1 DQX         0.2013
     51 H15       -18.0369   15.9027   20.9802 H         1 DQX         0.2013
     52 H16       -16.4625   14.4330   22.9947 H         1 DQX         0.0815
     53 H17       -17.1296   16.0820   23.2442 H         1 DQX         0.0815
     54 H18       -15.7245   17.0421   21.6536 H         1 DQX         0.0349
     55 H19       -14.6675   15.8221   22.4416 H         1 DQX         0.0349
     56 H20        -7.4095    9.4804   24.3521 H         1 DQX         0.0969
     57 H21        -6.5971    8.4717   23.1074 H         1 DQX         0.0969
     58 H22        -8.3854    7.6066   23.6304 H         1 DQX         0.2049
     59 H23        -7.9367    7.4482   21.4868 H         1 DQX         0.0837
     60 H24        -8.8945    8.9380   21.1872 H         1 DQX         0.0837
     61 H25        -9.8984    6.2285   22.1749 H         1 DQX         0.0613
     62 H26       -10.2863    7.0546   20.6277 H         1 DQX         0.0613
     63 H27       -10.7435    7.2162   24.1975 H         1 DQX         0.0613
     64 H28       -11.7556    8.6905   24.0275 H         1 DQX         0.0613
     65 H29        -9.8485   10.0065   23.3377 H         1 DQX         0.0837
     66 H30        -9.4102    9.1271   24.8414 H         1 DQX         0.0837
@<TRIPOS>BOND
     1    1    2 1  
     2    2    3 ar 
     3    2    7 ar 
     4    3    4 ar 
     5    3   30 1  
     6    4    5 ar 
     7    4   29 1  
     8    5    6 ar 
     9    6    7 ar 
    10    6    8 1  
    11    8    9 ar 
    12    8   17 ar 
    13    9   10 ar 
    14    9   14 ar 
    15   10   11 ar 
    16   11   12 ar 
    17   11   18 1  
    18   12   13 ar 
    19   13   14 ar 
    20   14   15 ar 
    21   15   16 ar 
    22   16   17 ar 
    23   18   19 2  
    24   18   22 1  
    25   19   20 1  
    26   20   21 1  
    27   20   23 1  
    28   21   22 2  
    29   23   24 1  
    30   23   28 1  
    31   24   25 1  
    32   25   26 1  
    33   26   27 1  
    34   27   28 1  
    35   30   31 1  
    36   31   32 1  
    37   31   36 1  
    38   32   33 1  
    39   33   34 1  
    40   34   35 1  
    41   35   36 1  
    42    5   37 1  
    43    7   38 1  
    44   12   39 1  
    45   15   40 1  
    46   16   41 1  
    47   17   42 1  
    48   19   43 1  
    49   22   44 1  
    50   23   45 1  
    51   24   46 1  
    52   24   47 1  
    53   25   48 1  
    54   25   49 1  
    55   26   50 1  
    56   26   51 1  
    57   27   52 1  
    58   27   53 1  
    59   28   54 1  
    60   28   55 1  
    61   30   56 1  
    62   30   57 1  
    63   31   58 1  
    64   32   59 1  
    65   32   60 1  
    66   33   61 1  
    67   33   62 1  
    68   35   63 1  
    69   35   64 1  
    70   36   65 1  
    71   36   66 1  
@<TRIPOS>SUBSTRUCTURE
     1 DQX         1

