### 
### Created by X-TOOL on Mon Sep 10 21:13:31 2018
### 

@<TRIPOS>MOLECULE
5ut6_ligand
   36    38     1     0     0
SMALL
GAST_HUCK


@<TRIPOS>ATOM
      1 C10       -28.9820   16.5900   75.7200 C.ar      1 8MY         0.1050
      2 C13       -29.3040   14.4610   76.8000 C.ar      1 8MY         0.1697
      3 C15       -29.5650   12.2770   77.6190 C.2       1 8MY         0.0662
      4 C17       -27.4290   11.6310   77.5570 C.2       1 8MY         0.0363
      5 C22       -34.7110   16.1310   76.9900 C.ar      1 8MY        -0.0262
      6 C02       -36.9200   13.8150   78.9540 C.1       1 8MY         0.0878
      7 C03       -35.6620   14.4450   78.3780 C.ar      1 8MY         0.0830
      8 C04       -34.4180   13.9280   78.6820 C.ar      1 8MY        -0.0363
      9 C05       -33.2900   14.5250   78.1330 C.ar      1 8MY        -0.0262
     10 C06       -33.4650   15.6240   77.2920 C.ar      1 8MY         0.0754
     11 C08       -31.0160   15.9450   76.5310 C.ar      1 8MY         0.1884
     12 C12       -28.4750   15.3600   76.1580 C.ar      1 8MY         0.0274
     13 C16       -28.7020   11.2190   77.8750 C.2       1 8MY        -0.0381
     14 C18       -26.1630   10.7830   77.6700 C.3       1 8MY         0.0821
     15 C23       -35.8200   15.5270   77.5390 C.ar      1 8MY        -0.0363
     16 N01       -37.8710   13.3680   79.3630 N.1       1 8MY        -0.3382
     17 N07       -32.3680   16.3430   76.6900 N.pl3     1 8MY        -0.2407
     18 N09       -30.2480   16.8600   75.9170 N.ar      1 8MY        -0.2486
     19 N11       -28.1050   17.5270   75.0400 N.pl3     1 8MY        -0.3198
     20 N14       -28.8270   13.2800   77.1950 N.pl3     1 8MY        -0.1560
     21 N20       -27.5140   12.8970   77.1320 N.2       1 8MY        -0.2083
     22 N21       -30.5670   14.7970   76.9530 N.ar      1 8MY        -0.2375
     23 O19       -25.5200   10.8700   76.4200 O.3       1 8MY        -0.3831
     24 H1        -30.6467   12.2762   77.7453 H         1 8MY         0.1010
     25 H2        -34.8155   16.9875   76.3338 H         1 8MY         0.0565
     26 H3        -34.3232   13.0704   79.3382 H         1 8MY         0.0689
     27 H4        -32.2984   14.1461   78.3528 H         1 8MY         0.0565
     28 H5        -27.4323   15.1137   75.9932 H         1 8MY         0.0528
     29 H6        -28.9830   10.2393   78.2586 H         1 8MY         0.0339
     30 H7        -26.4227    9.7377   77.8934 H         1 8MY         0.0712
     31 H8        -25.5100   11.1762   78.4630 H         1 8MY         0.0712
     32 H9        -36.8121   15.9005   77.3125 H         1 8MY         0.0689
     33 H10       -32.5997   17.2775   76.3240 H         1 8MY         0.2209
     34 H11       -28.4718   18.4331   74.7155 H         1 8MY         0.1800
     35 H12       -27.1162   17.2854   74.8823 H         1 8MY         0.1800
     36 H13       -26.0974   10.5350   75.7441 H         1 8MY         0.2124
@<TRIPOS>BOND
     1    1   12 ar 
     2   18    1 ar 
     3    1   19 1  
     4   12    2 ar 
     5    2   20 1  
     6    2   22 ar 
     7    3   13 2  
     8   20    3 1  
     9   13    4 1  
    10    4   14 1  
    11    4   21 2  
    12   10    5 ar 
    13    5   15 ar 
    14    7    6 1  
    15    6   16 3  
    16    8    7 ar 
    17   15    7 ar 
    18    9    8 ar 
    19   10    9 ar 
    20   17   10 1  
    21   11   17 1  
    22   11   18 ar 
    23   11   22 ar 
    24   14   23 1  
    25   20   21 1  
    26    3   24 1  
    27    5   25 1  
    28    8   26 1  
    29    9   27 1  
    30   12   28 1  
    31   13   29 1  
    32   14   30 1  
    33   14   31 1  
    34   15   32 1  
    35   17   33 1  
    36   19   34 1  
    37   19   35 1  
    38   23   36 1  
@<TRIPOS>SUBSTRUCTURE
     1 8MY         1

