### 
### Created by X-TOOL on Mon Sep 10 21:13:33 2018
### 

@<TRIPOS>MOLECULE
5uuu_ligand
   55    58     1     0     0
SMALL
GAST_HUCK


@<TRIPOS>ATOM
      1 C1        -55.0280   31.8130  -42.1110 C.ar      1 QRW         0.0478
      2 C2        -55.6260   31.1650  -43.2140 C.ar      1 QRW        -0.0211
      3 C3        -54.9260   31.0430  -44.4070 C.ar      1 QRW         0.0119
      4 N4        -53.7010   31.5330  -44.5140 N.ar      1 QRW        -0.2974
      5 C5        -53.0970   32.1390  -43.5000 C.ar      1 QRW         0.0119
      6 C6        -53.7200   32.2960  -42.2700 C.ar      1 QRW        -0.0211
      7 C7        -55.6880   31.9360  -40.7900 C.2       1 QRW         0.1643
      8 N8        -55.4280   32.8640  -39.9000 N.2       1 QRW        -0.2575
      9 N9        -56.1280   32.6810  -38.8410 N.2       1 QRW        -0.2593
     10 C10       -56.8680   31.6120  -38.9780 C.2       1 QRW         0.1604
     11 N11       -56.6190   31.0950  -40.2090 N.pl3     1 QRW        -0.2116
     12 C12       -57.2420   29.8820  -40.7620 C.3       1 QRW         0.0525
     13 C13       -57.8360   31.0510  -37.9610 C.3       1 QRW         0.1060
     14 N14       -58.1690   32.0470  -36.9460 N.pl3     1 QRW        -0.3033
     15 C15       -58.9480   33.1890  -37.1890 C.ar      1 QRW         0.0456
     16 C16       -59.4150   33.5350  -38.4730 C.ar      1 QRW        -0.0400
     17 C17       -60.1730   34.6890  -38.6660 C.ar      1 QRW        -0.0680
     18 C18       -60.4790   35.5050  -37.5860 C.ar      1 QRW        -0.0553
     19 C19       -60.0200   35.1740  -36.2950 C.ar      1 QRW         0.0383
     20 C20       -59.2620   34.0080  -36.1000 C.ar      1 QRW        -0.0247
     21 C21       -60.3630   36.0290  -35.1390 C.2       1 QRW         0.2045
     22 O22       -61.3450   36.7580  -35.2220 O.2       1 QRW        -0.3845
     23 N23       -59.5950   35.9790  -34.0210 N.am      1 QRW        -0.2693
     24 C24       -59.9030   36.7950  -32.8480 C.3       1 QRW         0.0793
     25 C25       -59.1810   36.2090  -31.6730 C.ar      1 QRW         0.0132
     26 C26       -58.0170   36.8120  -31.2560 C.ar      1 QRW         0.0509
     27 C27       -57.3260   36.2950  -30.1760 C.ar      1 QRW        -0.0379
     28 C28       -57.8020   35.1670  -29.5300 C.ar      1 QRW        -0.0392
     29 C29       -58.9700   34.5560  -29.9570 C.ar      1 QRW        -0.0405
     30 C30       -59.6630   35.0790  -31.0330 C.ar      1 QRW        -0.0273
     31 C31       -57.5270   38.0410  -31.9790 C.3       1 QRW         0.3705
     32 F32       -56.1530   38.1850  -31.7840 F         1 QRW        -0.2263
     33 F33       -57.7970   37.9460  -33.3500 F         1 QRW        -0.2263
     34 F34       -58.2030   39.1510  -31.4640 F         1 QRW        -0.2263
     35 H1        -56.6294   30.7636  -43.1296 H         1 QRW         0.0729
     36 H2        -55.3843   30.5448  -45.2536 H         1 QRW         0.0823
     37 H3        -52.0917   32.5211  -43.6357 H         1 QRW         0.0823
     38 H4        -53.2065   32.7821  -41.4483 H         1 QRW         0.0729
     39 H5        -56.8544   29.7001  -41.7753 H         1 QRW         0.0582
     40 H6        -58.3328   30.0172  -40.8055 H         1 QRW         0.0582
     41 H7        -57.0044   29.0219  -40.1188 H         1 QRW         0.0582
     42 H8        -57.3775   30.1790  -37.4717 H         1 QRW         0.0771
     43 H9        -58.7574   30.7405  -38.4753 H         1 QRW         0.0771
     44 H10       -57.8095   31.9022  -35.9917 H         1 QRW         0.1789
     45 H11       -59.1826   32.8977  -39.3185 H         1 QRW         0.0550
     46 H12       -60.5230   34.9486  -39.6586 H         1 QRW         0.0594
     47 H13       -61.0727   36.3995  -37.7356 H         1 QRW         0.0557
     48 H14       -58.9205   33.7430  -35.1059 H         1 QRW         0.0565
     49 H15       -58.8014   35.3709  -33.9993 H         1 QRW         0.1883
     50 H16       -60.9871   36.7867  -32.6618 H         1 QRW         0.0763
     51 H17       -59.5674   37.8292  -33.0143 H         1 QRW         0.0763
     52 H18       -56.4138   36.7717  -29.8359 H         1 QRW         0.0820
     53 H19       -57.2580   34.7595  -28.6855 H         1 QRW         0.0648
     54 H20       -59.3388   33.6719  -29.4497 H         1 QRW         0.0834
     55 H21       -60.5778   34.6077  -31.3737 H         1 QRW         0.0636
@<TRIPOS>BOND
     1    1    2 ar 
     2    1    6 ar 
     3    1    7 1  
     4    2    3 ar 
     5    3    4 ar 
     6    4    5 ar 
     7    5    6 ar 
     8    7    8 2  
     9    7   11 1  
    10    8    9 1  
    11    9   10 2  
    12   10   11 1  
    13   10   13 1  
    14   11   12 1  
    15   13   14 1  
    16   14   15 1  
    17   15   16 ar 
    18   15   20 ar 
    19   16   17 ar 
    20   17   18 ar 
    21   18   19 ar 
    22   19   20 ar 
    23   19   21 1  
    24   21   22 2  
    25   21   23 am 
    26   23   24 1  
    27   24   25 1  
    28   25   26 ar 
    29   25   30 ar 
    30   26   27 ar 
    31   26   31 1  
    32   27   28 ar 
    33   28   29 ar 
    34   29   30 ar 
    35   31   32 1  
    36   31   33 1  
    37   31   34 1  
    38    2   35 1  
    39    3   36 1  
    40    5   37 1  
    41    6   38 1  
    42   12   39 1  
    43   12   40 1  
    44   12   41 1  
    45   13   42 1  
    46   13   43 1  
    47   14   44 1  
    48   16   45 1  
    49   17   46 1  
    50   18   47 1  
    51   20   48 1  
    52   23   49 1  
    53   24   50 1  
    54   24   51 1  
    55   27   52 1  
    56   28   53 1  
    57   29   54 1  
    58   30   55 1  
@<TRIPOS>SUBSTRUCTURE
     1 QRW         1

