### 
### Created by X-TOOL on Mon Sep 10 21:13:34 2018
### 

@<TRIPOS>MOLECULE
5uv5_ligand
   27    29     1     0     0
SMALL
GAST_HUCK


@<TRIPOS>ATOM
      1 N         -30.0030   77.4630   -2.9660 N.am      1 Y55        -0.0523
      2 C1        -29.4800   76.3590   -3.6360 C.2       1 Y55         0.2582
      3 C10       -30.0980   72.8370   -6.6930 C.2       1 Y55         0.1168
      4 C11       -30.6220   72.2030   -7.7600 C.2       1 Y55        -0.0580
      5 C12       -29.7650   71.2190   -8.0610 C.2       1 Y55        -0.0632
      6 C13       -28.8020   71.3500   -7.1430 C.2       1 Y55         0.0796
      7 C2        -30.3120   75.6820   -4.4830 C.ar      1 Y55         0.0603
      8 C3        -31.6000   76.0520   -4.6490 C.ar      1 Y55        -0.0041
      9 C4        -32.2290   77.2230   -3.9370 C.3       1 Y55         0.0810
     10 C5        -31.2740   77.9920   -3.0580 C.2       1 Y55         0.2459
     11 C6        -29.8510   74.6170   -5.1730 C.ar      1 Y55        -0.0398
     12 C7        -30.6080   73.8990   -6.0270 C.ar      1 Y55         0.0080
     13 C8        -31.8880   74.2930   -6.1690 C.ar      1 Y55        -0.0562
     14 C9        -32.3700   75.3460   -5.4970 C.ar      1 Y55        -0.0535
     15 O1        -28.3220   76.0350   -3.4520 O.2       1 Y55        -0.3777
     16 O2        -31.5610   79.0060   -2.4610 O.2       1 Y55        -0.3830
     17 O3        -29.2380   78.1550   -2.1370 O.3       1 Y55        -0.2426
     18 O4        -29.0330   72.2850   -6.3810 O.3       1 Y55        -0.2636
     19 H1        -31.5524   72.4419   -8.2729 H         1 Y55         0.0361
     20 H2        -29.8357   70.4860   -8.8633 H         1 Y55         0.0350
     21 H3        -27.9240   70.7089   -7.0790 H         1 Y55         0.0985
     22 H4        -33.0495   76.8458   -3.3090 H         1 Y55         0.0680
     23 H5        -32.6331   77.9115   -4.6938 H         1 Y55         0.0680
     24 H6        -28.8169   74.3235   -5.0329 H         1 Y55         0.0637
     25 H7        -32.5408   73.7470   -6.8404 H         1 Y55         0.0620
     26 H8        -33.4046   75.6365   -5.6394 H         1 Y55         0.0569
     27 H9        -28.3744   77.7608   -2.1011 H         1 Y55         0.2561
@<TRIPOS>BOND
     1    2    1 am 
     2    1   10 am 
     3    1   17 1  
     4    7    2 1  
     5    2   15 2  
     6    3    4 2  
     7   12    3 1  
     8    3   18 1  
     9    4    5 1  
    10    6    5 2  
    11   18    6 1  
    12    7    8 ar 
    13   11    7 ar 
    14    8    9 1  
    15    8   14 ar 
    16    9   10 1  
    17   10   16 2  
    18   11   12 ar 
    19   12   13 ar 
    20   13   14 ar 
    21    4   19 1  
    22    5   20 1  
    23    6   21 1  
    24    9   22 1  
    25    9   23 1  
    26   11   24 1  
    27   13   25 1  
    28   14   26 1  
    29   17   27 1  
@<TRIPOS>SUBSTRUCTURE
     1 Y55         1

