### 
### Created by X-TOOL on Mon Sep 10 21:13:34 2018
### 

@<TRIPOS>MOLECULE
5uvc_ligand
   49    52     1     0     0
SMALL
GAST_HUCK


@<TRIPOS>ATOM
      1 N3          8.2710   44.0150    0.9630 N.am      1 8PV        -0.2749
      2 C4          7.1850   44.9930    1.1890 C.3       1 8PV         0.0640
      3 C5          6.2660   45.0690   -0.0200 C.ar      1 8PV        -0.0210
      4 C6          6.1510   46.2670   -0.7380 C.ar      1 8PV        -0.0584
      5 C7          5.3070   46.3440   -1.8490 C.ar      1 8PV        -0.0685
      6 C8          4.5730   45.2270   -2.2490 C.ar      1 8PV        -0.0687
      7 C10         5.5230   43.9500   -0.4250 C.ar      1 8PV        -0.0584
      8 C13        12.8020   42.1750    1.3270 C.ar      1 8PV        -0.0680
      9 C15        11.0670   40.8130    0.3210 C.ar      1 8PV         0.0451
     10 C17        11.4920   38.5700   -0.8180 C.3       1 8PV         0.0765
     11 C20        12.6280   36.0430    1.5190 C.2       1 8PV         0.1684
     12 C24        13.5140   34.9490    1.9790 C.ar      1 8PV         0.0538
     13 C26        15.3720   33.4630    1.6630 C.ar      1 8PV         0.0141
     14 C28        14.0860   33.2710    3.6080 C.ar      1 8PV         0.0141
     15 O1          9.7140   44.9010    2.4410 O.2       1 8PV        -0.3845
     16 C2          9.4720   44.0330    1.6140 C.2       1 8PV         0.2037
     17 C9          4.6810   44.0300   -1.5390 C.ar      1 8PV        -0.0685
     18 C11        10.4990   42.9840    1.2970 C.ar      1 8PV         0.0383
     19 C12        11.8610   43.1570    1.6380 C.ar      1 8PV        -0.0553
     20 C14        12.4160   41.0100    0.6720 C.ar      1 8PV        -0.0400
     21 N16        10.6140   39.6560   -0.3430 N.pl3     1 8PV        -0.3093
     22 C18        11.7460   37.5950    0.3020 C.2       1 8PV         0.0989
     23 N19        12.7180   36.7270    0.3670 N.2       1 8PV        -0.2749
     24 N21        11.5890   36.4760    2.1860 N.pl3     1 8PV        -0.1964
     25 N22        11.0080   37.4820    1.4180 N.2       1 8PV        -0.1982
     26 C25        14.5930   34.5050    1.1890 C.ar      1 8PV        -0.0182
     27 N27        15.0990   32.8920    2.8370 N.ar      1 8PV        -0.2949
     28 C29        13.2580   34.3050    3.2100 C.ar      1 8PV        -0.0182
     29 C30        10.1200   41.7970    0.6360 C.ar      1 8PV        -0.0247
     30 H1          8.1160   43.2927    0.2890 H         1 8PV         0.1872
     31 H2          7.6249   45.9848    1.3704 H         1 8PV         0.0683
     32 H3          6.5997   44.6851    2.0680 H         1 8PV         0.0683
     33 H4          6.7191   47.1374   -0.4303 H         1 8PV         0.0557
     34 H5          5.2224   47.2731   -2.4010 H         1 8PV         0.0599
     35 H6          3.9188   45.2887   -3.1112 H         1 8PV         0.0559
     36 H7          5.6017   43.0205    0.1272 H         1 8PV         0.0557
     37 H8         13.8415   42.3209    1.5977 H         1 8PV         0.0594
     38 H9         12.4484   38.9949   -1.1567 H         1 8PV         0.0691
     39 H10        11.0063   38.0468   -1.6549 H         1 8PV         0.0691
     40 H11        16.2108   33.1084    1.0750 H         1 8PV         0.0829
     41 H12        13.9077   32.7685    4.5518 H         1 8PV         0.0829
     42 H13         4.1119   43.1618   -1.8512 H         1 8PV         0.0599
     43 H14        12.1766   44.0612    2.1458 H         1 8PV         0.0557
     44 H15        13.1543   40.2535    0.4318 H         1 8PV         0.0550
     45 H16         9.6016   39.5621   -0.5079 H         1 8PV         0.1781
     46 H17        11.2634   36.1378    3.1028 H         1 8PV         0.2555
     47 H18        14.8081   34.9682    0.2328 H         1 8PV         0.0746
     48 H19        12.4266   34.6160    3.8322 H         1 8PV         0.0746
     49 H20         9.0810   41.6436    0.3677 H         1 8PV         0.0565
@<TRIPOS>BOND
     1    1    2 1  
     2   16    1 am 
     3    2    3 1  
     4    3    4 ar 
     5    3    7 ar 
     6    4    5 ar 
     7    5    6 ar 
     8   17    6 ar 
     9    7   17 ar 
    10    8   19 ar 
    11   20    8 ar 
    12    9   20 ar 
    13   21    9 1  
    14    9   29 ar 
    15   10   21 1  
    16   22   10 1  
    17   11   12 1  
    18   23   11 2  
    19   11   24 1  
    20   12   26 ar 
    21   12   28 ar 
    22   26   13 ar 
    23   13   27 ar 
    24   14   27 ar 
    25   28   14 ar 
    26   16   15 2  
    27   18   16 1  
    28   18   19 ar 
    29   29   18 ar 
    30   22   23 1  
    31   22   25 2  
    32   24   25 1  
    33    1   30 1  
    34    2   31 1  
    35    2   32 1  
    36    4   33 1  
    37    5   34 1  
    38    6   35 1  
    39    7   36 1  
    40    8   37 1  
    41   10   38 1  
    42   10   39 1  
    43   13   40 1  
    44   14   41 1  
    45   17   42 1  
    46   19   43 1  
    47   20   44 1  
    48   21   45 1  
    49   24   46 1  
    50   26   47 1  
    51   28   48 1  
    52   29   49 1  
@<TRIPOS>SUBSTRUCTURE
     1 8PV         1

