### 
### Created by X-TOOL on Mon Sep 10 21:13:32 2018
### 

@<TRIPOS>MOLECULE
5uw5_ligand
   78    78     1     0     0
SMALL
GAST_HUCK


@<TRIPOS>ATOM
      1 N          86.7770    7.5970  158.2720 N.4       1 ASN         0.2396
      2 CA         86.2050    6.3350  157.7650 C.3       1 ASN         0.0818
      3 C          85.7450    5.3990  158.8860 C.2       1 ASN         0.2291
      4 O          85.9680    4.1950  158.8370 O.2       1 ASN        -0.3905
      5 CB         87.2170    5.6180  156.8440 C.3       1 ASN         0.0972
      6 CG         86.6220    4.4080  156.1020 C.2       1 ASN         0.1813
      7 OD1        85.4350    4.3710  155.7740 O.2       1 ASN        -0.3969
      8 ND2        87.4740    3.4150  155.8170 N.am      1 ASN        -0.3006
      9 N          85.0420    5.9510  159.8650 N.am      1 ALA        -0.2612
     10 CA         84.5340    5.1580  160.9930 C.3       1 ALA         0.1283
     11 C          83.5590    4.1060  160.5020 C.2       1 ALA         0.2037
     12 O          82.8650    4.3030  159.5230 O.2       1 ALA        -0.3944
     13 CB         83.8550    6.0370  162.0300 C.3       1 ALA        -0.0244
     14 N          83.5670    2.9640  161.1670 N.am      1 SER        -0.2616
     15 CA         82.7980    1.7990  160.7390 C.3       1 SER         0.1539
     16 C          81.3030    2.0190  160.8820 C.2       1 SER         0.2062
     17 O          80.5070    1.4440  160.1480 O.2       1 SER        -0.3943
     18 CB         83.2150    0.6000  161.5800 C.3       1 SER         0.0843
     19 OG         82.8470    0.8020  162.9400 O.3       1 SER        -0.3903
     20 N          80.9250    2.8350  161.8570 N.am      1 ALA        -0.2639
     21 CA         79.5160    2.9770  162.2310 C.3       1 ALA         0.1284
     22 C          79.3120    4.1850  163.1480 C.2       1 ALA         0.2061
     23 O          80.1210    4.4220  164.0420 O.2       1 ALA        -0.3942
     24 CB         79.0400    1.7050  162.9250 C.3       1 ALA        -0.0244
     25 N          78.2320    4.9500  162.9410 N.am      1 PRO        -0.2498
     26 CA         77.9450    6.0940  163.7880 C.3       1 PRO         0.1337
     27 C          77.3460    5.6670  165.1210 C.2       1 PRO         0.2036
     28 O          76.1630    5.8030  165.3540 O.2       1 PRO        -0.3944
     29 CB         76.9160    6.8580  162.9800 C.3       1 PRO        -0.0104
     30 CG         76.1490    5.7890  162.2980 C.3       1 PRO        -0.0281
     31 CD         77.1730    4.7400  161.9440 C.3       1 PRO         0.0369
     32 N          78.1900    5.1490  165.9890 N.am      1 VAL        -0.2692
     33 CA         77.7920    4.7900  167.3220 C.3       1 VAL         0.0967
     34 C          77.6340    6.0570  168.1650 C.2       1 VAL         0.0603
     35 O          76.8240    6.0690  169.0880 O.co2     1 VAL        -0.5666
     36 CB         78.8500    3.8700  167.9570 C.3       1 VAL        -0.0118
     37 CG1        78.4240    3.4300  169.3520 C.3       1 VAL        -0.0590
     38 CG2        79.0730    2.6510  167.0820 C.3       1 VAL        -0.0590
     39 OXT        78.3200    7.0420  167.9060 O.co2     1 VAL        -0.5666
     40 H1         87.0620    8.1727  157.4952 H         1 ASN         0.2017
     41 H2         87.5766    7.3947  158.8514 H         1 ASN         0.2017
     42 H3         86.0832    8.0859  158.8157 H         1 ASN         0.2017
     43 H4         85.3202    6.5905  157.1635 H         1 ASN         0.1125
     44 H5         88.0604    5.2694  157.4581 H         1 ASN         0.0585
     45 H6         87.5805    6.3397  156.0976 H         1 ASN         0.0585
     46 H7         87.1497    2.6005  155.3359 H         1 ASN         0.1814
     47 H8         88.4346    3.4879  156.0852 H         1 ASN         0.1814
     48 H9         84.8525    6.9324  159.8351 H         1 ALA         0.1884
     49 H10        85.3862    4.6522  161.4704 H         1 ALA         0.0797
     50 H11        83.4882    5.4116  162.8572 H         1 ALA         0.0277
     51 H12        83.0086    6.5645  161.5660 H         1 ALA         0.0277
     52 H13        84.5766    6.7712  162.4175 H         1 ALA         0.0277
     53 H14        84.1217    2.8950  161.9962 H         1 SER         0.1884
     54 H15        83.0233    1.5963  159.6816 H         1 SER         0.0823
     55 H16        84.3054    0.4713  161.5139 H         1 SER         0.0606
     56 H17        82.7154   -0.3028  161.1987 H         1 SER         0.0606
     57 H18        83.1121    0.0483  163.4539 H         1 SER         0.2097
     58 H19        81.6170    3.3648  162.3474 H         1 ALA         0.1883
     59 H20        78.9223    3.1265  161.3172 H         1 ALA         0.0797
     60 H21        77.9818    1.8141  163.2048 H         1 ALA         0.0277
     61 H22        79.6425    1.5331  163.8291 H         1 ALA         0.0277
     62 H23        79.1523    0.8504  162.2416 H         1 ALA         0.0277
     63 H24        78.8489    6.6960  163.9624 H         1 PRO         0.0802
     64 H25        77.4027    7.5203  162.2489 H         1 PRO         0.0313
     65 H26        76.2634    7.4528  163.6360 H         1 PRO         0.0313
     66 H27        75.6653    6.1790  161.3903 H         1 PRO         0.0287
     67 H28        75.3849    5.3721  162.9705 H         1 PRO         0.0287
     68 H29        76.7470    3.7294  162.0287 H         1 PRO         0.0524
     69 H30        77.5563    4.8921  160.9242 H         1 PRO         0.0524
     70 H31        79.1391    5.0006  165.7112 H         1 VAL         0.1875
     71 H32        76.8296    4.2588  167.2818 H         1 VAL         0.0729
     72 H33        79.7953    4.4267  168.0374 H         1 VAL         0.0336
     73 H34        79.1963    2.7751  169.7817 H         1 VAL         0.0234
     74 H35        77.4722    2.8821  169.2890 H         1 VAL         0.0234
     75 H36        78.2960    4.3150  169.9925 H         1 VAL         0.0234
     76 H37        79.3803    2.9730  166.0761 H         1 VAL         0.0234
     77 H38        78.1393    2.0735  167.0128 H         1 VAL         0.0234
     78 H39        79.8611    2.0226  167.5225 H         1 VAL         0.0234
@<TRIPOS>BOND
     1    1    2 1  
     2    2    3 1  
     3    2    5 1  
     4    3    4 2  
     5    3    9 am 
     6    5    6 1  
     7    6    7 2  
     8    6    8 am 
     9    9   10 1  
    10   10   11 1  
    11   10   13 1  
    12   11   12 2  
    13   11   14 am 
    14   14   15 1  
    15   15   16 1  
    16   15   18 1  
    17   16   17 2  
    18   16   20 am 
    19   18   19 1  
    20   20   21 1  
    21   21   22 1  
    22   21   24 1  
    23   22   23 2  
    24   22   25 am 
    25   25   26 1  
    26   25   31 1  
    27   26   27 1  
    28   26   29 1  
    29   27   28 2  
    30   27   32 am 
    31   29   30 1  
    32   30   31 1  
    33   32   33 1  
    34   33   34 1  
    35   33   36 1  
    36   34   35 ar 
    37   34   39 ar 
    38   36   37 1  
    39   36   38 1  
    40    1   40 1  
    41    1   41 1  
    42    1   42 1  
    43    2   43 1  
    44    5   44 1  
    45    5   45 1  
    46    8   46 1  
    47    8   47 1  
    48    9   48 1  
    49   10   49 1  
    50   13   50 1  
    51   13   51 1  
    52   13   52 1  
    53   14   53 1  
    54   15   54 1  
    55   18   55 1  
    56   18   56 1  
    57   19   57 1  
    58   20   58 1  
    59   21   59 1  
    60   24   60 1  
    61   24   61 1  
    62   24   62 1  
    63   26   63 1  
    64   29   64 1  
    65   29   65 1  
    66   30   66 1  
    67   30   67 1  
    68   31   68 1  
    69   31   69 1  
    70   32   70 1  
    71   33   71 1  
    72   36   72 1  
    73   37   73 1  
    74   37   74 1  
    75   37   75 1  
    76   38   76 1  
    77   38   77 1  
    78   38   78 1  
@<TRIPOS>SUBSTRUCTURE
     1 ASN         1

