### 
### Created by X-TOOL on Mon Sep 10 21:13:32 2018
### 

@<TRIPOS>MOLECULE
5uwf_ligand
   52    57     1     0     0
SMALL
GAST_HUCK


@<TRIPOS>ATOM
      1 N1         54.2220  110.8860   33.8420 N.am      1 8Q7        -0.1547
      2 C4         53.0000  108.4360   34.2870 C.2       1 8Q7         0.1593
      3 C6         53.8710  110.1390   32.7540 C.2       1 8Q7         0.3954
      4 C8         52.3440  107.1060   32.8120 C.2       1 8Q7         0.0386
      5 C13        53.7940  110.1410   38.9600 C.3       1 8Q7         0.0625
      6 C15        52.3310  108.2100   38.9080 C.3       1 8Q7         0.0395
      7 C20        56.8650  112.5730   35.1470 C.ar      1 8Q7        -0.0661
      8 C21        58.0930  112.2520   35.6780 C.ar      1 8Q7        -0.0395
      9 C22        58.7430  111.1080   35.2700 C.ar      1 8Q7         0.0837
     10 C24        56.9470  110.6190   33.8040 C.ar      1 8Q7        -0.0661
     11 C26        60.1300  109.4240   35.6150 C.3       1 8Q7         0.0579
     12 C28        55.5790  108.8950   40.5850 C.3       1 8Q7         0.1176
     13 C23        58.1770  110.2750   34.3300 C.ar      1 8Q7        -0.0395
     14 C3         53.3690  109.1980   35.3940 C.2       1 8Q7         0.0401
     15 C12        53.2430  108.9820   36.7870 C.2       1 8Q7        -0.0646
     16 C19        56.2770  111.7660   34.1990 C.ar      1 8Q7        -0.0236
     17 C11        53.7670  110.0460   37.4950 C.2       1 8Q7         0.0159
     18 C2         53.9730  110.4030   35.1050 C.2       1 8Q7         0.1572
     19 C27        54.4290  108.0990   40.1630 C.2       1 8Q7         0.1890
     20 C16        52.6620  107.8320   37.4860 C.3       1 8Q7        -0.0209
     21 C31        56.7220  108.2550   41.3310 C.3       1 8Q7         0.0386
     22 C30        55.7520  109.1480   42.0440 C.3       1 8Q7         0.2705
     23 C18        54.9230  112.1180   33.6320 C.3       1 8Q7         0.0960
     24 N7         52.4130  107.2680   34.1700 N.2       1 8Q7        -0.3190
     25 N9         52.8540  108.1040   32.0830 N.2       1 8Q7        -0.1795
     26 N5         53.2640  108.9400   33.0480 N.am      1 8Q7        -0.0733
     27 N14        53.4630  108.8550   39.5200 N.am      1 8Q7        -0.2642
     28 O17        54.0240  110.4200   31.5760 O.2       1 8Q7        -0.3648
     29 O29        54.4090  106.8990   40.3960 O.2       1 8Q7        -0.3962
     30 O25        59.9730  110.8230   35.8320 O.3       1 8Q7        -0.3257
     31 F32        54.8420  108.5930   42.9410 F         1 8Q7        -0.2025
     32 F33        56.0970  110.4360   42.4510 F         1 8Q7        -0.2025
     33 S10        54.3970  111.3040   36.5060 S.3       1 8Q7        -0.0115
     34 H1         51.9023  106.2215   32.3554 H         1 8Q7         0.0777
     35 H2         53.0600  110.8888   39.2946 H         1 8Q7         0.0637
     36 H3         54.7993  110.4399   39.2917 H         1 8Q7         0.0637
     37 H4         52.0766  107.3034   39.4766 H         1 8Q7         0.0538
     38 H5         51.4730  108.8983   38.9121 H         1 8Q7         0.0538
     39 H6         56.3552  113.4704   35.4784 H         1 8Q7         0.0531
     40 H7         58.5493  112.8997   36.4178 H         1 8Q7         0.0525
     41 H8         56.4928  109.9734   33.0611 H         1 8Q7         0.0531
     42 H9         61.0928  109.0940   36.0323 H         1 8Q7         0.0575
     43 H10        60.1077  109.2156   34.5352 H         1 8Q7         0.0575
     44 H11        59.3108  108.8819   36.1100 H         1 8Q7         0.0575
     45 H12        55.7787  109.6866   39.8478 H         1 8Q7         0.0599
     46 H13        58.6844  109.3718   34.0110 H         1 8Q7         0.0525
     47 H14        51.7436  107.5168   36.9691 H         1 8Q7         0.0366
     48 H15        53.3849  107.0029   37.4877 H         1 8Q7         0.0366
     49 H16        57.7539  108.5920   41.1535 H         1 8Q7         0.0353
     50 H17        56.7178  107.1718   41.5226 H         1 8Q7         0.0353
     51 H18        54.4566  112.9491   34.1813 H         1 8Q7         0.0759
     52 H19        54.9843  112.3731   32.5638 H         1 8Q7         0.0759
@<TRIPOS>BOND
     1    1    3 am 
     2   18    1 1  
     3    1   23 1  
     4   14    2 1  
     5    2   24 2  
     6    2   26 1  
     7   26    3 am 
     8    3   28 2  
     9   24    4 1  
    10    4   25 2  
    11    5   17 1  
    12   27    5 1  
    13    6   20 1  
    14   27    6 1  
    15    7    8 ar 
    16   16    7 ar 
    17    8    9 ar 
    18   13    9 ar 
    19    9   30 1  
    20   10   13 ar 
    21   16   10 ar 
    22   30   11 1  
    23   19   12 1  
    24   12   21 1  
    25   12   22 1  
    26   15   14 1  
    27   14   18 2  
    28   17   15 2  
    29   20   15 1  
    30   23   16 1  
    31   17   33 1  
    32   33   18 1  
    33   19   27 am 
    34   19   29 2  
    35   21   22 1  
    36   22   31 1  
    37   22   32 1  
    38   25   26 1  
    39    4   34 1  
    40    5   35 1  
    41    5   36 1  
    42    6   37 1  
    43    6   38 1  
    44    7   39 1  
    45    8   40 1  
    46   10   41 1  
    47   11   42 1  
    48   11   43 1  
    49   11   44 1  
    50   12   45 1  
    51   13   46 1  
    52   20   47 1  
    53   20   48 1  
    54   21   49 1  
    55   21   50 1  
    56   23   51 1  
    57   23   52 1  
@<TRIPOS>SUBSTRUCTURE
     1 8Q7         1

