### 
### Created by X-TOOL on Mon Sep 10 21:13:30 2018
### 

@<TRIPOS>MOLECULE
5uwk_ligand
   61    64     1     0     0
SMALL
GAST_HUCK


@<TRIPOS>ATOM
      1 C12        -7.1220    3.4910   17.0070 C.ar      1 8OM        -0.0538
      2 C13        -7.7660    3.7930   15.7990 C.ar      1 8OM        -0.0356
      3 C8         -4.5590    0.7740   22.5210 C.3       1 8OM         0.0529
      4 C7         -6.2020    0.5970   19.1300 C.ar      1 8OM        -0.0600
      5 C6         -5.5420    0.2350   20.2960 C.ar      1 8OM        -0.0579
      6 C4         -5.6560    2.5140   21.0650 C.ar      1 8OM        -0.0579
      7 C2         -6.6170    1.9200   18.9140 C.ar      1 8OM        -0.0242
      8 C1         -5.9070    2.6750   13.2980 C.2       1 8OM         0.0566
      9 O2         -5.4270    1.6210   13.7910 O.co2     1 8OM        -0.5670
     10 O1         -5.3950    3.7930   13.5000 O.co2     1 8OM        -0.5670
     11 C21        -7.1320    2.5810   12.4100 C.3       1 8OM         0.0921
     12 C22        -6.6810    2.7250   10.9490 C.3       1 8OM        -0.0152
     13 C17        -5.5700    1.7250   10.6470 C.3       1 8OM        -0.0594
     14 C9         -7.7910    2.4930    9.9270 C.3       1 8OM        -0.0594
     15 N18        -8.1360    3.6330   12.7210 N.am      1 8OM        -0.2313
     16 S17        -9.3150    3.2110   13.7560 S.o2      1 8OM         0.0695
     17 O19       -10.0490    2.0490   13.3010 O.2       1 8OM        -0.1503
     18 O20       -10.1990    4.3450   13.8850 O.2       1 8OM        -0.1503
     19 C14        -8.6050    2.8700   15.1730 C.ar      1 8OM         0.1073
     20 C15        -8.7900    1.6320   15.7960 C.ar      1 8OM        -0.0356
     21 C16        -8.1630    1.3350   17.0050 C.ar      1 8OM        -0.0538
     22 C11        -7.3130    2.2610   17.6290 C.ar      1 8OM        -0.0220
     23 C5         -5.2640    1.1930   21.2600 C.ar      1 8OM        -0.0287
     24 C3         -6.3280    2.8730   19.8910 C.ar      1 8OM        -0.0600
     25 S10        -5.7160    0.6100   23.8480 S.3       1 8OM        -0.0099
     26 C28        -4.8100    0.1270   25.2140 C.2       1 8OM         0.2120
     27 N31        -3.4990   -0.1950   25.0560 N.2       1 8OM        -0.2949
     28 C34        -2.7640   -0.5730   26.1250 C.2       1 8OM        -0.0095
     29 C37        -1.3100   -0.9660   26.1840 C.3       1 8OM        -0.0140
     30 C36        -1.0500   -1.1460   27.6880 C.3       1 8OM        -0.0382
     31 C35        -2.3700   -1.0470   28.4790 C.3       1 8OM        -0.0281
     32 C33        -3.3620   -0.6210   27.4410 C.2       1 8OM         0.0150
     33 C32        -4.7830   -0.2620   27.5730 C.2       1 8OM         0.2019
     34 N29        -5.4210    0.0870   26.4300 N.am      1 8OM        -0.1914
     35 O38        -5.3730   -0.2760   28.6760 O.2       1 8OM        -0.4174
     36 H1         -6.4669    4.2249   17.4623 H         1 8OM         0.0615
     37 H2         -7.6091    4.7633   15.3418 H         1 8OM         0.0635
     38 H3         -3.8085    1.5332   22.7862 H         1 8OM         0.0580
     39 H4         -4.0601   -0.1920   22.3536 H         1 8OM         0.0580
     40 H5         -6.4001   -0.1543   18.3741 H         1 8OM         0.0609
     41 H6         -5.2440   -0.7953   20.4533 H         1 8OM         0.0561
     42 H7         -5.4416    3.2621   21.8196 H         1 8OM         0.0561
     43 H8         -7.5996    1.5957   12.5532 H         1 8OM         0.0682
     44 H9         -6.2948    3.7462   10.8147 H         1 8OM         0.0332
     45 H10        -5.2529    1.8346    9.5994 H         1 8OM         0.0234
     46 H11        -5.9416    0.7030   10.8126 H         1 8OM         0.0234
     47 H12        -4.7141    1.9161   11.3110 H         1 8OM         0.0234
     48 H13        -8.6140    3.1987   10.1130 H         1 8OM         0.0234
     49 H14        -8.1641    1.4623   10.0185 H         1 8OM         0.0234
     50 H15        -7.3948    2.6509    8.9131 H         1 8OM         0.0234
     51 H16        -8.0882    4.5464   12.3168 H         1 8OM         0.1697
     52 H17        -9.4311    0.8915   15.3315 H         1 8OM         0.0635
     53 H18        -8.3350    0.3717   17.4714 H         1 8OM         0.0615
     54 H19        -6.6275    3.9037   19.7391 H         1 8OM         0.0609
     55 H20        -0.6710   -0.1741   25.7662 H         1 8OM         0.0443
     56 H21        -1.1337   -1.9051   25.6390 H         1 8OM         0.0443
     57 H22        -0.3613   -0.3607   28.0330 H         1 8OM         0.0303
     58 H23        -0.5970   -2.1332   27.8616 H         1 8OM         0.0303
     59 H24        -2.2934   -0.2986   29.2815 H         1 8OM         0.0347
     60 H25        -2.6448   -2.0207   28.9106 H         1 8OM         0.0347
     61 H26        -6.3902    0.3275   26.4821 H         1 8OM         0.2558
@<TRIPOS>BOND
     1    2    1 ar 
     2    1   22 ar 
     3   19    2 ar 
     4   23    3 1  
     5    3   25 1  
     6    4    5 ar 
     7    7    4 ar 
     8    5   23 ar 
     9    6   23 ar 
    10   24    6 ar 
    11   22    7 1  
    12    7   24 ar 
    13    8    9 ar 
    14    8   10 ar 
    15   11    8 1  
    16   11   12 1  
    17   15   11 1  
    18   12   13 1  
    19   12   14 1  
    20   16   15 am 
    21   16   17 2  
    22   16   18 2  
    23   16   19 1  
    24   19   20 ar 
    25   20   21 ar 
    26   21   22 ar 
    27   25   26 1  
    28   26   27 2  
    29   26   34 1  
    30   27   28 1  
    31   28   29 1  
    32   28   32 2  
    33   29   30 1  
    34   30   31 1  
    35   31   32 1  
    36   32   33 1  
    37   33   34 am 
    38   33   35 2  
    39    1   36 1  
    40    2   37 1  
    41    3   38 1  
    42    3   39 1  
    43    4   40 1  
    44    5   41 1  
    45    6   42 1  
    46   11   43 1  
    47   12   44 1  
    48   13   45 1  
    49   13   46 1  
    50   13   47 1  
    51   14   48 1  
    52   14   49 1  
    53   14   50 1  
    54   15   51 1  
    55   20   52 1  
    56   21   53 1  
    57   24   54 1  
    58   29   55 1  
    59   29   56 1  
    60   30   57 1  
    61   30   58 1  
    62   31   59 1  
    63   31   60 1  
    64   34   61 1  
@<TRIPOS>SUBSTRUCTURE
     1 8OM         1

