### 
### Created by X-TOOL on Mon Sep 10 21:13:33 2018
### 

@<TRIPOS>MOLECULE
5uwl_ligand
   62    65     1     0     0
SMALL
GAST_HUCK


@<TRIPOS>ATOM
      1 C1         53.9750  -29.1320   14.1730 C.3       1 8OJ         0.0196
      2 N1         54.7320  -28.0040   14.7130 N.am      1 8OJ        -0.2881
      3 C2         54.1720  -27.0540   15.4760 C.2       1 8OJ         0.2015
      4 O3         52.9970  -27.1060   15.8610 O.2       1 8OJ        -0.3945
      5 C4         55.0290  -25.8530   15.8010 C.3       1 8OJ         0.1322
      6 C5         55.3280  -25.8170   17.2770 C.3       1 8OJ        -0.0064
      7 C6         56.1400  -24.5660   17.5760 C.3       1 8OJ        -0.0584
      8 C7         56.0930  -27.0590   17.6790 C.3       1 8OJ        -0.0584
      9 N8         54.3440  -24.6490   15.3840 N.am      1 8OJ        -0.2647
     10 C9         54.6620  -23.9290   14.2880 C.2       1 8OJ         0.2317
     11 O10        55.7190  -23.9820   13.6870 O.2       1 8OJ        -0.3892
     12 C11        53.5810  -23.0870   13.7250 C.2       1 8OJ         0.1850
     13 C12        53.4520  -22.1260   12.7510 C.2       1 8OJ        -0.0402
     14 C13        52.0980  -21.7910   12.7430 C.2       1 8OJ        -0.0471
     15 C14        51.4620  -22.5730   13.7030 C.2       1 8OJ         0.1236
     16 O15        52.3790  -23.3880   14.2760 O.3       1 8OJ        -0.2455
     17 C16        50.0400  -22.6310   14.0860 C.ar      1 8OJ         0.0082
     18 C17        49.7050  -22.8520   15.4220 C.ar      1 8OJ        -0.0584
     19 C18        48.3730  -22.9330   15.7740 C.ar      1 8OJ        -0.0590
     20 C19        47.4090  -22.7920   14.7900 C.ar      1 8OJ        -0.0296
     21 C20        47.7510  -22.5700   13.4600 C.ar      1 8OJ        -0.0590
     22 C21        49.0760  -22.4960   13.1090 C.ar      1 8OJ        -0.0584
     23 C22        45.9450  -22.8810   15.1420 C.3       1 8OJ         0.0513
     24 S23        45.3890  -24.5020   14.7160 S.3       1 8OJ        -0.0303
     25 C24        43.7100  -24.4750   15.0500 C.2       1 8OJ         0.1451
     26 N25        43.1490  -23.3500   15.5690 N.2       1 8OJ        -0.2494
     27 C26        41.8140  -23.3290   15.7740 C.2       1 8OJ         0.0723
     28 C27        41.0430  -24.4230   15.4900 C.3       1 8OJ         0.1115
     29 C28        41.6250  -25.5610   14.9800 C.2       1 8OJ         0.1742
     30 N29        42.9210  -25.5440   14.7790 N.2       1 8OJ        -0.2585
     31 C36        39.5930  -24.2030   15.8160 C.3       1 8OJ        -0.0090
     32 C37        39.5530  -22.7860   16.4020 C.3       1 8OJ        -0.0254
     33 C38        40.9820  -22.2020   16.3380 C.3       1 8OJ         0.0267
     34 O39        41.0120  -26.6020   14.6890 O.2       1 8OJ        -0.3928
     35 H1         54.6450  -29.7740   13.5823 H         1 8OJ         0.0484
     36 H2         53.1659  -28.7562   13.5295 H         1 8OJ         0.0484
     37 H3         53.5446  -29.7146   15.0008 H         1 8OJ         0.0484
     38 H4         55.7079  -27.9381   14.5048 H         1 8OJ         0.1848
     39 H5         55.9782  -25.9304   15.2505 H         1 8OJ         0.0801
     40 H6         54.3840  -25.7802   17.8404 H         1 8OJ         0.0343
     41 H7         56.3670  -24.5246   18.6515 H         1 8OJ         0.0234
     42 H8         55.5611  -23.6758   17.2890 H         1 8OJ         0.0234
     43 H9         57.0791  -24.5929   17.0038 H         1 8OJ         0.0234
     44 H10        55.4888  -27.9504   17.4546 H         1 8OJ         0.0234
     45 H11        56.3085  -27.0241   18.7571 H         1 8OJ         0.0234
     46 H12        57.0378  -27.1055   17.1175 H         1 8OJ         0.0234
     47 H13        53.5822  -24.3282   15.9468 H         1 8OJ         0.1869
     48 H14        54.2386  -21.7142   12.1204 H         1 8OJ         0.0450
     49 H15        51.6235  -21.0504   12.1008 H         1 8OJ         0.0390
     50 H16        50.4796  -22.9586   16.1728 H         1 8OJ         0.0599
     51 H17        48.0858  -23.1044   16.8051 H         1 8OJ         0.0558
     52 H18        46.9786  -22.4565   12.7080 H         1 8OJ         0.0558
     53 H19        49.3613  -22.3333   12.0759 H         1 8OJ         0.0599
     54 H20        45.3768  -22.1289   14.5750 H         1 8OJ         0.0580
     55 H21        45.8075  -22.7088   16.2197 H         1 8OJ         0.0580
     56 H22        40.8692  -24.0782   14.4600 H         1 8OJ         0.0868
     57 H23        39.2420  -24.9404   16.5529 H         1 8OJ         0.0338
     58 H24        38.9744  -24.2681   14.9088 H         1 8OJ         0.0338
     59 H25        39.2117  -22.8238   17.4470 H         1 8OJ         0.0310
     60 H26        38.8667  -22.1584   15.8146 H         1 8OJ         0.0310
     61 H27        41.0156  -21.3230   15.6775 H         1 8OJ         0.0598
     62 H28        41.3343  -21.9204   17.3413 H         1 8OJ         0.0598
@<TRIPOS>BOND
     1    1    2 1  
     2    2    3 am 
     3    3    4 2  
     4    3    5 1  
     5    5    6 1  
     6    5    9 1  
     7    6    7 1  
     8    6    8 1  
     9    9   10 am 
    10   10   11 2  
    11   10   12 1  
    12   12   13 2  
    13   12   16 1  
    14   13   14 1  
    15   14   15 2  
    16   15   16 1  
    17   15   17 1  
    18   17   18 ar 
    19   17   22 ar 
    20   18   19 ar 
    21   19   20 ar 
    22   20   21 ar 
    23   20   23 1  
    24   21   22 ar 
    25   23   24 1  
    26   24   25 1  
    27   25   26 1  
    28   25   30 2  
    29   26   27 2  
    30   27   28 1  
    31   27   33 1  
    32   28   29 1  
    33   28   31 1  
    34   29   30 1  
    35   29   34 2  
    36   31   32 1  
    37   32   33 1  
    38    1   35 1  
    39    1   36 1  
    40    1   37 1  
    41    2   38 1  
    42    5   39 1  
    43    6   40 1  
    44    7   41 1  
    45    7   42 1  
    46    7   43 1  
    47    8   44 1  
    48    8   45 1  
    49    8   46 1  
    50    9   47 1  
    51   13   48 1  
    52   14   49 1  
    53   18   50 1  
    54   19   51 1  
    55   21   52 1  
    56   22   53 1  
    57   23   54 1  
    58   23   55 1  
    59   28   56 1  
    60   31   57 1  
    61   31   58 1  
    62   32   59 1  
    63   32   60 1  
    64   33   61 1  
    65   33   62 1  
@<TRIPOS>SUBSTRUCTURE
     1 8OJ         1

