#	Name:			5uwm_ligand
#	Creating user name:	wangrx
#	Creation time:		Thu Aug  5 17:02:59 2021

#	Modifying user name:	wangrx
#	Modification time:	Thu Aug  5 17:04:13 2021

@<TRIPOS>MOLECULE
5uwm_ligand
   62    65     1     0     0
SMALL
GAST_HUCK


@<TRIPOS>ATOM
      1 O4        -47.2470  134.9170   -9.4680 O.2       1 8OA        -0.3945 
      2 C3        -46.5050  134.8350   -8.5090 C.2       1 8OA         0.2015 
      3 N5        -46.8560  135.2800   -7.3070 N.am      1 8OA        -0.2881 
      4 C6        -48.1730  135.8430   -7.0390 C.3       1 8OA         0.0196 
      5 C4        -45.1550  134.1820   -8.6890 C.3       1 8OA         0.1322 
      6 C7        -44.1660  135.1190   -9.3880 C.3       1 8OA        -0.0064 
      7 C10       -43.9770  136.4310   -8.6340 C.3       1 8OA        -0.0584 
      8 C8        -44.5740  135.4230  -10.8260 C.3       1 8OA        -0.0584 
      9 N8        -44.5580  133.7210   -7.4520 N.am      1 8OA        -0.2647 
     10 C9        -44.9790  132.5960   -6.8750 C.2       1 8OA         0.2317 
     11 O10       -45.9540  131.9610   -7.2630 O.2       1 8OA        -0.3892 
     12 C11       -44.1450  132.0470   -5.7860 C.2       1 8OA         0.1850 
     13 O15       -42.9640  132.7210   -5.6110 O.3       1 8OA        -0.2455 
     14 C14       -42.3070  132.0560   -4.6090 C.2       1 8OA         0.1236 
     15 C13       -43.0710  130.9550   -4.2130 C.2       1 8OA        -0.0471 
     16 C12       -44.2390  130.9470   -4.9600 C.2       1 8OA        -0.0402 
     17 C16       -40.9700  132.4740   -4.1250 C.ar      1 8OA         0.0082 
     18 C21       -40.6220  133.8140   -4.1930 C.ar      1 8OA        -0.0584 
     19 C20       -39.3700  134.2200   -3.7750 C.ar      1 8OA        -0.0590 
     20 C19       -38.4540  133.2910   -3.3140 C.ar      1 8OA        -0.0297 
     21 C18       -38.7880  131.9480   -3.2690 C.ar      1 8OA        -0.0590 
     22 C17       -40.0460  131.5340   -3.6860 C.ar      1 8OA        -0.0584 
     23 C22       -37.0850  133.7580   -2.8740 C.3       1 8OA         0.0524 
     24 S23       -35.9410  133.4570   -4.1910 S.3       1 8OA        -0.0101 
     25 C24       -34.3770  133.5140   -3.5070 C.2       1 8OA         0.2120 
     26 N29       -33.3100  133.2580   -4.2660 N.am      1 8OA        -0.1914 
     27 C28       -32.0730  133.2540   -3.7910 C.2       1 8OA         0.2019 
     28 O39       -31.1400  132.9880   -4.5720 O.2       1 8OA        -0.4174 
     29 C27       -31.8970  133.5520   -2.4610 C.2       1 8OA         0.0150 
     30 C36       -30.6120  133.6300   -1.6890 C.3       1 8OA        -0.0281 
     31 C37       -31.0610  134.0140   -0.2730 C.3       1 8OA        -0.0382 
     32 C38       -32.5930  134.1400   -0.2590 C.3       1 8OA        -0.0140 
     33 C26       -32.9740  133.8410   -1.6840 C.2       1 8OA        -0.0095 
     34 N25       -34.2200  133.8110   -2.1940 N.2       1 8OA        -0.2949 
     35 H1        -46.1931  135.2266   -6.5602 H         1 8OA         0.1848 
     36 H2        -48.2357  136.1422   -5.9823 H         1 8OA         0.0484 
     37 H3        -48.9446  135.0888   -7.2530 H         1 8OA         0.0484 
     38 H4        -48.3328  136.7230   -7.6793 H         1 8OA         0.0484 
     39 H5        -45.3057  133.3032   -9.3332 H         1 8OA         0.0801 
     40 H6        -43.1944  134.6040   -9.4156 H         1 8OA         0.0343 
     41 H7        -43.2601  137.0653   -9.1759 H         1 8OA         0.0234 
     42 H8        -43.5919  136.2219   -7.6251 H         1 8OA         0.0234 
     43 H9        -44.9426  136.9522   -8.5572 H         1 8OA         0.0234 
     44 H10       -44.7119  134.4799  -11.3752 H         1 8OA         0.0234 
     45 H11       -43.7874  136.0188  -11.3122 H         1 8OA         0.0234 
     46 H12       -45.5169  135.9895  -10.8277 H         1 8OA         0.0234 
     47 H13       -43.8240  134.2514   -7.0277 H         1 8OA         0.1869 
     48 H14       -42.7964  130.2287   -3.4495 H         1 8OA         0.0390 
     49 H15       -45.0545  130.2273   -4.9060 H         1 8OA         0.0450 
     50 H16       -41.3305  134.5411   -4.5731 H         1 8OA         0.0599 
     51 H17       -39.1039  135.2703   -3.8082 H         1 8OA         0.0558 
     52 H18       -38.0688  131.2213   -2.9089 H         1 8OA         0.0558 
     53 H19       -40.3061  130.4818   -3.6691 H         1 8OA         0.0599 
     54 H20       -36.7735  133.2023   -1.9773 H         1 8OA         0.0579 
     55 H21       -37.1149  134.8338   -2.6467 H         1 8OA         0.0579 
     56 H22       -29.9467  134.3976   -2.1112 H         1 8OA         0.0347 
     57 H23       -30.0961  132.6585   -1.6869 H         1 8OA         0.0347 
     58 H24       -30.6080  134.9753    0.0111 H         1 8OA         0.0303 
     59 H25       -30.7471  133.2361    0.4386 H         1 8OA         0.0303 
     60 H26       -32.9029  135.1558    0.0276 H         1 8OA         0.0443 
     61 H27       -33.0428  133.4110    0.4311 H         1 8OA         0.0443 
     62 H28       -33.4500  133.0604   -5.2362 H         1 8OA         0.2558 
@<TRIPOS>BOND
     1    1    2 2    
     2    2    3 am   
     3    2    5 1    
     4    3    4 1    
     5    5    6 1    
     6    5    9 1    
     7    6    7 1    
     8    6    8 1    
     9    9   10 am   
    10   10   11 2    
    11   10   12 1    
    12   12   13 1    
    13   12   16 2    
    14   13   14 1    
    15   14   15 2    
    16   14   17 1    
    17   15   16 1    
    18   17   18 ar   
    19   17   22 ar   
    20   18   19 ar   
    21   19   20 ar   
    22   20   21 ar   
    23   20   23 1    
    24   21   22 ar   
    25   23   24 1    
    26   24   25 1    
    27   25   26 am   
    28   25   34 2    
    29   26   27 am   
    30   27   28 2    
    31   27   29 1    
    32   29   30 1    
    33   29   33 2    
    34   30   31 1    
    35   31   32 1    
    36   32   33 1    
    37   33   34 1    
    38    3   35 1    
    39    4   36 1    
    40    4   37 1    
    41    4   38 1    
    42    5   39 1    
    43    6   40 1    
    44    7   41 1    
    45    7   42 1    
    46    7   43 1    
    47    8   44 1    
    48    8   45 1    
    49    8   46 1    
    50    9   47 1    
    51   15   48 1    
    52   16   49 1    
    53   18   50 1    
    54   19   51 1    
    55   21   52 1    
    56   22   53 1    
    57   23   54 1    
    58   23   55 1    
    59   30   56 1    
    60   30   57 1    
    61   31   58 1    
    62   31   59 1    
    63   32   60 1    
    64   32   61 1    
    65   26   62 1    
@<TRIPOS>SUBSTRUCTURE
     1 8OA         1 PERM              0 ****  ****    0 ROOT 
