### 
### Created by X-TOOL on Mon Sep 10 21:13:33 2018
### 

@<TRIPOS>MOLECULE
5uwn_ligand
   56    59     1     0     0
SMALL
GAST_HUCK


@<TRIPOS>ATOM
      1 C1         -1.6990   -7.6350   28.1450 C.3       1 8O7        -0.0182
      2 N1         -2.4240   -7.6960   29.4590 N.4       1 8O7         0.2197
      3 C2         -1.3830   -9.0290   27.5860 C.3       1 8O7         0.0664
      4 N3         -0.7210   -8.9310   26.2680 N.am      1 8O7        -0.2424
      5 S4         -0.1620  -10.3740   25.7670 S.o2      1 8O7         0.0680
      6 O5         -0.1330  -10.3630   24.3520 O.2       1 8O7        -0.1504
      7 O6         -1.0510  -11.4340   26.1240 O.2       1 8O7        -0.1504
      8 C7          1.3450  -10.6460   26.2720 C.ar      1 8O7         0.1072
      9 C8          2.3600   -9.7920   25.8750 C.ar      1 8O7        -0.0356
     10 C9          3.6690   -9.9940   26.2970 C.ar      1 8O7        -0.0538
     11 C10         4.0130  -11.0400   27.1320 C.ar      1 8O7        -0.0220
     12 C11         3.0070  -11.9100   27.5280 C.ar      1 8O7        -0.0538
     13 C12         1.6880  -11.7080   27.1050 C.ar      1 8O7        -0.0356
     14 C13         5.4510  -11.2050   27.5270 C.ar      1 8O7        -0.0242
     15 C14         6.2990  -10.1020   27.5140 C.ar      1 8O7        -0.0600
     16 C15         7.6440  -10.2360   27.8630 C.ar      1 8O7        -0.0579
     17 C16         8.1940  -11.4650   28.2180 C.ar      1 8O7        -0.0286
     18 C17         7.3460  -12.5700   28.2340 C.ar      1 8O7        -0.0579
     19 C18         5.9910  -12.4450   27.8910 C.ar      1 8O7        -0.0600
     20 C19         9.6730  -11.6020   28.5890 C.3       1 8O7         0.0517
     21 S20        10.8500  -10.9550   27.3960 S.3       1 8O7        -0.0302
     22 C21        12.4830  -11.2850   27.8130 C.2       1 8O7         0.1451
     23 N22        12.9660  -10.9280   29.0420 N.2       1 8O7        -0.2494
     24 C23        14.2470  -11.2090   29.3750 C.2       1 8O7         0.0723
     25 C24        15.1180  -11.8780   28.4370 C.3       1 8O7         0.1115
     26 C25        14.5600  -12.2370   27.1240 C.2       1 8O7         0.1742
     27 N26        13.2700  -11.9110   26.9000 N.2       1 8O7        -0.2585
     28 O27        15.2560  -12.8190   26.2610 O.2       1 8O7        -0.3928
     29 C28        16.4940  -12.0930   28.9860 C.3       1 8O7        -0.0090
     30 C29        16.3430  -11.6030   30.4370 C.3       1 8O7        -0.0254
     31 C30        14.9810  -10.9210   30.6560 C.3       1 8O7         0.0267
     32 H1         -0.7547   -7.0892   28.2875 H         1 8O7         0.0829
     33 H2         -2.3273   -7.0976   27.4195 H         1 8O7         0.0829
     34 H3         -2.6087   -6.7601   29.7846 H         1 8O7         0.1995
     35 H4         -1.8544   -8.1805   30.1349 H         1 8O7         0.1995
     36 H5         -3.2955   -8.1882   29.3394 H         1 8O7         0.1995
     37 H6         -2.3203   -9.5944   27.4771 H         1 8O7         0.0528
     38 H7         -0.7166   -9.5550   28.2855 H         1 8O7         0.0528
     39 H8         -0.6282   -8.0818   25.7482 H         1 8O7         0.1674
     40 H9          2.1307   -8.9544   25.2262 H         1 8O7         0.0635
     41 H10         4.4417   -9.3118   25.9616 H         1 8O7         0.0615
     42 H11         3.2441  -12.7514   28.1690 H         1 8O7         0.0615
     43 H12         0.9157  -12.3941   27.4334 H         1 8O7         0.0635
     44 H13         5.9118   -9.1300   27.2304 H         1 8O7         0.0609
     45 H14         8.2789   -9.3574   27.8575 H         1 8O7         0.0561
     46 H15         7.7384  -13.5405   28.5155 H         1 8O7         0.0561
     47 H16         5.3528  -13.3211   27.9080 H         1 8O7         0.0609
     48 H17         9.8874  -12.6721   28.7262 H         1 8O7         0.0581
     49 H18         9.8317  -11.0714   29.5394 H         1 8O7         0.0581
     50 H19        14.8229  -12.8716   28.8054 H         1 8O7         0.0868
     51 H20        17.2396  -11.4972   28.4391 H         1 8O7         0.0338
     52 H21        16.7763  -13.1556   28.9509 H         1 8O7         0.0338
     53 H22        17.1444  -10.8825   30.6575 H         1 8O7         0.0310
     54 H23        16.4265  -12.4638   31.1168 H         1 8O7         0.0310
     55 H24        14.4555  -11.3560   31.5189 H         1 8O7         0.0598
     56 H25        15.1012   -9.8382   30.8077 H         1 8O7         0.0598
@<TRIPOS>BOND
     1    1    2 1  
     2    1    3 1  
     3    3    4 1  
     4    4    5 am 
     5    5    6 2  
     6    5    7 2  
     7    5    8 1  
     8    8    9 ar 
     9    8   13 ar 
    10    9   10 ar 
    11   10   11 ar 
    12   11   12 ar 
    13   11   14 1  
    14   12   13 ar 
    15   14   15 ar 
    16   14   19 ar 
    17   15   16 ar 
    18   16   17 ar 
    19   17   18 ar 
    20   17   20 1  
    21   18   19 ar 
    22   20   21 1  
    23   21   22 1  
    24   22   23 1  
    25   22   27 2  
    26   23   24 2  
    27   24   25 1  
    28   24   31 1  
    29   25   26 1  
    30   25   29 1  
    31   26   27 1  
    32   26   28 2  
    33   29   30 1  
    34   30   31 1  
    35    1   32 1  
    36    1   33 1  
    37    2   34 1  
    38    2   35 1  
    39    2   36 1  
    40    3   37 1  
    41    3   38 1  
    42    4   39 1  
    43    9   40 1  
    44   10   41 1  
    45   12   42 1  
    46   13   43 1  
    47   15   44 1  
    48   16   45 1  
    49   18   46 1  
    50   19   47 1  
    51   20   48 1  
    52   20   49 1  
    53   25   50 1  
    54   29   51 1  
    55   29   52 1  
    56   30   53 1  
    57   30   54 1  
    58   31   55 1  
    59   31   56 1  
@<TRIPOS>SUBSTRUCTURE
     1 8O7         1

