### 
### Created by X-TOOL on Wed Jan  1 15:39:36 2020
### 

@<TRIPOS>MOLECULE
5ux4_ligand
   55    60     1     0     0
SMALL
GAST_HUCK


@<TRIPOS>ATOM
      1 C28        23.1340   -3.0410   23.9470 C.3       1 3UT         0.0696
      2 O29        23.7200   -1.6770   24.4920 O.3       1 3UT        -0.3664
      3 C30        23.2540   -0.6620   23.8370 C.3       1 3UT         0.0662
      4 C31        23.5820   -0.6540   22.2290 C.2       1 3UT        -0.0702
      5 C32        23.2630   -1.8640   21.6680 C.2       1 3UT        -0.0788
      6 C20        22.7420   -2.9880   22.5530 C.3       1 3UT         0.0453
      7 C13        22.3890   -4.2580   21.8260 C.ar      1 3UT         0.0424
      8 C14        21.9290   -5.3780   22.5090 C.ar      1 3UT        -0.0366
      9 N12        22.5340   -4.2490   20.5210 N.ar      1 3UT        -0.2480
     10 C11        22.2530   -5.2990   19.7670 C.ar      1 3UT         0.2716
     11 F33        22.4010   -5.3130   18.3920 F         1 3UT        -0.1489
     12 C8         21.7710   -6.4760   20.4110 C.ar      1 3UT         0.2164
     13 O7         21.4910   -7.5720   19.5130 O.3       1 3UT        -0.2025
     14 C9         21.5960   -6.5410   21.7790 C.ar      1 3UT         0.0124
     15 C10        21.0650   -7.8310   22.4730 C.3       1 3UT         0.0095
     16 C15        22.2150   -8.4380   23.2490 C.3       1 3UT         0.0606
     17 O16        21.8910   -8.4820   24.6490 O.3       1 3UT        -0.3082
     18 C17        20.5350   -7.9180   24.7660 C.3       1 3UT         0.0991
     19 N18        20.1080   -7.5590   23.3970 N.4       1 3UT         0.2067
     20 N19        19.7420   -7.7290   25.9800 N.4       1 3UT         0.2771
     21 C5         20.6150   -8.8240   21.4700 C.ar      1 3UT         0.0102
     22 C6         19.9610   -9.9290   21.9840 C.ar      1 3UT        -0.0444
     23 C4         20.8150   -8.6960   20.1140 C.ar      1 3UT         0.1598
     24 C3         20.3520   -9.6650   19.1990 C.ar      1 3UT         0.0036
     25 C2         19.7010  -10.7500   19.7180 C.ar      1 3UT        -0.0371
     26 C1         19.4950  -10.8970   21.0850 C.ar      1 3UT         0.0015
     27 C21        18.8320  -12.0380   21.4700 C.ar      1 3UT         0.0486
     28 C26        19.3460  -13.2460   21.0510 C.ar      1 3UT        -0.0393
     29 C25        18.6910  -14.4040   21.3870 C.ar      1 3UT        -0.0418
     30 C24        17.5300  -14.2860   22.1260 C.ar      1 3UT         0.0044
     31 N23        17.0530  -13.1150   22.5040 N.ar      1 3UT        -0.2652
     32 C22        17.6620  -11.9960   22.1910 C.ar      1 3UT         0.2214
     33 F27        17.1450  -10.8000   22.5970 F         1 3UT        -0.1516
     34 H1         22.2504   -3.3043   24.5469 H         1 3UT         0.0609
     35 H2         23.9016   -3.8203   24.0630 H         1 3UT         0.0609
     36 H3         23.6825    0.2512   24.2757 H         1 3UT         0.0688
     37 H4         22.1611   -0.6504   23.9608 H         1 3UT         0.0688
     38 H5         23.9951    0.1934   21.6839 H         1 3UT         0.0486
     39 H6         23.3815   -2.0199   20.5967 H         1 3UT         0.0472
     40 H7         21.7218   -2.6070   22.7083 H         1 3UT         0.0618
     41 H8         21.8271   -5.3593   23.5880 H         1 3UT         0.0656
     42 H9         23.1172   -7.8261   23.1025 H         1 3UT         0.0436
     43 H10        22.4016   -9.4593   22.8855 H         1 3UT         0.0436
     44 H11        20.0844   -8.9180   24.6824 H         1 3UT         0.1854
     45 H12        19.2777   -8.0828   23.1682 H         1 3UT         0.2019
     46 H13        19.9014   -6.5728   23.3696 H         1 3UT         0.2019
     47 H14        18.8525   -7.3201   25.7400 H         1 3UT         0.2081
     48 H15        20.2343   -7.1160   26.6109 H         1 3UT         0.2081
     49 H16        19.5925   -8.6205   26.4259 H         1 3UT         0.2081
     50 H17        19.8133  -10.0427   23.0519 H         1 3UT         0.0729
     51 H18        20.5055   -9.5544   18.1316 H         1 3UT         0.0641
     52 H19        19.3354  -11.5168   19.0446 H         1 3UT         0.0774
     53 H20        20.2563  -13.2810   20.4634 H         1 3UT         0.0715
     54 H21        19.0699  -15.3735   21.0843 H         1 3UT         0.0647
     55 H22        16.9927  -15.1853   22.4048 H         1 3UT         0.0793
@<TRIPOS>BOND
     1    1    2 1  
     2    1    6 1  
     3    2    3 1  
     4    3    4 1  
     5    4    5 2  
     6    5    6 1  
     7    6    7 1  
     8    7    8 ar 
     9    7    9 ar 
    10    8   14 ar 
    11    9   10 ar 
    12   10   11 1  
    13   10   12 ar 
    14   12   13 1  
    15   12   14 ar 
    16   13   23 1  
    17   14   15 1  
    18   15   16 1  
    19   15   19 1  
    20   15   21 1  
    21   16   17 1  
    22   17   18 1  
    23   18   19 1  
    24   18   20 1  
    25   21   22 ar 
    26   21   23 ar 
    27   22   26 ar 
    28   23   24 ar 
    29   24   25 ar 
    30   25   26 ar 
    31   26   27 1  
    32   27   28 ar 
    33   27   32 ar 
    34   28   29 ar 
    35   29   30 ar 
    36   30   31 ar 
    37   31   32 ar 
    38   32   33 1  
    39    1   34 1  
    40    1   35 1  
    41    3   36 1  
    42    3   37 1  
    43    4   38 1  
    44    5   39 1  
    45    6   40 1  
    46    8   41 1  
    47   16   42 1  
    48   16   43 1  
    49   18   44 1  
    50   19   45 1  
    51   19   46 1  
    52   20   47 1  
    53   20   48 1  
    54   20   49 1  
    55   22   50 1  
    56   24   51 1  
    57   25   52 1  
    58   28   53 1  
    59   29   54 1  
    60   30   55 1  
@<TRIPOS>SUBSTRUCTURE
     1 3UT         1

