### 
### Created by X-TOOL on Wed Jan  1 15:39:36 2020
### 

@<TRIPOS>MOLECULE
5uxm_ligand
   27    28     1     0     0
SMALL
GAST_HUCK


@<TRIPOS>ATOM
      1 N          -2.9880   -7.6190  -47.3250 N.4       1 TRP         0.2336
      2 CA         -3.6540   -8.7600  -48.0200 C.3       1 TRP         0.0324
      3 C          -4.8600   -9.2650  -47.2600 C.2       1 TRP         0.0858
      4 O          -5.6040  -10.0820  -47.7930 O.co2     1 TRP        -0.5642
      5 CB         -2.6700   -9.8960  -48.2300 C.3       1 TRP         0.0190
      6 CG         -2.0400  -10.4300  -46.9810 C.2       1 TRP        -0.0392
      7 CD1        -0.9140   -9.9800  -46.3890 C.2       1 TRP         0.0167
      8 CD2        -2.4910  -11.5490  -46.2160 C.ar      1 TRP        -0.0213
      9 NE1        -0.6220  -10.7560  -45.2910 N.pl3     1 TRP        -0.2890
     10 CE2        -1.5850  -11.7120  -45.1400 C.ar      1 TRP         0.0603
     11 CE3        -3.5650  -12.4330  -46.3360 C.ar      1 TRP        -0.0747
     12 CZ2        -1.7180  -12.7270  -44.2020 C.ar      1 TRP        -0.0443
     13 CZ3        -3.7100  -13.4470  -45.3820 C.ar      1 TRP        -0.0792
     14 CH2        -2.7790  -13.5910  -44.3370 C.ar      1 TRP        -0.0768
     15 OXT        -5.0760   -8.9050  -46.0940 O.co2     1 TRP        -0.5642
     16 H1         -2.1924   -7.3153  -47.8644 H         1 TRP         0.2011
     17 H2         -2.6814   -7.9148  -46.4115 H         1 TRP         0.2011
     18 H3         -3.6404   -6.8565  -47.2300 H         1 TRP         0.2011
     19 H4         -3.9937   -8.4065  -49.0047 H         1 TRP         0.1040
     20 H5         -1.8669   -9.5338  -48.8886 H         1 TRP         0.0423
     21 H6         -3.2035  -10.7223  -48.7226 H         1 TRP         0.0423
     22 H7         -0.3246   -9.1299  -46.7294 H         1 TRP         0.0795
     23 H8          0.1966  -10.6345  -44.6777 H         1 TRP         0.2216
     24 H9         -4.2724  -12.3360  -47.1516 H         1 TRP         0.0540
     25 H10        -1.0084  -12.8348  -43.3896 H         1 TRP         0.0541
     26 H11        -4.5496  -14.1294  -45.4491 H         1 TRP         0.0510
     27 H12        -2.9006  -14.3988  -43.6245 H         1 TRP         0.0530
@<TRIPOS>BOND
     1    1    2 1  
     2    2    3 1  
     3    2    5 1  
     4    3    4 ar 
     5    3   15 ar 
     6    5    6 1  
     7    6    7 2  
     8    6    8 1  
     9    7    9 1  
    10    8   10 ar 
    11    8   11 ar 
    12    9   10 1  
    13   10   12 ar 
    14   11   13 ar 
    15   12   14 ar 
    16   13   14 ar 
    17    1   16 1  
    18    1   17 1  
    19    1   18 1  
    20    2   19 1  
    21    5   20 1  
    22    5   21 1  
    23    7   22 1  
    24    9   23 1  
    25   11   24 1  
    26   12   25 1  
    27   13   26 1  
    28   14   27 1  
@<TRIPOS>SUBSTRUCTURE
     1 TRP         1

