### 
### Created by X-TOOL on Wed Jan  1 15:39:36 2020
### 

@<TRIPOS>MOLECULE
5uxn_ligand
   24    24     1     0     0
SMALL
GAST_HUCK


@<TRIPOS>ATOM
      1 N          37.6880    6.7850   47.7240 N.4       1 TYR         0.2340
      2 CA         36.6480    7.7710   48.0580 C.3       1 TYR         0.0363
      3 C          35.5850    7.8910   47.0140 C.2       1 TYR         0.0864
      4 O          35.7410    7.4040   45.8880 O.co2     1 TYR        -0.5641
      5 CB         37.2660    9.1560   48.3210 C.3       1 TYR         0.0311
      6 CG         37.9490    9.7810   47.1760 C.ar      1 TYR        -0.0467
      7 CD1        39.2940    9.5550   46.9370 C.ar      1 TYR        -0.0684
      8 CD2        37.2820   10.6700   46.3470 C.ar      1 TYR        -0.0684
      9 CE1        39.9280   10.1520   45.8830 C.ar      1 TYR        -0.0398
     10 CE2        37.9280   11.2800   45.2900 C.ar      1 TYR        -0.0398
     11 CZ         39.2550   11.0090   45.0510 C.ar      1 TYR         0.0805
     12 OH         39.9170   11.6300   44.0050 O.3       1 TYR        -0.3376
     13 OXT        34.5760    8.5420   47.2720 O.co2     1 TYR        -0.5641
     14 H1         38.3708    6.7529   48.4648 H         1 TYR         0.2012
     15 H2         38.1390    7.0510   46.8627 H         1 TYR         0.2012
     16 H3         37.2666    5.8757   47.6158 H         1 TYR         0.2012
     17 H4         36.1642    7.4325   48.9861 H         1 TYR         0.1046
     18 H5         37.9991    9.0495   49.1341 H         1 TYR         0.0479
     19 H6         36.4584    9.8306   48.6414 H         1 TYR         0.0479
     20 H7         39.8512    8.8966   47.5936 H         1 TYR         0.0530
     21 H8         36.2367   10.8897   46.5316 H         1 TYR         0.0530
     22 H9         40.9767    9.9450   45.7028 H         1 TYR         0.0525
     23 H10        37.3906   11.9707   44.6503 H         1 TYR         0.0525
     24 H11        40.8189   11.3325   43.9814 H         1 TYR         0.2458
@<TRIPOS>BOND
     1    1    2 1  
     2    2    3 1  
     3    2    5 1  
     4    3    4 ar 
     5    3   13 ar 
     6    5    6 1  
     7    6    7 ar 
     8    6    8 ar 
     9    7    9 ar 
    10    8   10 ar 
    11    9   11 ar 
    12   10   11 ar 
    13   11   12 1  
    14    1   14 1  
    15    1   15 1  
    16    1   16 1  
    17    2   17 1  
    18    5   18 1  
    19    5   19 1  
    20    7   20 1  
    21    8   21 1  
    22    9   22 1  
    23   10   23 1  
    24   12   24 1  
@<TRIPOS>SUBSTRUCTURE
     1 TYR         1

