### 
### Created by X-TOOL on Mon Sep 10 21:13:33 2018
### 

@<TRIPOS>MOLECULE
5uyu_ligand
   57    62     1     0     0
SMALL
GAST_HUCK


@<TRIPOS>ATOM
      1 C27        65.2680   52.5810   12.3720 C.3       1 8QV        -0.0032
      2 C28        63.8580   52.4260   12.9550 C.3       1 8QV         0.0571
      3 O29        63.0050   51.3540   12.4360 O.3       1 8QV        -0.3663
      4 C30        63.2390   51.1480   11.0190 C.3       1 8QV         0.0725
      5 C31        64.5520   50.9290   10.5880 C.2       1 8QV        -0.0531
      6 C26        65.6050   51.6230   11.2090 C.2       1 8QV        -0.0292
      7 C13        66.9340   51.4420   10.7680 C.ar      1 8QV         0.0476
      8 C15        67.2630   50.4660    9.8200 C.ar      1 8QV        -0.0301
      9 N12        67.9060   52.2510   11.2570 N.ar      1 8QV        -0.2808
     10 C11        69.1640   52.1230   10.8940 C.ar      1 8QV         0.0705
     11 C10        69.5390   51.1560    9.9510 C.ar      1 8QV         0.1795
     12 O9         70.8580   51.0780    9.6220 O.3       1 8QV        -0.2021
     13 C14        68.5800   50.2960    9.3990 C.ar      1 8QV         0.0184
     14 C7         68.9600   49.2300    8.3400 C.3       1 8QV         0.1197
     15 C16        68.5860   47.7880    8.7440 C.3       1 8QV         0.0511
     16 O17        67.5890   47.3580    7.7770 O.3       1 8QV        -0.3342
     17 C18        67.3420   48.4010    6.9240 C.cat     1 8QV         0.3378
     18 N19        68.1070   49.4840    7.1720 N.pl3     1 8QV        -0.2931
     19 N20        66.3650   48.3220    6.0050 N.pl3     1 8QV        -0.2518
     20 C5         70.4660   49.2810    8.0300 C.ar      1 8QV         0.0114
     21 C6         71.0100   48.4060    7.0900 C.ar      1 8QV        -0.0431
     22 C4         71.3110   50.1800    8.6900 C.ar      1 8QV         0.1609
     23 C3         72.6800   50.1880    8.3930 C.ar      1 8QV         0.0045
     24 C2         73.2080   49.3150    7.4470 C.ar      1 8QV        -0.0357
     25 C1         72.3710   48.4200    6.7910 C.ar      1 8QV         0.0023
     26 C8         72.8780   47.5230    5.8340 C.ar      1 8QV         0.0114
     27 C21        72.1750   47.2630    4.6490 C.ar      1 8QV        -0.0209
     28 C25        74.0730   46.8450    6.0520 C.ar      1 8QV         0.0175
     29 N24        74.5640   45.9940    5.1470 N.ar      1 8QV        -0.2963
     30 C23        73.9270   45.7280    4.0210 C.ar      1 8QV         0.0252
     31 C22        72.7070   46.3500    3.7410 C.ar      1 8QV         0.0516
     32 C32        72.0390   46.0470    2.5230 C.1       1 8QV        -0.0582
     33 C33        71.4540   45.7860    1.4670 C.1       1 8QV        -0.0969
     34 C34        70.7860   45.4710    0.2080 C.3       1 8QV        -0.0011
     35 H1         65.9924   52.4034   13.1805 H         1 8QV         0.0406
     36 H2         65.3735   53.6126   12.0051 H         1 8QV         0.0406
     37 H3         63.3287   53.3749   12.7836 H         1 8QV         0.0580
     38 H4         63.9695   52.2585   14.0364 H         1 8QV         0.0580
     39 H5         62.8690   52.0414   10.4946 H         1 8QV         0.0723
     40 H6         62.6463   50.2726   10.7150 H         1 8QV         0.0723
     41 H7         64.7561   50.2282    9.7798 H         1 8QV         0.0593
     42 H8         66.4836   49.8349    9.4085 H         1 8QV         0.0767
     43 H9         69.9170   52.7709   11.3279 H         1 8QV         0.0859
     44 H10        68.1673   47.7704    9.7610 H         1 8QV         0.0420
     45 H11        69.4702   47.1352    8.7001 H         1 8QV         0.0420
     46 H12        68.0947   50.3567    6.6251 H         1 8QV         0.3038
     47 H13        66.1901   49.1138    5.3699 H         1 8QV         0.3201
     48 H14        65.7909   47.4696    5.9356 H         1 8QV         0.3201
     49 H15        70.3615   47.7013    6.5821 H         1 8QV         0.0745
     50 H16        73.3355   50.8823    8.9061 H         1 8QV         0.0643
     51 H17        74.2683   49.3328    7.2224 H         1 8QV         0.0781
     52 H18        71.2354   47.7629    4.4433 H         1 8QV         0.0744
     53 H19        74.6168   47.0106    6.9750 H         1 8QV         0.0820
     54 H20        74.3512   45.0258    3.3125 H         1 8QV         0.0825
     55 H21        69.7049   45.6449    0.3130 H         1 8QV         0.0365
     56 H22        70.9645   44.4162   -0.0479 H         1 8QV         0.0365
     57 H23        71.1851   46.1145   -0.5899 H         1 8QV         0.0365
@<TRIPOS>BOND
     1    1    2 1  
     2    1    6 1  
     3    2    3 1  
     4    3    4 1  
     5    4    5 1  
     6    5    6 2  
     7    6    7 1  
     8    7    8 ar 
     9    7    9 ar 
    10    8   13 ar 
    11    9   10 ar 
    12   10   11 ar 
    13   11   12 1  
    14   11   13 ar 
    15   12   22 1  
    16   13   14 1  
    17   14   15 1  
    18   14   18 1  
    19   14   20 1  
    20   15   16 1  
    21   16   17 1  
    22   17   18 ar 
    23   17   19 ar 
    24   20   21 ar 
    25   20   22 ar 
    26   21   25 ar 
    27   22   23 ar 
    28   23   24 ar 
    29   24   25 ar 
    30   25   26 1  
    31   26   27 ar 
    32   26   28 ar 
    33   27   31 ar 
    34   28   29 ar 
    35   29   30 ar 
    36   30   31 ar 
    37   31   32 1  
    38   32   33 3  
    39   33   34 1  
    40    1   35 1  
    41    1   36 1  
    42    2   37 1  
    43    2   38 1  
    44    4   39 1  
    45    4   40 1  
    46    5   41 1  
    47    8   42 1  
    48   10   43 1  
    49   15   44 1  
    50   15   45 1  
    51   18   46 1  
    52   19   47 1  
    53   19   48 1  
    54   21   49 1  
    55   23   50 1  
    56   24   51 1  
    57   27   52 1  
    58   28   53 1  
    59   30   54 1  
    60   34   55 1  
    61   34   56 1  
    62   34   57 1  
@<TRIPOS>SUBSTRUCTURE
     1 8QV         1

